MODEL 1
REMARK VINA RESULT:      -8.9      0.000      0.000
REMARK  Name = 
REMARK  4 active torsions:
REMARK  status: ('A' for Active; 'I' for Inactive)
REMARK    1  A    between atoms: C_2  and  C_3
REMARK    2  A    between atoms: C_4  and  C_5
REMARK    3  A    between atoms: N_12  and  C_13
REMARK    4  A    between atoms: N_21  and  C_22
REMARK                            x       y       z     vdW  Elec       q    Type
REMARK                         _______ _______ _______ _____ _____    ______ ____
ROOT
ATOM      1  C   UNL     1       1.690   5.378  20.454  0.00  0.00    +0.000 A 
ATOM      2  C   UNL     1       1.103   4.222  20.953  0.00  0.00    +0.000 A 
ATOM      3  C   UNL     1       1.457   2.971  20.435  0.00  0.00    +0.000 A 
ATOM      4  C   UNL     1       2.409   2.830  19.439  0.00  0.00    +0.000 A 
ATOM      5  N   UNL     1       2.725   1.600  19.031  0.00  0.00    +0.000 NA
ATOM      6  C   UNL     1       3.659   1.503  18.084  0.00  0.00    +0.000 A 
ATOM      7  N   UNL     1       4.299   2.523  17.510  0.00  0.00    +0.000 NA
ATOM      8  C   UNL     1       3.980   3.763  17.928  0.00  0.00    +0.000 A 
ATOM      9  N   UNL     1       4.682   4.870  17.366  0.00  0.00    +0.000 N 
ATOM     10  C   UNL     1       3.004   3.985  18.916  0.00  0.00    +0.000 A 
ATOM     11  C   UNL     1       2.607   5.258  19.404  0.00  0.00    +0.000 A 
ATOM     12  H   UNL     1       5.130   5.384  18.117  0.00  0.00    +0.000 HD
ENDROOT
BRANCH   9  13
ATOM     13  C   UNL     1       5.518   4.765  16.226  0.00  0.00    +0.000 A 
ATOM     14  C   UNL     1       6.830   5.258  16.257  0.00  0.00    +0.000 A 
ATOM     15  C   UNL     1       7.640   5.233  15.121  0.00  0.00    +0.000 A 
ATOM     16  C   UNL     1       7.146   4.699  13.933  0.00  0.00    +0.000 A 
ATOM     17  C   UNL     1       5.858   4.169  13.902  0.00  0.00    +0.000 A 
ATOM     18 BR   UNL     1       5.189   3.449  12.286  0.00  0.00    +0.000 Br
ATOM     19  C   UNL     1       5.046   4.185  15.041  0.00  0.00    +0.000 A 
ENDBRANCH   9  13
BRANCH   1  22
ATOM     20  O   UNL     1       2.055   8.039  19.169  0.00  0.00    +0.000 OA
ATOM     21  C   UNL     1       1.629   7.873  20.304  0.00  0.00    +0.000 C 
ATOM     22  N   UNL     1       1.447   6.671  20.962  0.00  0.00    +0.000 N 
ATOM     23  H   UNL     1       1.048   6.707  21.890  0.00  0.00    +0.000 HD
BRANCH  21  24
ATOM     24  C   UNL     1       1.221   9.031  21.148  0.00  0.00    +0.000 C 
ATOM     25  C   UNL     1       0.426   9.992  20.648  0.00  0.00    +0.000 C 
BRANCH  25  26
ATOM     26  C   UNL     1      -0.027  11.163  21.415  0.00  0.00    +0.000 A 
ATOM     27  C   UNL     1       0.409  12.463  21.123  0.00  0.00    +0.000 A 
ATOM     28  C   UNL     1      -0.028  13.554  21.880  0.00  0.00    +0.000 A 
ATOM     29  C   UNL     1      -0.925  13.350  22.926  0.00  0.00    +0.000 A 
ATOM     30 CL   UNL     1      -1.448  14.688  23.872  0.00  0.00    +0.000 Cl
ATOM     31  C   UNL     1      -1.400  12.071  23.209  0.00  0.00    +0.000 A 
ATOM     32  C   UNL     1      -0.955  10.980  22.450  0.00  0.00    +0.000 A 
ENDBRANCH  25  26
ENDBRANCH  21  24
ENDBRANCH   1  22
TORSDOF 4
ENDMDL
MODEL 2
REMARK VINA RESULT:      -8.6      6.651     11.948
REMARK  Name = 
REMARK  4 active torsions:
REMARK  status: ('A' for Active; 'I' for Inactive)
REMARK    1  A    between atoms: C_2  and  C_3
REMARK    2  A    between atoms: C_4  and  C_5
REMARK    3  A    between atoms: N_12  and  C_13
REMARK    4  A    between atoms: N_21  and  C_22
REMARK                            x       y       z     vdW  Elec       q    Type
REMARK                         _______ _______ _______ _____ _____    ______ ____
ROOT
ATOM      1  C   UNL     1      -1.987  10.437  17.499  0.00  0.00    +0.000 A 
ATOM      2  C   UNL     1      -2.565  10.424  16.235  0.00  0.00    +0.000 A 
ATOM      3  C   UNL     1      -3.802  11.040  16.019  0.00  0.00    +0.000 A 
ATOM      4  C   UNL     1      -4.483  11.698  17.030  0.00  0.00    +0.000 A 
ATOM      5  N   UNL     1      -5.636  12.300  16.733  0.00  0.00    +0.000 NA
ATOM      6  C   UNL     1      -6.253  12.940  17.728  0.00  0.00    +0.000 A 
ATOM      7  N   UNL     1      -5.822  13.028  18.987  0.00  0.00    +0.000 NA
ATOM      8  C   UNL     1      -4.655  12.422  19.281  0.00  0.00    +0.000 A 
ATOM      9  N   UNL     1      -4.145  12.540  20.608  0.00  0.00    +0.000 N 
ATOM     10  C   UNL     1      -3.922  11.712  18.313  0.00  0.00    +0.000 A 
ATOM     11  C   UNL     1      -2.691  11.043  18.545  0.00  0.00    +0.000 A 
ATOM     12  H   UNL     1      -3.223  12.960  20.565  0.00  0.00    +0.000 HD
ENDROOT
BRANCH   9  13
ATOM     13  C   UNL     1      -4.905  13.044  21.693  0.00  0.00    +0.000 A 
ATOM     14  C   UNL     1      -6.090  12.408  22.090  0.00  0.00    +0.000 A 
ATOM     15  C   UNL     1      -6.890  12.934  23.104  0.00  0.00    +0.000 A 
ATOM     16  C   UNL     1      -6.504  14.107  23.748  0.00  0.00    +0.000 A 
ATOM     17  C   UNL     1      -5.308  14.726  23.390  0.00  0.00    +0.000 A 
ATOM     18 BR   UNL     1      -4.791  16.322  24.264  0.00  0.00    +0.000 Br
ATOM     19  C   UNL     1      -4.500  14.196  22.379  0.00  0.00    +0.000 A 
ENDBRANCH   9  13
BRANCH   1  22
ATOM     20  O   UNL     1       0.427  11.764  18.626  0.00  0.00    +0.000 OA
ATOM     21  C   UNL     1       0.367  10.579  18.328  0.00  0.00    +0.000 C 
ATOM     22  N   UNL     1      -0.714   9.905  17.792  0.00  0.00    +0.000 N 
ATOM     23  H   UNL     1      -0.610   8.912  17.638  0.00  0.00    +0.000 HD
BRANCH  21  24
ATOM     24  C   UNL     1       1.531   9.673  18.541  0.00  0.00    +0.000 C 
ATOM     25  C   UNL     1       1.557   8.454  17.978  0.00  0.00    +0.000 C 
BRANCH  25  26
ATOM     26  C   UNL     1       2.668   7.502  18.133  0.00  0.00    +0.000 A 
ATOM     27  C   UNL     1       3.776   7.498  17.275  0.00  0.00    +0.000 A 
ATOM     28  C   UNL     1       4.809   6.570  17.439  0.00  0.00    +0.000 A 
ATOM     29  C   UNL     1       4.748   5.651  18.484  0.00  0.00    +0.000 A 
ATOM     30 CL   UNL     1       6.007   4.496  18.677  0.00  0.00    +0.000 Cl
ATOM     31  C   UNL     1       3.674   5.663  19.372  0.00  0.00    +0.000 A 
ATOM     32  C   UNL     1       2.639   6.591  19.200  0.00  0.00    +0.000 A 
ENDBRANCH  25  26
ENDBRANCH  21  24
ENDBRANCH   1  22
TORSDOF 4
ENDMDL
MODEL 3
REMARK VINA RESULT:      -8.6      2.053      2.569
REMARK  Name = 
REMARK  4 active torsions:
REMARK  status: ('A' for Active; 'I' for Inactive)
REMARK    1  A    between atoms: C_2  and  C_3
REMARK    2  A    between atoms: C_4  and  C_5
REMARK    3  A    between atoms: N_12  and  C_13
REMARK    4  A    between atoms: N_21  and  C_22
REMARK                            x       y       z     vdW  Elec       q    Type
REMARK                         _______ _______ _______ _____ _____    ______ ____
ROOT
ATOM      1  C   UNL     1       1.973   6.956  19.913  0.00  0.00    +0.000 A 
ATOM      2  C   UNL     1       1.488   6.012  20.810  0.00  0.00    +0.000 A 
ATOM      3  C   UNL     1       1.866   4.670  20.695  0.00  0.00    +0.000 A 
ATOM      4  C   UNL     1       2.744   4.234  19.716  0.00  0.00    +0.000 A 
ATOM      5  N   UNL     1       3.092   2.947  19.702  0.00  0.00    +0.000 NA
ATOM      6  C   UNL     1       3.954   2.569  18.756  0.00  0.00    +0.000 A 
ATOM      7  N   UNL     1       4.493   3.360  17.828  0.00  0.00    +0.000 NA
ATOM      8  C   UNL     1       4.142   4.661  17.849  0.00  0.00    +0.000 A 
ATOM      9  N   UNL     1       4.739   5.540  16.898  0.00  0.00    +0.000 N 
ATOM     10  C   UNL     1       3.235   5.170  18.797  0.00  0.00    +0.000 A 
ATOM     11  C   UNL     1       2.811   6.522  18.881  0.00  0.00    +0.000 A 
ATOM     12  H   UNL     1       5.216   6.283  17.399  0.00  0.00    +0.000 HD
ENDROOT
BRANCH   9  13
ATOM     13  C   UNL     1       5.488   5.090  15.783  0.00  0.00    +0.000 A 
ATOM     14  C   UNL     1       6.878   5.267  15.740  0.00  0.00    +0.000 A 
ATOM     15  C   UNL     1       7.621   4.900  14.617  0.00  0.00    +0.000 A 
ATOM     16  C   UNL     1       6.977   4.334  13.519  0.00  0.00    +0.000 A 
ATOM     17  C   UNL     1       5.602   4.116  13.567  0.00  0.00    +0.000 A 
ATOM     18 BR   UNL     1       4.730   3.352  12.072  0.00  0.00    +0.000 Br
ATOM     19  C   UNL     1       4.856   4.475  14.695  0.00  0.00    +0.000 A 
ENDBRANCH   9  13
BRANCH   1  22
ATOM     20  O   UNL     1      -0.109   8.409  21.468  0.00  0.00    +0.000 OA
ATOM     21  C   UNL     1       0.721   8.951  20.750  0.00  0.00    +0.000 C 
ATOM     22  N   UNL     1       1.703   8.337  19.996  0.00  0.00    +0.000 N 
ATOM     23  H   UNL     1       2.335   8.937  19.484  0.00  0.00    +0.000 HD
BRANCH  21  24
ATOM     24  C   UNL     1       0.770  10.434  20.618  0.00  0.00    +0.000 C 
ATOM     25  C   UNL     1       0.969  11.006  19.419  0.00  0.00    +0.000 C 
BRANCH  25  26
ATOM     26  C   UNL     1       1.026  12.459  19.202  0.00  0.00    +0.000 A 
ATOM     27  C   UNL     1      -0.126  13.231  18.998  0.00  0.00    +0.000 A 
ATOM     28  C   UNL     1      -0.038  14.609  18.779  0.00  0.00    +0.000 A 
ATOM     29  C   UNL     1       1.209  15.228  18.784  0.00  0.00    +0.000 A 
ATOM     30 CL   UNL     1       1.323  16.919  18.495  0.00  0.00    +0.000 Cl
ATOM     31  C   UNL     1       2.364  14.485  19.023  0.00  0.00    +0.000 A 
ATOM     32  C   UNL     1       2.271  13.104  19.237  0.00  0.00    +0.000 A 
ENDBRANCH  25  26
ENDBRANCH  21  24
ENDBRANCH   1  22
TORSDOF 4
ENDMDL
MODEL 4
REMARK VINA RESULT:      -8.5      6.034     11.567
REMARK  Name = 
REMARK  4 active torsions:
REMARK  status: ('A' for Active; 'I' for Inactive)
REMARK    1  A    between atoms: C_2  and  C_3
REMARK    2  A    between atoms: C_4  and  C_5
REMARK    3  A    between atoms: N_12  and  C_13
REMARK    4  A    between atoms: N_21  and  C_22
REMARK                            x       y       z     vdW  Elec       q    Type
REMARK                         _______ _______ _______ _____ _____    ______ ____
ROOT
ATOM      1  C   UNL     1      -1.449  10.118  17.546  0.00  0.00    +0.000 A 
ATOM      2  C   UNL     1      -2.432  10.020  16.568  0.00  0.00    +0.000 A 
ATOM      3  C   UNL     1      -3.663  10.663  16.738  0.00  0.00    +0.000 A 
ATOM      4  C   UNL     1      -3.944  11.430  17.856  0.00  0.00    +0.000 A 
ATOM      5  N   UNL     1      -5.124  12.049  17.924  0.00  0.00    +0.000 NA
ATOM      6  C   UNL     1      -5.351  12.794  19.007  0.00  0.00    +0.000 A 
ATOM      7  N   UNL     1      -4.507  12.972  20.024  0.00  0.00    +0.000 NA
ATOM      8  C   UNL     1      -3.314  12.350  19.950  0.00  0.00    +0.000 A 
ATOM      9  N   UNL     1      -2.373  12.559  21.001  0.00  0.00    +0.000 N 
ATOM     10  C   UNL     1      -2.970  11.532  18.858  0.00  0.00    +0.000 A 
ATOM     11  C   UNL     1      -1.740  10.838  18.709  0.00  0.00    +0.000 A 
ATOM     12  H   UNL     1      -1.521  12.939  20.601  0.00  0.00    +0.000 HD
ENDROOT
BRANCH   9  13
ATOM     13  C   UNL     1      -2.703  13.183  22.230  0.00  0.00    +0.000 A 
ATOM     14  C   UNL     1      -3.381  12.472  23.230  0.00  0.00    +0.000 A 
ATOM     15  C   UNL     1      -3.781  13.091  24.414  0.00  0.00    +0.000 A 
ATOM     16  C   UNL     1      -3.494  14.439  24.619  0.00  0.00    +0.000 A 
ATOM     17  C   UNL     1      -2.786  15.145  23.649  0.00  0.00    +0.000 A 
ATOM     18 BR   UNL     1      -2.403  16.976  23.928  0.00  0.00    +0.000 Br
ATOM     19  C   UNL     1      -2.375  14.524  22.464  0.00  0.00    +0.000 A 
ENDBRANCH   9  13
BRANCH   1  22
ATOM     20  O   UNL     1       0.877  10.277  19.396  0.00  0.00    +0.000 OA
ATOM     21  C   UNL     1       0.880   9.669  18.334  0.00  0.00    +0.000 C 
ATOM     22  N   UNL     1      -0.157   9.565  17.427  0.00  0.00    +0.000 N 
ATOM     23  H   UNL     1      -0.003   8.990  16.610  0.00  0.00    +0.000 HD
BRANCH  21  24
ATOM     24  C   UNL     1       2.082   8.912  17.885  0.00  0.00    +0.000 C 
ATOM     25  C   UNL     1       2.238   7.620  18.218  0.00  0.00    +0.000 C 
BRANCH  25  26
ATOM     26  C   UNL     1       3.390   6.801  17.812  0.00  0.00    +0.000 A 
ATOM     27  C   UNL     1       3.469   5.429  18.089  0.00  0.00    +0.000 A 
ATOM     28  C   UNL     1       4.585   4.681  17.703  0.00  0.00    +0.000 A 
ATOM     29  C   UNL     1       5.625   5.302  17.016  0.00  0.00    +0.000 A 
ATOM     30 CL   UNL     1       7.008   4.389  16.558  0.00  0.00    +0.000 Cl
ATOM     31  C   UNL     1       5.550   6.656  16.697  0.00  0.00    +0.000 A 
ATOM     32  C   UNL     1       4.431   7.403  17.090  0.00  0.00    +0.000 A 
ENDBRANCH  25  26
ENDBRANCH  21  24
ENDBRANCH   1  22
TORSDOF 4
ENDMDL
MODEL 5
REMARK VINA RESULT:      -8.5      5.196     10.437
REMARK  Name = 
REMARK  4 active torsions:
REMARK  status: ('A' for Active; 'I' for Inactive)
REMARK    1  A    between atoms: C_2  and  C_3
REMARK    2  A    between atoms: C_4  and  C_5
REMARK    3  A    between atoms: N_12  and  C_13
REMARK    4  A    between atoms: N_21  and  C_22
REMARK                            x       y       z     vdW  Elec       q    Type
REMARK                         _______ _______ _______ _____ _____    ______ ____
ROOT
ATOM      1  C   UNL     1       0.946   8.885  20.704  0.00  0.00    +0.000 A 
ATOM      2  C   UNL     1       0.218   8.490  21.820  0.00  0.00    +0.000 A 
ATOM      3  C   UNL     1      -0.417   9.444  22.622  0.00  0.00    +0.000 A 
ATOM      4  C   UNL     1      -0.368  10.798  22.333  0.00  0.00    +0.000 A 
ATOM      5  N   UNL     1      -1.038  11.641  23.121  0.00  0.00    +0.000 NA
ATOM      6  C   UNL     1      -0.983  12.935  22.799  0.00  0.00    +0.000 A 
ATOM      7  N   UNL     1      -0.320  13.456  21.767  0.00  0.00    +0.000 NA
ATOM      8  C   UNL     1       0.351  12.601  20.971  0.00  0.00    +0.000 A 
ATOM      9  N   UNL     1       1.031  13.125  19.832  0.00  0.00    +0.000 N 
ATOM     10  C   UNL     1       0.370  11.216  21.219  0.00  0.00    +0.000 A 
ATOM     11  C   UNL     1       1.057  10.252  20.433  0.00  0.00    +0.000 A 
ATOM     12  H   UNL     1       0.669  12.669  19.001  0.00  0.00    +0.000 HD
ENDROOT
BRANCH   9  13
ATOM     13  C   UNL     1       1.247  14.510  19.622  0.00  0.00    +0.000 A 
ATOM     14  C   UNL     1       2.400  15.134  20.120  0.00  0.00    +0.000 A 
ATOM     15  C   UNL     1       2.592  16.510  19.989  0.00  0.00    +0.000 A 
ATOM     16  C   UNL     1       1.629  17.283  19.343  0.00  0.00    +0.000 A 
ATOM     17  C   UNL     1       0.499  16.666  18.809  0.00  0.00    +0.000 A 
ATOM     18 BR   UNL     1      -0.808  17.720  17.937  0.00  0.00    +0.000 Br
ATOM     19  C   UNL     1       0.308  15.286  18.931  0.00  0.00    +0.000 A 
ENDBRANCH   9  13
BRANCH   1  22
ATOM     20  O   UNL     1       1.692   6.024  21.053  0.00  0.00    +0.000 OA
ATOM     21  C   UNL     1       1.867   6.663  20.025  0.00  0.00    +0.000 C 
ATOM     22  N   UNL     1       1.557   7.990  19.801  0.00  0.00    +0.000 N 
ATOM     23  H   UNL     1       1.734   8.358  18.876  0.00  0.00    +0.000 HD
BRANCH  21  24
ATOM     24  C   UNL     1       2.464   6.025  18.817  0.00  0.00    +0.000 C 
ATOM     25  C   UNL     1       3.714   6.333  18.431  0.00  0.00    +0.000 C 
BRANCH  25  26
ATOM     26  C   UNL     1       4.378   5.746  17.257  0.00  0.00    +0.000 A 
ATOM     27  C   UNL     1       4.980   6.533  16.266  0.00  0.00    +0.000 A 
ATOM     28  C   UNL     1       5.590   5.945  15.154  0.00  0.00    +0.000 A 
ATOM     29  C   UNL     1       5.618   4.558  15.038  0.00  0.00    +0.000 A 
ATOM     30 CL   UNL     1       6.349   3.833  13.661  0.00  0.00    +0.000 Cl
ATOM     31  C   UNL     1       5.058   3.756  16.030  0.00  0.00    +0.000 A 
ATOM     32  C   UNL     1       4.444   4.350  17.140  0.00  0.00    +0.000 A 
ENDBRANCH  25  26
ENDBRANCH  21  24
ENDBRANCH   1  22
TORSDOF 4
ENDMDL
MODEL 6
REMARK VINA RESULT:      -8.5      6.339     11.638
REMARK  Name = 
REMARK  4 active torsions:
REMARK  status: ('A' for Active; 'I' for Inactive)
REMARK    1  A    between atoms: C_2  and  C_3
REMARK    2  A    between atoms: C_4  and  C_5
REMARK    3  A    between atoms: N_12  and  C_13
REMARK    4  A    between atoms: N_21  and  C_22
REMARK                            x       y       z     vdW  Elec       q    Type
REMARK                         _______ _______ _______ _____ _____    ______ ____
ROOT
ATOM      1  C   UNL     1      -1.684  10.134  17.335  0.00  0.00    +0.000 A 
ATOM      2  C   UNL     1      -2.475   9.939  16.209  0.00  0.00    +0.000 A 
ATOM      3  C   UNL     1      -3.749  10.514  16.134  0.00  0.00    +0.000 A 
ATOM      4  C   UNL     1      -4.258  11.309  17.148  0.00  0.00    +0.000 A 
ATOM      5  N   UNL     1      -5.462  11.859  16.981  0.00  0.00    +0.000 NA
ATOM      6  C   UNL     1      -5.910  12.633  17.970  0.00  0.00    +0.000 A 
ATOM      7  N   UNL     1      -5.266  12.902  19.106  0.00  0.00    +0.000 NA
ATOM      8  C   UNL     1      -4.049  12.348  19.269  0.00  0.00    +0.000 A 
ATOM      9  N   UNL     1      -3.316  12.656  20.454  0.00  0.00    +0.000 N 
ATOM     10  C   UNL     1      -3.479  11.508  18.294  0.00  0.00    +0.000 A 
ATOM     11  C   UNL     1      -2.208  10.882  18.394  0.00  0.00    +0.000 A 
ATOM     12  H   UNL     1      -2.428  13.068  20.187  0.00  0.00    +0.000 HD
ENDROOT
BRANCH   9  13
ATOM     13  C   UNL     1      -3.886  13.308  21.575  0.00  0.00    +0.000 A 
ATOM     14  C   UNL     1      -3.224  14.383  22.186  0.00  0.00    +0.000 A 
ATOM     15  C   UNL     1      -3.732  14.987  23.336  0.00  0.00    +0.000 A 
ATOM     16  C   UNL     1      -4.926  14.526  23.887  0.00  0.00    +0.000 A 
ATOM     17  C   UNL     1      -5.613  13.486  23.265  0.00  0.00    +0.000 A 
ATOM     18 BR   UNL     1      -7.231  12.860  24.019  0.00  0.00    +0.000 Br
ATOM     19  C   UNL     1      -5.110  12.884  22.107  0.00  0.00    +0.000 A 
ENDBRANCH   9  13
BRANCH   1  22
ATOM     20  O   UNL     1       0.657  11.329  18.734  0.00  0.00    +0.000 OA
ATOM     21  C   UNL     1       0.678  10.257  18.144  0.00  0.00    +0.000 C 
ATOM     22  N   UNL     1      -0.364   9.654  17.467  0.00  0.00    +0.000 N 
ATOM     23  H   UNL     1      -0.189   8.744  17.062  0.00  0.00    +0.000 HD
BRANCH  21  24
ATOM     24  C   UNL     1       1.915   9.427  18.104  0.00  0.00    +0.000 C 
ATOM     25  C   UNL     1       1.850   8.098  18.289  0.00  0.00    +0.000 C 
BRANCH  25  26
ATOM     26  C   UNL     1       3.021   7.208  18.260  0.00  0.00    +0.000 A 
ATOM     27  C   UNL     1       3.208   6.186  19.201  0.00  0.00    +0.000 A 
ATOM     28  C   UNL     1       4.340   5.366  19.155  0.00  0.00    +0.000 A 
ATOM     29  C   UNL     1       5.284   5.552  18.149  0.00  0.00    +0.000 A 
ATOM     30 CL   UNL     1       6.687   4.559  18.103  0.00  0.00    +0.000 Cl
ATOM     31  C   UNL     1       5.098   6.537  17.182  0.00  0.00    +0.000 A 
ATOM     32  C   UNL     1       3.966   7.360  17.234  0.00  0.00    +0.000 A 
ENDBRANCH  25  26
ENDBRANCH  21  24
ENDBRANCH   1  22
TORSDOF 4
ENDMDL
MODEL 7
REMARK VINA RESULT:      -8.5      5.198     10.560
REMARK  Name = 
REMARK  4 active torsions:
REMARK  status: ('A' for Active; 'I' for Inactive)
REMARK    1  A    between atoms: C_2  and  C_3
REMARK    2  A    between atoms: C_4  and  C_5
REMARK    3  A    between atoms: N_12  and  C_13
REMARK    4  A    between atoms: N_21  and  C_22
REMARK                            x       y       z     vdW  Elec       q    Type
REMARK                         _______ _______ _______ _____ _____    ______ ____
ROOT
ATOM      1  C   UNL     1       0.977   8.906  20.644  0.00  0.00    +0.000 A 
ATOM      2  C   UNL     1       0.354   8.449  21.799  0.00  0.00    +0.000 A 
ATOM      3  C   UNL     1      -0.295   9.348  22.653  0.00  0.00    +0.000 A 
ATOM      4  C   UNL     1      -0.366  10.703  22.379  0.00  0.00    +0.000 A 
ATOM      5  N   UNL     1      -1.043  11.488  23.219  0.00  0.00    +0.000 NA
ATOM      6  C   UNL     1      -1.105  12.785  22.911  0.00  0.00    +0.000 A 
ATOM      7  N   UNL     1      -0.550  13.362  21.845  0.00  0.00    +0.000 NA
ATOM      8  C   UNL     1       0.129  12.566  20.997  0.00  0.00    +0.000 A 
ATOM      9  N   UNL     1       0.693  13.148  19.823  0.00  0.00    +0.000 N 
ATOM     10  C   UNL     1       0.266  11.184  21.225  0.00  0.00    +0.000 A 
ATOM     11  C   UNL     1       0.969  10.281  20.385  0.00  0.00    +0.000 A 
ATOM     12  H   UNL     1       0.312  12.673  19.011  0.00  0.00    +0.000 HD
ENDROOT
BRANCH   9  13
ATOM     13  C   UNL     1       0.792  14.547  19.618  0.00  0.00    +0.000 A 
ATOM     14  C   UNL     1      -0.169  15.225  18.855  0.00  0.00    +0.000 A 
ATOM     15  C   UNL     1      -0.046  16.587  18.578  0.00  0.00    +0.000 A 
ATOM     16  C   UNL     1       1.045  17.295  19.077  0.00  0.00    +0.000 A 
ATOM     17  C   UNL     1       1.985  16.641  19.870  0.00  0.00    +0.000 A 
ATOM     18 BR   UNL     1       3.467  17.606  20.541  0.00  0.00    +0.000 Br
ATOM     19  C   UNL     1       1.859  15.277  20.156  0.00  0.00    +0.000 A 
ENDBRANCH   9  13
BRANCH   1  22
ATOM     20  O   UNL     1       1.920   6.094  20.898  0.00  0.00    +0.000 OA
ATOM     21  C   UNL     1       1.998   6.759  19.874  0.00  0.00    +0.000 C 
ATOM     22  N   UNL     1       1.592   8.067  19.692  0.00  0.00    +0.000 N 
ATOM     23  H   UNL     1       1.694   8.459  18.766  0.00  0.00    +0.000 HD
BRANCH  21  24
ATOM     24  C   UNL     1       2.566   6.180  18.624  0.00  0.00    +0.000 C 
ATOM     25  C   UNL     1       3.891   6.204  18.402  0.00  0.00    +0.000 C 
BRANCH  25  26
ATOM     26  C   UNL     1       4.531   5.650  17.199  0.00  0.00    +0.000 A 
ATOM     27  C   UNL     1       5.016   6.465  16.167  0.00  0.00    +0.000 A 
ATOM     28  C   UNL     1       5.606   5.907  15.028  0.00  0.00    +0.000 A 
ATOM     29  C   UNL     1       5.734   4.524  14.927  0.00  0.00    +0.000 A 
ATOM     30 CL   UNL     1       6.441   3.835  13.520  0.00  0.00    +0.000 Cl
ATOM     31  C   UNL     1       5.293   3.698  15.959  0.00  0.00    +0.000 A 
ATOM     32  C   UNL     1       4.698   4.261  17.096  0.00  0.00    +0.000 A 
ENDBRANCH  25  26
ENDBRANCH  21  24
ENDBRANCH   1  22
TORSDOF 4
ENDMDL
MODEL 8
REMARK VINA RESULT:      -8.5      0.931      1.029
REMARK  Name = 
REMARK  4 active torsions:
REMARK  status: ('A' for Active; 'I' for Inactive)
REMARK    1  A    between atoms: C_2  and  C_3
REMARK    2  A    between atoms: C_4  and  C_5
REMARK    3  A    between atoms: N_12  and  C_13
REMARK    4  A    between atoms: N_21  and  C_22
REMARK                            x       y       z     vdW  Elec       q    Type
REMARK                         _______ _______ _______ _____ _____    ______ ____
ROOT
ATOM      1  C   UNL     1       1.991   6.590  19.898  0.00  0.00    +0.000 A 
ATOM      2  C   UNL     1       1.468   5.592  20.711  0.00  0.00    +0.000 A 
ATOM      3  C   UNL     1       1.808   4.252  20.491  0.00  0.00    +0.000 A 
ATOM      4  C   UNL     1       2.684   3.871  19.489  0.00  0.00    +0.000 A 
ATOM      5  N   UNL     1       2.994   2.579  19.373  0.00  0.00    +0.000 NA
ATOM      6  C   UNL     1       3.855   2.252  18.407  0.00  0.00    +0.000 A 
ATOM      7  N   UNL     1       4.427   3.100  17.551  0.00  0.00    +0.000 NA
ATOM      8  C   UNL     1       4.115   4.404  17.674  0.00  0.00    +0.000 A 
ATOM      9  N   UNL     1       4.748   5.339  16.803  0.00  0.00    +0.000 N 
ATOM     10  C   UNL     1       3.212   4.862  18.652  0.00  0.00    +0.000 A 
ATOM     11  C   UNL     1       2.827   6.216  18.841  0.00  0.00    +0.000 A 
ATOM     12  H   UNL     1       5.241   6.024  17.367  0.00  0.00    +0.000 HD
ENDROOT
BRANCH   9  13
ATOM     13  C   UNL     1       5.497   4.958  15.662  0.00  0.00    +0.000 A 
ATOM     14  C   UNL     1       6.875   5.207  15.597  0.00  0.00    +0.000 A 
ATOM     15  C   UNL     1       7.612   4.908  14.451  0.00  0.00    +0.000 A 
ATOM     16  C   UNL     1       6.975   4.340  13.350  0.00  0.00    +0.000 A 
ATOM     17  C   UNL     1       5.614   4.050  13.418  0.00  0.00    +0.000 A 
ATOM     18 BR   UNL     1       4.752   3.284  11.919  0.00  0.00    +0.000 Br
ATOM     19  C   UNL     1       4.874   4.341  14.569  0.00  0.00    +0.000 A 
ENDBRANCH   9  13
BRANCH   1  22
ATOM     20  O   UNL     1       1.368   8.720  17.914  0.00  0.00    +0.000 OA
ATOM     21  C   UNL     1       1.463   8.906  19.119  0.00  0.00    +0.000 C 
ATOM     22  N   UNL     1       1.760   7.968  20.090  0.00  0.00    +0.000 N 
ATOM     23  H   UNL     1       1.763   8.281  21.051  0.00  0.00    +0.000 HD
BRANCH  21  24
ATOM     24  C   UNL     1       1.239  10.256  19.708  0.00  0.00    +0.000 C 
ATOM     25  C   UNL     1       0.373  10.423  20.722  0.00  0.00    +0.000 C 
BRANCH  25  26
ATOM     26  C   UNL     1       0.099  11.718  21.362  0.00  0.00    +0.000 A 
ATOM     27  C   UNL     1       0.754  12.896  20.979  0.00  0.00    +0.000 A 
ATOM     28  C   UNL     1       0.482  14.110  21.618  0.00  0.00    +0.000 A 
ATOM     29  C   UNL     1      -0.469  14.154  22.634  0.00  0.00    +0.000 A 
ATOM     30 CL   UNL     1      -0.791  15.641  23.435  0.00  0.00    +0.000 Cl
ATOM     31  C   UNL     1      -1.160  13.002  23.004  0.00  0.00    +0.000 A 
ATOM     32  C   UNL     1      -0.880  11.787  22.365  0.00  0.00    +0.000 A 
ENDBRANCH  25  26
ENDBRANCH  21  24
ENDBRANCH   1  22
TORSDOF 4
ENDMDL
MODEL 9
REMARK VINA RESULT:      -8.4      8.034     12.358
REMARK  Name = 
REMARK  4 active torsions:
REMARK  status: ('A' for Active; 'I' for Inactive)
REMARK    1  A    between atoms: C_2  and  C_3
REMARK    2  A    between atoms: C_4  and  C_5
REMARK    3  A    between atoms: N_12  and  C_13
REMARK    4  A    between atoms: N_21  and  C_22
REMARK                            x       y       z     vdW  Elec       q    Type
REMARK                         _______ _______ _______ _____ _____    ______ ____
ROOT
ATOM      1  C   UNL     1       8.871  12.464  17.795  0.00  0.00    +0.000 A 
ATOM      2  C   UNL     1      10.105  13.091  17.675  0.00  0.00    +0.000 A 
ATOM      3  C   UNL     1      10.202  14.483  17.777  0.00  0.00    +0.000 A 
ATOM      4  C   UNL     1       9.097  15.281  18.022  0.00  0.00    +0.000 A 
ATOM      5  N   UNL     1       9.279  16.597  18.153  0.00  0.00    +0.000 NA
ATOM      6  C   UNL     1       8.194  17.330  18.407  0.00  0.00    +0.000 A 
ATOM      7  N   UNL     1       6.951  16.868  18.538  0.00  0.00    +0.000 NA
ATOM      8  C   UNL     1       6.772  15.539  18.411  0.00  0.00    +0.000 A 
ATOM      9  N   UNL     1       5.460  15.009  18.594  0.00  0.00    +0.000 N 
ATOM     10  C   UNL     1       7.843  14.668  18.135  0.00  0.00    +0.000 A 
ATOM     11  C   UNL     1       7.736  13.261  17.979  0.00  0.00    +0.000 A 
ATOM     12  H   UNL     1       5.489  14.325  19.342  0.00  0.00    +0.000 HD
ENDROOT
BRANCH   9  13
ATOM     13  C   UNL     1       4.297  15.816  18.660  0.00  0.00    +0.000 A 
ATOM     14  C   UNL     1       3.586  16.138  17.495  0.00  0.00    +0.000 A 
ATOM     15  C   UNL     1       2.484  16.992  17.532  0.00  0.00    +0.000 A 
ATOM     16  C   UNL     1       2.069  17.531  18.748  0.00  0.00    +0.000 A 
ATOM     17  C   UNL     1       2.743  17.186  19.917  0.00  0.00    +0.000 A 
ATOM     18 BR   UNL     1       2.180  17.923  21.566  0.00  0.00    +0.000 Br
ATOM     19  C   UNL     1       3.843  16.322  19.885  0.00  0.00    +0.000 A 
ENDBRANCH   9  13
BRANCH   1  22
ATOM     20  O   UNL     1       9.493  10.426  19.873  0.00  0.00    +0.000 OA
ATOM     21  C   UNL     1       8.991  10.173  18.786  0.00  0.00    +0.000 C 
ATOM     22  N   UNL     1       8.688  11.066  17.776  0.00  0.00    +0.000 N 
ATOM     23  H   UNL     1       8.240  10.695  16.950  0.00  0.00    +0.000 HD
BRANCH  21  24
ATOM     24  C   UNL     1       8.615   8.778  18.420  0.00  0.00    +0.000 C 
ATOM     25  C   UNL     1       7.475   8.532  17.753  0.00  0.00    +0.000 C 
BRANCH  25  26
ATOM     26  C   UNL     1       7.033   7.188  17.350  0.00  0.00    +0.000 A 
ATOM     27  C   UNL     1       7.694   6.026  17.770  0.00  0.00    +0.000 A 
ATOM     28  C   UNL     1       7.259   4.763  17.357  0.00  0.00    +0.000 A 
ATOM     29  C   UNL     1       6.142   4.656  16.533  0.00  0.00    +0.000 A 
ATOM     30 CL   UNL     1       5.617   3.106  16.007  0.00  0.00    +0.000 Cl
ATOM     31  C   UNL     1       5.448   5.797  16.134  0.00  0.00    +0.000 A 
ATOM     32  C   UNL     1       5.890   7.060  16.547  0.00  0.00    +0.000 A 
ENDBRANCH  25  26
ENDBRANCH  21  24
ENDBRANCH   1  22
TORSDOF 4
ENDMDL
