MODEL 1
REMARK VINA RESULT:      -9.1      0.000      0.000
REMARK  Name = 
REMARK  8 active torsions:
REMARK  status: ('A' for Active; 'I' for Inactive)
REMARK    1  A    between atoms: C_1  and  O_2
REMARK    2  A    between atoms: O_2  and  C_3
REMARK    3  A    between atoms: C_5  and  C_6
REMARK    4  A    between atoms: C_6  and  N_7
REMARK    5  A    between atoms: C_14  and  C_15
REMARK    6  A    between atoms: C_15  and  N_16
REMARK    7  A    between atoms: C_19  and  O_20
REMARK    8  A    between atoms: C_19  and  C_21
REMARK                            x       y       z     vdW  Elec       q    Type
REMARK                         _______ _______ _______ _____ _____    ______ ____
ROOT
ATOM      1  N   UNL     1       4.357   2.783  18.179  0.00  0.00    +0.000 NA
ATOM      2  C   UNL     1       3.633   1.506  18.237  0.00  0.00    +0.000 C 
ATOM      3  C   UNL     1       2.204   1.442  18.831  0.00  0.00    +0.000 C 
ATOM      4  O   UNL     1       1.982   2.063  20.106  0.00  0.00    +0.000 OA
ATOM      5  C   UNL     1       2.000   3.431  20.069  0.00  0.00    +0.000 A 
ATOM      6  C   UNL     1       0.822   4.147  20.279  0.00  0.00    +0.000 A 
ATOM      7  C   UNL     1       0.849   5.552  20.299  0.00  0.00    +0.000 A 
ATOM      8  C   UNL     1       2.061   6.247  20.170  0.00  0.00    +0.000 A 
ATOM      9  C   UNL     1       3.238   5.507  20.025  0.00  0.00    +0.000 A 
ATOM     10  C   UNL     1       3.208   4.109  19.926  0.00  0.00    +0.000 A 
ATOM     11  C   UNL     1       4.453   3.375  19.523  0.00  0.00    +0.000 C 
ENDROOT
BRANCH   1  12
ATOM     12  C   UNL     1       3.851   3.721  17.157  0.00  0.00    +0.000 C 
BRANCH  12  15
ATOM     13  C   UNL     1       6.905   5.625  15.791  0.00  0.00    +0.000 A 
ATOM     14  C   UNL     1       5.867   5.215  16.636  0.00  0.00    +0.000 A 
ATOM     15  C   UNL     1       4.933   4.240  16.226  0.00  0.00    +0.000 A 
ATOM     16  C   UNL     1       5.076   3.666  14.955  0.00  0.00    +0.000 A 
ATOM     17  C   UNL     1       6.089   4.086  14.099  0.00  0.00    +0.000 A 
ATOM     18  C   UNL     1       6.992   5.061  14.513  0.00  0.00    +0.000 A 
ATOM     19  F   UNL     1       7.934   5.434  13.636  0.00  0.00    +0.000 F 
BRANCH  13  21
ATOM     20  C   UNL     1       7.263   7.278  17.460  0.00  0.00    +0.000 C 
ATOM     21  O   UNL     1       7.747   6.571  16.318  0.00  0.00    +0.000 OA
ENDBRANCH  13  21
ENDBRANCH  12  15
ENDBRANCH   1  12
BRANCH   8  22
ATOM     22  C   UNL     1       2.139   7.758  20.084  0.00  0.00    +0.000 C 
BRANCH  22  23
ATOM     23  N   UNL     1       0.944   8.491  20.566  0.00  0.00    +0.000 NA
ATOM     24  C   UNL     1       0.671   9.625  19.671  0.00  0.00    +0.000 C 
ATOM     25  C   UNL     1      -0.382  10.596  20.202  0.00  0.00    +0.000 C 
ATOM     26  C   UNL     1      -0.054  11.094  21.620  0.00  0.00    +0.000 C 
ATOM     27  C   UNL     1       0.151   9.877  22.529  0.00  0.00    +0.000 C 
ATOM     28  C   UNL     1       1.208   8.931  21.953  0.00  0.00    +0.000 C 
BRANCH  26  29
ATOM     29  C   UNL     1      -1.150  12.024  22.125  0.00  0.00    +0.000 A 
ATOM     30  C   UNL     1      -2.084  11.642  23.106  0.00  0.00    +0.000 A 
ATOM     31  C   UNL     1      -2.993  12.571  23.610  0.00  0.00    +0.000 A 
ATOM     32  C   UNL     1      -2.966  13.858  23.107  0.00  0.00    +0.000 A 
ATOM     33  N   UNL     1      -2.121  14.259  22.136  0.00  0.00    +0.000 NA
ATOM     34  C   UNL     1      -1.248  13.337  21.669  0.00  0.00    +0.000 A 
ENDBRANCH  26  29
BRANCH  26  35
ATOM     35  O   UNL     1       1.195  11.803  21.566  0.00  0.00    +0.000 OA
ATOM     36  H   UNL     1       1.173  12.484  22.260  0.00  0.00    +0.000 HD
ENDBRANCH  26  35
ENDBRANCH  22  23
ENDBRANCH   8  22
TORSDOF 7
ENDMDL
MODEL 2
REMARK VINA RESULT:      -8.5      0.942      1.669
REMARK  Name = 
REMARK  8 active torsions:
REMARK  status: ('A' for Active; 'I' for Inactive)
REMARK    1  A    between atoms: C_1  and  O_2
REMARK    2  A    between atoms: O_2  and  C_3
REMARK    3  A    between atoms: C_5  and  C_6
REMARK    4  A    between atoms: C_6  and  N_7
REMARK    5  A    between atoms: C_14  and  C_15
REMARK    6  A    between atoms: C_15  and  N_16
REMARK    7  A    between atoms: C_19  and  O_20
REMARK    8  A    between atoms: C_19  and  C_21
REMARK                            x       y       z     vdW  Elec       q    Type
REMARK                         _______ _______ _______ _____ _____    ______ ____
ROOT
ATOM      1  N   UNL     1       4.440   2.746  18.270  0.00  0.00    +0.000 NA
ATOM      2  C   UNL     1       3.711   1.471  18.307  0.00  0.00    +0.000 C 
ATOM      3  C   UNL     1       2.259   1.415  18.844  0.00  0.00    +0.000 C 
ATOM      4  O   UNL     1       1.987   2.045  20.104  0.00  0.00    +0.000 OA
ATOM      5  C   UNL     1       2.010   3.412  20.059  0.00  0.00    +0.000 A 
ATOM      6  C   UNL     1       0.827   4.133  20.217  0.00  0.00    +0.000 A 
ATOM      7  C   UNL     1       0.857   5.538  20.229  0.00  0.00    +0.000 A 
ATOM      8  C   UNL     1       2.075   6.229  20.145  0.00  0.00    +0.000 A 
ATOM      9  C   UNL     1       3.255   5.485  20.052  0.00  0.00    +0.000 A 
ATOM     10  C   UNL     1       3.226   4.086  19.961  0.00  0.00    +0.000 A 
ATOM     11  C   UNL     1       4.483   3.347  19.613  0.00  0.00    +0.000 C 
ENDROOT
BRANCH   1  12
ATOM     12  C   UNL     1       3.979   3.679  17.222  0.00  0.00    +0.000 C 
BRANCH  12  15
ATOM     13  C   UNL     1       6.125   4.095  14.053  0.00  0.00    +0.000 A 
ATOM     14  C   UNL     1       5.147   3.630  14.943  0.00  0.00    +0.000 A 
ATOM     15  C   UNL     1       5.080   4.107  16.268  0.00  0.00    +0.000 A 
ATOM     16  C   UNL     1       6.003   5.079  16.680  0.00  0.00    +0.000 A 
ATOM     17  C   UNL     1       6.993   5.528  15.811  0.00  0.00    +0.000 A 
ATOM     18  C   UNL     1       7.054   5.034  14.511  0.00  0.00    +0.000 A 
ATOM     19  F   UNL     1       8.041   5.494  13.730  0.00  0.00    +0.000 F 
BRANCH  13  21
ATOM     20  C   UNL     1       4.764   3.331  12.261  0.00  0.00    +0.000 C 
ATOM     21  O   UNL     1       6.069   3.556  12.793  0.00  0.00    +0.000 OA
ENDBRANCH  13  21
ENDBRANCH  12  15
ENDBRANCH   1  12
BRANCH   8  22
ATOM     22  C   UNL     1       2.162   7.739  20.052  0.00  0.00    +0.000 C 
BRANCH  22  23
ATOM     23  N   UNL     1       0.947   8.478  20.472  0.00  0.00    +0.000 NA
ATOM     24  C   UNL     1       0.742   9.631  19.584  0.00  0.00    +0.000 C 
ATOM     25  C   UNL     1      -0.331  10.605  20.066  0.00  0.00    +0.000 C 
ATOM     26  C   UNL     1      -0.086  11.073  21.511  0.00  0.00    +0.000 C 
ATOM     27  C   UNL     1       0.048   9.839  22.408  0.00  0.00    +0.000 C 
ATOM     28  C   UNL     1       1.129   8.890  21.881  0.00  0.00    +0.000 C 
BRANCH  26  29
ATOM     29  C   UNL     1      -1.201  12.008  21.964  0.00  0.00    +0.000 A 
ATOM     30  C   UNL     1      -2.013  11.742  23.082  0.00  0.00    +0.000 A 
ATOM     31  C   UNL     1      -2.943  12.687  23.515  0.00  0.00    +0.000 A 
ATOM     32  C   UNL     1      -3.057  13.869  22.810  0.00  0.00    +0.000 A 
ATOM     33  N   UNL     1      -2.335  14.150  21.707  0.00  0.00    +0.000 NA
ATOM     34  C   UNL     1      -1.438  13.216  21.313  0.00  0.00    +0.000 A 
ENDBRANCH  26  29
BRANCH  26  35
ATOM     35  O   UNL     1       1.172  11.769  21.547  0.00  0.00    +0.000 OA
ATOM     36  H   UNL     1       1.106  12.522  20.936  0.00  0.00    +0.000 HD
ENDBRANCH  26  35
ENDBRANCH  22  23
ENDBRANCH   8  22
TORSDOF 7
ENDMDL
MODEL 3
REMARK VINA RESULT:      -8.0      1.066      1.764
REMARK  Name = 
REMARK  8 active torsions:
REMARK  status: ('A' for Active; 'I' for Inactive)
REMARK    1  A    between atoms: C_1  and  O_2
REMARK    2  A    between atoms: O_2  and  C_3
REMARK    3  A    between atoms: C_5  and  C_6
REMARK    4  A    between atoms: C_6  and  N_7
REMARK    5  A    between atoms: C_14  and  C_15
REMARK    6  A    between atoms: C_15  and  N_16
REMARK    7  A    between atoms: C_19  and  O_20
REMARK    8  A    between atoms: C_19  and  C_21
REMARK                            x       y       z     vdW  Elec       q    Type
REMARK                         _______ _______ _______ _____ _____    ______ ____
ROOT
ATOM      1  N   UNL     1       4.267   2.702  18.334  0.00  0.00    +0.000 NA
ATOM      2  C   UNL     1       3.469   1.486  18.124  0.00  0.00    +0.000 C 
ATOM      3  C   UNL     1       1.976   1.449  18.535  0.00  0.00    +0.000 C 
ATOM      4  O   UNL     1       1.634   1.906  19.852  0.00  0.00    +0.000 OA
ATOM      5  C   UNL     1       1.735   3.260  20.015  0.00  0.00    +0.000 A 
ATOM      6  C   UNL     1       0.583   4.027  20.190  0.00  0.00    +0.000 A 
ATOM      7  C   UNL     1       0.689   5.410  20.415  0.00  0.00    +0.000 A 
ATOM      8  C   UNL     1       1.945   6.024  20.528  0.00  0.00    +0.000 A 
ATOM      9  C   UNL     1       3.086   5.225  20.413  0.00  0.00    +0.000 A 
ATOM     10  C   UNL     1       2.989   3.859  20.111  0.00  0.00    +0.000 A 
ATOM     11  C   UNL     1       4.229   3.097  19.752  0.00  0.00    +0.000 C 
ENDROOT
BRANCH   1  12
ATOM     12  C   UNL     1       3.947   3.806  17.407  0.00  0.00    +0.000 C 
BRANCH  12  15
ATOM     13  C   UNL     1       6.982   5.609  15.871  0.00  0.00    +0.000 A 
ATOM     14  C   UNL     1       5.971   4.665  16.091  0.00  0.00    +0.000 A 
ATOM     15  C   UNL     1       5.101   4.771  17.197  0.00  0.00    +0.000 A 
ATOM     16  C   UNL     1       5.252   5.858  18.069  0.00  0.00    +0.000 A 
ATOM     17  C   UNL     1       6.270   6.786  17.872  0.00  0.00    +0.000 A 
ATOM     18  C   UNL     1       7.129   6.658  16.785  0.00  0.00    +0.000 A 
ATOM     19  F   UNL     1       8.099   7.575  16.662  0.00  0.00    +0.000 F 
BRANCH  13  21
ATOM     20  C   UNL     1       7.112   4.705  13.677  0.00  0.00    +0.000 C 
ATOM     21  O   UNL     1       7.748   5.393  14.754  0.00  0.00    +0.000 OA
ENDBRANCH  13  21
ENDBRANCH  12  15
ENDBRANCH   1  12
BRANCH   8  22
ATOM     22  C   UNL     1       2.120   7.523  20.670  0.00  0.00    +0.000 C 
BRANCH  22  23
ATOM     23  N   UNL     1       0.879   8.293  20.924  0.00  0.00    +0.000 NA
ATOM     24  C   UNL     1       0.689   9.283  19.855  0.00  0.00    +0.000 C 
ATOM     25  C   UNL     1      -0.417  10.299  20.137  0.00  0.00    +0.000 C 
ATOM     26  C   UNL     1      -0.233  10.998  21.494  0.00  0.00    +0.000 C 
ATOM     27  C   UNL     1      -0.112   9.927  22.583  0.00  0.00    +0.000 C 
ATOM     28  C   UNL     1       1.002   8.929  22.253  0.00  0.00    +0.000 C 
BRANCH  26  29
ATOM     29  C   UNL     1      -1.379  11.969  21.752  0.00  0.00    +0.000 A 
ATOM     30  C   UNL     1      -2.121  12.566  20.717  0.00  0.00    +0.000 A 
ATOM     31  C   UNL     1      -3.230  13.358  21.014  0.00  0.00    +0.000 A 
ATOM     32  C   UNL     1      -3.562  13.554  22.340  0.00  0.00    +0.000 A 
ATOM     33  N   UNL     1      -2.855  13.041  23.367  0.00  0.00    +0.000 NA
ATOM     34  C   UNL     1      -1.788  12.274  23.048  0.00  0.00    +0.000 A 
ENDBRANCH  26  29
BRANCH  26  35
ATOM     35  O   UNL     1       1.011  11.717  21.461  0.00  0.00    +0.000 OA
ATOM     36  H   UNL     1       1.438  11.523  20.610  0.00  0.00    +0.000 HD
ENDBRANCH  26  35
ENDBRANCH  22  23
ENDBRANCH   8  22
TORSDOF 7
ENDMDL
MODEL 4
REMARK VINA RESULT:      -7.7      1.493      1.652
REMARK  Name = 
REMARK  8 active torsions:
REMARK  status: ('A' for Active; 'I' for Inactive)
REMARK    1  A    between atoms: C_1  and  O_2
REMARK    2  A    between atoms: O_2  and  C_3
REMARK    3  A    between atoms: C_5  and  C_6
REMARK    4  A    between atoms: C_6  and  N_7
REMARK    5  A    between atoms: C_14  and  C_15
REMARK    6  A    between atoms: C_15  and  N_16
REMARK    7  A    between atoms: C_19  and  O_20
REMARK    8  A    between atoms: C_19  and  C_21
REMARK                            x       y       z     vdW  Elec       q    Type
REMARK                         _______ _______ _______ _____ _____    ______ ____
ROOT
ATOM      1  N   UNL     1       4.332   2.698  18.396  0.00  0.00    +0.000 NA
ATOM      2  C   UNL     1       3.553   1.455  18.304  0.00  0.00    +0.000 C 
ATOM      3  C   UNL     1       2.068   1.428  18.745  0.00  0.00    +0.000 C 
ATOM      4  O   UNL     1       1.740   1.989  20.026  0.00  0.00    +0.000 OA
ATOM      5  C   UNL     1       1.819   3.354  20.072  0.00  0.00    +0.000 A 
ATOM      6  C   UNL     1       0.657   4.113  20.203  0.00  0.00    +0.000 A 
ATOM      7  C   UNL     1       0.741   5.512  20.308  0.00  0.00    +0.000 A 
ATOM      8  C   UNL     1       1.988   6.154  20.345  0.00  0.00    +0.000 A 
ATOM      9  C   UNL     1       3.142   5.368  20.277  0.00  0.00    +0.000 A 
ATOM     10  C   UNL     1       3.064   3.980  20.092  0.00  0.00    +0.000 A 
ATOM     11  C   UNL     1       4.311   3.210  19.775  0.00  0.00    +0.000 C 
ENDROOT
BRANCH   1  12
ATOM     12  C   UNL     1       3.975   3.714  17.385  0.00  0.00    +0.000 C 
BRANCH  12  15
ATOM     13  C   UNL     1       7.008   6.012  17.969  0.00  0.00    +0.000 A 
ATOM     14  C   UNL     1       6.151   4.905  18.027  0.00  0.00    +0.000 A 
ATOM     15  C   UNL     1       4.885   4.930  17.406  0.00  0.00    +0.000 A 
ATOM     16  C   UNL     1       4.503   6.083  16.705  0.00  0.00    +0.000 A 
ATOM     17  C   UNL     1       5.337   7.195  16.664  0.00  0.00    +0.000 A 
ATOM     18  C   UNL     1       6.576   7.159  17.296  0.00  0.00    +0.000 A 
ATOM     19  F   UNL     1       7.325   8.269  17.234  0.00  0.00    +0.000 F 
BRANCH  13  21
ATOM     20  C   UNL     1       8.152   5.557  20.002  0.00  0.00    +0.000 C 
ATOM     21  O   UNL     1       8.212   5.850  18.606  0.00  0.00    +0.000 OA
ENDBRANCH  13  21
ENDBRANCH  12  15
ENDBRANCH   1  12
BRANCH   8  22
ATOM     22  C   UNL     1       2.139   7.662  20.357  0.00  0.00    +0.000 C 
BRANCH  22  23
ATOM     23  N   UNL     1       0.916   8.426  20.704  0.00  0.00    +0.000 NA
ATOM     24  C   UNL     1       0.716   9.502  19.723  0.00  0.00    +0.000 C 
ATOM     25  C   UNL     1      -0.367  10.507  20.115  0.00  0.00    +0.000 C 
ATOM     26  C   UNL     1      -0.139  11.091  21.519  0.00  0.00    +0.000 C 
ATOM     27  C   UNL     1      -0.009   9.934  22.514  0.00  0.00    +0.000 C 
ATOM     28  C   UNL     1       1.082   8.951  22.077  0.00  0.00    +0.000 C 
BRANCH  26  29
ATOM     29  C   UNL     1      -1.263  12.054  21.884  0.00  0.00    +0.000 A 
ATOM     30  C   UNL     1      -1.322  12.725  23.119  0.00  0.00    +0.000 A 
ATOM     31  C   UNL     1      -2.312  13.678  23.353  0.00  0.00    +0.000 A 
ATOM     32  C   UNL     1      -3.237  13.925  22.357  0.00  0.00    +0.000 A 
ATOM     33  N   UNL     1      -3.249  13.275  21.176  0.00  0.00    +0.000 NA
ATOM     34  C   UNL     1      -2.273  12.359  20.976  0.00  0.00    +0.000 A 
ENDBRANCH  26  29
BRANCH  26  35
ATOM     35  O   UNL     1       1.116  11.794  21.512  0.00  0.00    +0.000 OA
ATOM     36  H   UNL     1       1.484  11.723  20.616  0.00  0.00    +0.000 HD
ENDBRANCH  26  35
ENDBRANCH  22  23
ENDBRANCH   8  22
TORSDOF 7
ENDMDL
MODEL 5
REMARK VINA RESULT:      -7.7      4.120     11.100
REMARK  Name = 
REMARK  8 active torsions:
REMARK  status: ('A' for Active; 'I' for Inactive)
REMARK    1  A    between atoms: C_1  and  O_2
REMARK    2  A    between atoms: O_2  and  C_3
REMARK    3  A    between atoms: C_5  and  C_6
REMARK    4  A    between atoms: C_6  and  N_7
REMARK    5  A    between atoms: C_14  and  C_15
REMARK    6  A    between atoms: C_15  and  N_16
REMARK    7  A    between atoms: C_19  and  O_20
REMARK    8  A    between atoms: C_19  and  C_21
REMARK                            x       y       z     vdW  Elec       q    Type
REMARK                         _______ _______ _______ _____ _____    ______ ____
ROOT
ATOM      1  N   UNL     1      -3.240  13.498  22.047  0.00  0.00    +0.000 NA
ATOM      2  C   UNL     1      -2.786  14.736  22.695  0.00  0.00    +0.000 C 
ATOM      3  C   UNL     1      -1.292  15.143  22.645  0.00  0.00    +0.000 C 
ATOM      4  O   UNL     1      -0.317  14.151  22.997  0.00  0.00    +0.000 OA
ATOM      5  C   UNL     1      -0.168  13.161  22.064  0.00  0.00    +0.000 A 
ATOM      6  C   UNL     1       1.010  13.075  21.323  0.00  0.00    +0.000 A 
ATOM      7  C   UNL     1       1.188  12.026  20.406  0.00  0.00    +0.000 A 
ATOM      8  C   UNL     1       0.216  11.024  20.268  0.00  0.00    +0.000 A 
ATOM      9  C   UNL     1      -0.929  11.095  21.066  0.00  0.00    +0.000 A 
ATOM     10  C   UNL     1      -1.148  12.181  21.926  0.00  0.00    +0.000 A 
ATOM     11  C   UNL     1      -2.491  12.345  22.573  0.00  0.00    +0.000 C 
ENDROOT
BRANCH   1  12
ATOM     12  C   UNL     1      -3.269  13.559  20.572  0.00  0.00    +0.000 C 
BRANCH  12  15
ATOM     13  C   UNL     1      -5.068  11.070  18.252  0.00  0.00    +0.000 A 
ATOM     14  C   UNL     1      -4.102  11.943  18.767  0.00  0.00    +0.000 A 
ATOM     15  C   UNL     1      -4.333  12.671  19.952  0.00  0.00    +0.000 A 
ATOM     16  C   UNL     1      -5.549  12.488  20.627  0.00  0.00    +0.000 A 
ATOM     17  C   UNL     1      -6.524  11.641  20.109  0.00  0.00    +0.000 A 
ATOM     18  C   UNL     1      -6.286  10.944  18.928  0.00  0.00    +0.000 A 
ATOM     19  F   UNL     1      -7.272  10.158  18.474  0.00  0.00    +0.000 F 
BRANCH  13  21
ATOM     20  C   UNL     1      -3.931  11.169  16.167  0.00  0.00    +0.000 C 
ATOM     21  O   UNL     1      -4.710  10.418  17.099  0.00  0.00    +0.000 OA
ENDBRANCH  13  21
ENDBRANCH  12  15
ENDBRANCH   1  12
BRANCH   8  22
ATOM     22  C   UNL     1       0.307   9.926  19.226  0.00  0.00    +0.000 C 
BRANCH  22  23
ATOM     23  N   UNL     1       1.604   9.211  19.159  0.00  0.00    +0.000 NA
ATOM     24  C   UNL     1       1.947   8.947  17.754  0.00  0.00    +0.000 C 
ATOM     25  C   UNL     1       3.132   8.001  17.570  0.00  0.00    +0.000 C 
ATOM     26  C   UNL     1       2.950   6.682  18.339  0.00  0.00    +0.000 C 
ATOM     27  C   UNL     1       2.667   7.008  19.809  0.00  0.00    +0.000 C 
ATOM     28  C   UNL     1       1.477   7.963  19.942  0.00  0.00    +0.000 C 
BRANCH  26  29
ATOM     29  C   UNL     1       4.172   5.789  18.161  0.00  0.00    +0.000 A 
ATOM     30  C   UNL     1       4.613   5.340  16.903  0.00  0.00    +0.000 A 
ATOM     31  C   UNL     1       5.801   4.619  16.791  0.00  0.00    +0.000 A 
ATOM     32  C   UNL     1       6.513   4.342  17.942  0.00  0.00    +0.000 A 
ATOM     33  N   UNL     1       6.109   4.711  19.174  0.00  0.00    +0.000 NA
ATOM     34  C   UNL     1       4.955   5.413  19.250  0.00  0.00    +0.000 A 
ENDBRANCH  26  29
BRANCH  26  35
ATOM     35  O   UNL     1       1.786   6.018  17.816  0.00  0.00    +0.000 OA
ATOM     36  H   UNL     1       2.095   5.322  17.212  0.00  0.00    +0.000 HD
ENDBRANCH  26  35
ENDBRANCH  22  23
ENDBRANCH   8  22
TORSDOF 7
ENDMDL
MODEL 6
REMARK VINA RESULT:      -7.5      5.118      8.595
REMARK  Name = 
REMARK  8 active torsions:
REMARK  status: ('A' for Active; 'I' for Inactive)
REMARK    1  A    between atoms: C_1  and  O_2
REMARK    2  A    between atoms: O_2  and  C_3
REMARK    3  A    between atoms: C_5  and  C_6
REMARK    4  A    between atoms: C_6  and  N_7
REMARK    5  A    between atoms: C_14  and  C_15
REMARK    6  A    between atoms: C_15  and  N_16
REMARK    7  A    between atoms: C_19  and  O_20
REMARK    8  A    between atoms: C_19  and  C_21
REMARK                            x       y       z     vdW  Elec       q    Type
REMARK                         _______ _______ _______ _____ _____    ______ ____
ROOT
ATOM      1  N   UNL     1       3.003   6.299  18.029  0.00  0.00    +0.000 NA
ATOM      2  C   UNL     1       2.747   5.160  18.921  0.00  0.00    +0.000 C 
ATOM      3  C   UNL     1       3.905   4.526  19.732  0.00  0.00    +0.000 C 
ATOM      4  O   UNL     1       5.111   4.194  19.028  0.00  0.00    +0.000 OA
ATOM      5  C   UNL     1       5.853   5.281  18.654  0.00  0.00    +0.000 A 
ATOM      6  C   UNL     1       7.083   5.526  19.262  0.00  0.00    +0.000 A 
ATOM      7  C   UNL     1       7.873   6.608  18.839  0.00  0.00    +0.000 A 
ATOM      8  C   UNL     1       7.467   7.414  17.765  0.00  0.00    +0.000 A 
ATOM      9  C   UNL     1       6.260   7.111  17.127  0.00  0.00    +0.000 A 
ATOM     10  C   UNL     1       5.431   6.082  17.595  0.00  0.00    +0.000 A 
ATOM     11  C   UNL     1       4.041   5.952  17.046  0.00  0.00    +0.000 C 
ENDROOT
BRANCH   1  12
ATOM     12  C   UNL     1       3.258   7.573  18.730  0.00  0.00    +0.000 C 
BRANCH  12  15
ATOM     13  C   UNL     1       0.260   9.155  20.554  0.00  0.00    +0.000 A 
ATOM     14  C   UNL     1       1.379   8.357  20.285  0.00  0.00    +0.000 A 
ATOM     15  C   UNL     1       1.996   8.367  19.017  0.00  0.00    +0.000 A 
ATOM     16  C   UNL     1       1.480   9.215  18.026  0.00  0.00    +0.000 A 
ATOM     17  C   UNL     1       0.354   9.993  18.277  0.00  0.00    +0.000 A 
ATOM     18  C   UNL     1      -0.252   9.957  19.529  0.00  0.00    +0.000 A 
ATOM     19  F   UNL     1      -1.343  10.716  19.700  0.00  0.00    +0.000 F 
BRANCH  13  21
ATOM     20  C   UNL     1      -0.261  10.264  22.590  0.00  0.00    +0.000 C 
ATOM     21  O   UNL     1      -0.234   9.056  21.830  0.00  0.00    +0.000 OA
ENDBRANCH  13  21
ENDBRANCH  12  15
ENDBRANCH   1  12
BRANCH   8  22
ATOM     22  C   UNL     1       8.226   8.651  17.330  0.00  0.00    +0.000 C 
BRANCH  22  23
ATOM     23  N   UNL     1       8.209   9.784  18.286  0.00  0.00    +0.000 NA
ATOM     24  C   UNL     1       8.487  11.036  17.569  0.00  0.00    +0.000 C 
ATOM     25  C   UNL     1       8.741  12.233  18.484  0.00  0.00    +0.000 C 
ATOM     26  C   UNL     1       9.840  11.950  19.522  0.00  0.00    +0.000 C 
ATOM     27  C   UNL     1       9.469  10.678  20.291  0.00  0.00    +0.000 C 
ATOM     28  C   UNL     1       9.217   9.510  19.333  0.00  0.00    +0.000 C 
BRANCH  26  29
ATOM     29  C   UNL     1      10.030  13.154  20.438  0.00  0.00    +0.000 A 
ATOM     30  C   UNL     1      10.839  14.252  20.096  0.00  0.00    +0.000 A 
ATOM     31  C   UNL     1      10.886  15.374  20.923  0.00  0.00    +0.000 A 
ATOM     32  C   UNL     1      10.140  15.366  22.086  0.00  0.00    +0.000 A 
ATOM     33  N   UNL     1       9.386  14.320  22.478  0.00  0.00    +0.000 NA
ATOM     34  C   UNL     1       9.357  13.248  21.654  0.00  0.00    +0.000 A 
ENDBRANCH  26  29
BRANCH  26  35
ATOM     35  O   UNL     1      11.064  11.683  18.816  0.00  0.00    +0.000 OA
ATOM     36  H   UNL     1      11.686  11.289  19.450  0.00  0.00    +0.000 HD
ENDBRANCH  26  35
ENDBRANCH  22  23
ENDBRANCH   8  22
TORSDOF 7
ENDMDL
MODEL 7
REMARK VINA RESULT:      -7.3      4.307     10.699
REMARK  Name = 
REMARK  8 active torsions:
REMARK  status: ('A' for Active; 'I' for Inactive)
REMARK    1  A    between atoms: C_1  and  O_2
REMARK    2  A    between atoms: O_2  and  C_3
REMARK    3  A    between atoms: C_5  and  C_6
REMARK    4  A    between atoms: C_6  and  N_7
REMARK    5  A    between atoms: C_14  and  C_15
REMARK    6  A    between atoms: C_15  and  N_16
REMARK    7  A    between atoms: C_19  and  O_20
REMARK    8  A    between atoms: C_19  and  C_21
REMARK                            x       y       z     vdW  Elec       q    Type
REMARK                         _______ _______ _______ _____ _____    ______ ____
ROOT
ATOM      1  N   UNL     1      -6.311  13.006  20.471  0.00  0.00    +0.000 NA
ATOM      2  C   UNL     1      -7.357  13.986  20.794  0.00  0.00    +0.000 C 
ATOM      3  C   UNL     1      -7.145  15.009  21.938  0.00  0.00    +0.000 C 
ATOM      4  O   UNL     1      -6.687  14.511  23.204  0.00  0.00    +0.000 OA
ATOM      5  C   UNL     1      -5.379  14.110  23.203  0.00  0.00    +0.000 A 
ATOM      6  C   UNL     1      -4.428  14.838  23.916  0.00  0.00    +0.000 A 
ATOM      7  C   UNL     1      -3.096  14.396  23.963  0.00  0.00    +0.000 A 
ATOM      8  C   UNL     1      -2.719  13.190  23.352  0.00  0.00    +0.000 A 
ATOM      9  C   UNL     1      -3.702  12.443  22.697  0.00  0.00    +0.000 A 
ATOM     10  C   UNL     1      -5.016  12.918  22.579  0.00  0.00    +0.000 A 
ATOM     11  C   UNL     1      -5.972  12.213  21.663  0.00  0.00    +0.000 C 
ENDROOT
BRANCH   1  12
ATOM     12  C   UNL     1      -5.133  13.579  19.790  0.00  0.00    +0.000 C 
BRANCH  12  15
ATOM     13  C   UNL     1      -3.953  11.089  17.101  0.00  0.00    +0.000 A 
ATOM     14  C   UNL     1      -4.757  11.981  17.822  0.00  0.00    +0.000 A 
ATOM     15  C   UNL     1      -4.312  12.547  19.035  0.00  0.00    +0.000 A 
ATOM     16  C   UNL     1      -3.032  12.217  19.501  0.00  0.00    +0.000 A 
ATOM     17  C   UNL     1      -2.237  11.313  18.804  0.00  0.00    +0.000 A 
ATOM     18  C   UNL     1      -2.698  10.751  17.617  0.00  0.00    +0.000 A 
ATOM     19  F   UNL     1      -1.891   9.874  17.003  0.00  0.00    +0.000 F 
BRANCH  13  21
ATOM     20  C   UNL     1      -3.594  10.399  14.855  0.00  0.00    +0.000 C 
ATOM     21  O   UNL     1      -4.503  10.622  15.934  0.00  0.00    +0.000 OA
ENDBRANCH  13  21
ENDBRANCH  12  15
ENDBRANCH   1  12
BRANCH   8  22
ATOM     22  C   UNL     1      -1.282  12.713  23.285  0.00  0.00    +0.000 C 
BRANCH  22  23
ATOM     23  N   UNL     1      -1.009  11.633  22.307  0.00  0.00    +0.000 NA
ATOM     24  C   UNL     1      -0.916  10.346  23.012  0.00  0.00    +0.000 C 
ATOM     25  C   UNL     1      -0.393   9.200  22.147  0.00  0.00    +0.000 C 
ATOM     26  C   UNL     1       0.944   9.544  21.470  0.00  0.00    +0.000 C 
ATOM     27  C   UNL     1       0.775  10.852  20.691  0.00  0.00    +0.000 C 
ATOM     28  C   UNL     1       0.244  11.968  21.596  0.00  0.00    +0.000 C 
BRANCH  26  29
ATOM     29  C   UNL     1       1.405   8.391  20.585  0.00  0.00    +0.000 A 
ATOM     30  C   UNL     1       1.885   8.579  19.276  0.00  0.00    +0.000 A 
ATOM     31  C   UNL     1       2.397   7.501  18.555  0.00  0.00    +0.000 A 
ATOM     32  C   UNL     1       2.400   6.254  19.149  0.00  0.00    +0.000 A 
ATOM     33  N   UNL     1       1.910   6.017  20.383  0.00  0.00    +0.000 NA
ATOM     34  C   UNL     1       1.423   7.082  21.059  0.00  0.00    +0.000 A 
ENDBRANCH  26  29
BRANCH  26  35
ATOM     35  O   UNL     1       1.918   9.782  22.500  0.00  0.00    +0.000 OA
ATOM     36  H   UNL     1       2.413   8.955  22.630  0.00  0.00    +0.000 HD
ENDBRANCH  26  35
ENDBRANCH  22  23
ENDBRANCH   8  22
TORSDOF 7
ENDMDL
MODEL 8
REMARK VINA RESULT:      -7.3      1.725      2.326
REMARK  Name = 
REMARK  8 active torsions:
REMARK  status: ('A' for Active; 'I' for Inactive)
REMARK    1  A    between atoms: C_1  and  O_2
REMARK    2  A    between atoms: O_2  and  C_3
REMARK    3  A    between atoms: C_5  and  C_6
REMARK    4  A    between atoms: C_6  and  N_7
REMARK    5  A    between atoms: C_14  and  C_15
REMARK    6  A    between atoms: C_15  and  N_16
REMARK    7  A    between atoms: C_19  and  O_20
REMARK    8  A    between atoms: C_19  and  C_21
REMARK                            x       y       z     vdW  Elec       q    Type
REMARK                         _______ _______ _______ _____ _____    ______ ____
ROOT
ATOM      1  N   UNL     1       4.930   3.285  18.930  0.00  0.00    +0.000 NA
ATOM      2  C   UNL     1       4.382   2.184  19.735  0.00  0.00    +0.000 C 
ATOM      3  C   UNL     1       3.019   2.343  20.452  0.00  0.00    +0.000 C 
ATOM      4  O   UNL     1       2.810   3.527  21.236  0.00  0.00    +0.000 OA
ATOM      5  C   UNL     1       2.649   4.664  20.493  0.00  0.00    +0.000 A 
ATOM      6  C   UNL     1       1.407   5.297  20.449  0.00  0.00    +0.000 A 
ATOM      7  C   UNL     1       1.254   6.495  19.733  0.00  0.00    +0.000 A 
ATOM      8  C   UNL     1       2.354   7.102  19.109  0.00  0.00    +0.000 A 
ATOM      9  C   UNL     1       3.603   6.485  19.220  0.00  0.00    +0.000 A 
ATOM     10  C   UNL     1       3.747   5.248  19.865  0.00  0.00    +0.000 A 
ATOM     11  C   UNL     1       5.044   4.504  19.746  0.00  0.00    +0.000 C 
ENDROOT
BRANCH   1  12
ATOM     12  C   UNL     1       4.237   3.500  17.644  0.00  0.00    +0.000 C 
BRANCH  12  15
ATOM     13  C   UNL     1       6.939   5.548  15.820  0.00  0.00    +0.000 A 
ATOM     14  C   UNL     1       6.060   5.098  16.813  0.00  0.00    +0.000 A 
ATOM     15  C   UNL     1       5.140   4.059  16.558  0.00  0.00    +0.000 A 
ATOM     16  C   UNL     1       5.135   3.463  15.289  0.00  0.00    +0.000 A 
ATOM     17  C   UNL     1       5.987   3.921  14.289  0.00  0.00    +0.000 A 
ATOM     18  C   UNL     1       6.877   4.958  14.553  0.00  0.00    +0.000 A 
ATOM     19  F   UNL     1       7.658   5.364  13.543  0.00  0.00    +0.000 F 
BRANCH  13  21
ATOM     20  C   UNL     1       7.387   7.313  17.347  0.00  0.00    +0.000 C 
ATOM     21  O   UNL     1       7.787   6.556  16.204  0.00  0.00    +0.000 OA
ENDBRANCH  13  21
ENDBRANCH  12  15
ENDBRANCH   1  12
BRANCH   8  22
ATOM     22  C   UNL     1       2.232   8.339  18.242  0.00  0.00    +0.000 C 
BRANCH  22  23
ATOM     23  N   UNL     1       1.873   9.589  18.954  0.00  0.00    +0.000 NA
ATOM     24  C   UNL     1       0.468   9.525  19.380  0.00  0.00    +0.000 C 
ATOM     25  C   UNL     1      -0.085  10.850  19.902  0.00  0.00    +0.000 C 
ATOM     26  C   UNL     1       0.126  12.003  18.906  0.00  0.00    +0.000 C 
ATOM     27  C   UNL     1       1.615  12.074  18.550  0.00  0.00    +0.000 C 
ATOM     28  C   UNL     1       2.124  10.723  18.039  0.00  0.00    +0.000 C 
BRANCH  26  29
ATOM     29  C   UNL     1      -0.400  13.311  19.485  0.00  0.00    +0.000 A 
ATOM     30  C   UNL     1      -0.031  14.571  18.982  0.00  0.00    +0.000 A 
ATOM     31  C   UNL     1      -0.631  15.729  19.478  0.00  0.00    +0.000 A 
ATOM     32  C   UNL     1      -1.572  15.603  20.482  0.00  0.00    +0.000 A 
ATOM     33  N   UNL     1      -1.925  14.422  21.027  0.00  0.00    +0.000 NA
ATOM     34  C   UNL     1      -1.329  13.317  20.522  0.00  0.00    +0.000 A 
ENDBRANCH  26  29
BRANCH  26  35
ATOM     35  O   UNL     1      -0.588  11.687  17.699  0.00  0.00    +0.000 OA
ATOM     36  H   UNL     1      -0.136  10.934  17.282  0.00  0.00    +0.000 HD
ENDBRANCH  26  35
ENDBRANCH  22  23
ENDBRANCH   8  22
TORSDOF 7
ENDMDL
MODEL 9
REMARK VINA RESULT:      -7.2      2.532      3.457
REMARK  Name = 
REMARK  8 active torsions:
REMARK  status: ('A' for Active; 'I' for Inactive)
REMARK    1  A    between atoms: C_1  and  O_2
REMARK    2  A    between atoms: O_2  and  C_3
REMARK    3  A    between atoms: C_5  and  C_6
REMARK    4  A    between atoms: C_6  and  N_7
REMARK    5  A    between atoms: C_14  and  C_15
REMARK    6  A    between atoms: C_15  and  N_16
REMARK    7  A    between atoms: C_19  and  O_20
REMARK    8  A    between atoms: C_19  and  C_21
REMARK                            x       y       z     vdW  Elec       q    Type
REMARK                         _______ _______ _______ _____ _____    ______ ____
ROOT
ATOM      1  N   UNL     1       6.375   5.547  16.880  0.00  0.00    +0.000 NA
ATOM      2  C   UNL     1       6.513   4.219  17.493  0.00  0.00    +0.000 C 
ATOM      3  C   UNL     1       5.365   3.629  18.349  0.00  0.00    +0.000 C 
ATOM      4  O   UNL     1       4.796   4.462  19.370  0.00  0.00    +0.000 OA
ATOM      5  C   UNL     1       4.027   5.486  18.889  0.00  0.00    +0.000 A 
ATOM      6  C   UNL     1       2.647   5.472  19.086  0.00  0.00    +0.000 A 
ATOM      7  C   UNL     1       1.863   6.550  18.642  0.00  0.00    +0.000 A 
ATOM      8  C   UNL     1       2.460   7.676  18.056  0.00  0.00    +0.000 A 
ATOM      9  C   UNL     1       3.852   7.697  17.926  0.00  0.00    +0.000 A 
ATOM     10  C   UNL     1       4.632   6.592  18.294  0.00  0.00    +0.000 A 
ATOM     11  C   UNL     1       6.081   6.555  17.911  0.00  0.00    +0.000 C 
ENDROOT
BRANCH   1  12
ATOM     12  C   UNL     1       5.447   5.593  15.732  0.00  0.00    +0.000 C 
BRANCH  12  15
ATOM     13  C   UNL     1       5.760   3.495  12.519  0.00  0.00    +0.000 A 
ATOM     14  C   UNL     1       5.257   4.025  13.714  0.00  0.00    +0.000 A 
ATOM     15  C   UNL     1       6.007   4.943  14.478  0.00  0.00    +0.000 A 
ATOM     16  C   UNL     1       7.267   5.338  14.007  0.00  0.00    +0.000 A 
ATOM     17  C   UNL     1       7.785   4.798  12.834  0.00  0.00    +0.000 A 
ATOM     18  C   UNL     1       7.038   3.880  12.101  0.00  0.00    +0.000 A 
ATOM     19  F   UNL     1       7.601   3.384  10.990  0.00  0.00    +0.000 F 
BRANCH  13  21
ATOM     20  C   UNL     1       3.906   3.210  11.060  0.00  0.00    +0.000 C 
ATOM     21  O   UNL     1       4.924   2.622  11.871  0.00  0.00    +0.000 OA
ENDBRANCH  13  21
ENDBRANCH  12  15
ENDBRANCH   1  12
BRANCH   8  22
ATOM     22  C   UNL     1       1.660   8.823  17.470  0.00  0.00    +0.000 C 
BRANCH  22  23
ATOM     23  N   UNL     1       0.795   9.555  18.425  0.00  0.00    +0.000 NA
ATOM     24  C   UNL     1      -0.536   9.749  17.832  0.00  0.00    +0.000 C 
ATOM     25  C   UNL     1      -1.434  10.704  18.617  0.00  0.00    +0.000 C 
ATOM     26  C   UNL     1      -0.756  12.059  18.878  0.00  0.00    +0.000 C 
ATOM     27  C   UNL     1       0.592  11.807  19.562  0.00  0.00    +0.000 C 
ATOM     28  C   UNL     1       1.453  10.841  18.742  0.00  0.00    +0.000 C 
BRANCH  26  29
ATOM     29  C   UNL     1      -1.669  12.962  19.699  0.00  0.00    +0.000 A 
ATOM     30  C   UNL     1      -2.966  12.583  20.089  0.00  0.00    +0.000 A 
ATOM     31  C   UNL     1      -3.714  13.404  20.933  0.00  0.00    +0.000 A 
ATOM     32  C   UNL     1      -3.157  14.596  21.354  0.00  0.00    +0.000 A 
ATOM     33  N   UNL     1      -1.937  15.023  20.971  0.00  0.00    +0.000 NA
ATOM     34  C   UNL     1      -1.234  14.204  20.155  0.00  0.00    +0.000 A 
ENDBRANCH  26  29
BRANCH  26  35
ATOM     35  O   UNL     1      -0.483  12.675  17.607  0.00  0.00    +0.000 OA
ATOM     36  H   UNL     1      -1.068  12.259  16.952  0.00  0.00    +0.000 HD
ENDBRANCH  26  35
ENDBRANCH  22  23
ENDBRANCH   8  22
TORSDOF 7
ENDMDL
