MODEL 1
REMARK VINA RESULT:      -7.3      0.000      0.000
REMARK  Name = 
REMARK  10 active torsions:
REMARK  status: ('A' for Active; 'I' for Inactive)
REMARK    1  A    between atoms: N_8  and  C_9
REMARK    2  A    between atoms: C_9  and  O_10
REMARK    3  A    between atoms: O_10  and  C_11
REMARK    4  A    between atoms: C_11  and  C_12
REMARK    5  A    between atoms: C_11  and  C_14
REMARK    6  A    between atoms: C_12  and  O_13
REMARK    7  A    between atoms: C_14  and  C_15
REMARK    8  A    between atoms: C_15  and  P_16
REMARK    9  A    between atoms: P_16  and  O_18
REMARK   10  A    between atoms: P_16  and  O_19
REMARK                            x       y       z     vdW  Elec       q    Type
REMARK                         _______ _______ _______ _____ _____    ______ ____
ROOT
ATOM      1  N   UNL     1       1.928   6.801  20.748  0.00  0.00    +0.000 N 
ATOM      2  C   UNL     1       2.240   5.534  20.381  0.00  0.00    +0.000 A 
ATOM      3  N   UNL     1       2.772   5.303  19.209  0.00  0.00    +0.000 NA
ATOM      4  C   UNL     1       3.010   3.986  18.983  0.00  0.00    +0.000 A 
ATOM      5  C   UNL     1       2.764   2.919  19.814  0.00  0.00    +0.000 A 
ATOM      6  N   UNL     1       3.136   1.732  19.225  0.00  0.00    +0.000 NA
ATOM      7  C   UNL     1       3.612   2.086  18.045  0.00  0.00    +0.000 A 
ATOM      8  N   UNL     1       3.572   3.441  17.861  0.00  0.00    +0.000 N 
ATOM      9  C   UNL     1       2.193   3.191  21.107  0.00  0.00    +0.000 A 
ATOM     10  O   UNL     1       1.926   2.360  21.973  0.00  0.00    +0.000 OA
ATOM     11  N   UNL     1       1.965   4.550  21.306  0.00  0.00    +0.000 N 
ATOM     12  H   UNL     1       2.357   7.510  20.161  0.00  0.00    +0.000 HD
ATOM     13  H   UNL     1       1.939   7.031  21.732  0.00  0.00    +0.000 HD
ATOM     14  H   UNL     1       1.538   4.782  22.189  0.00  0.00    +0.000 HD
ENDROOT
BRANCH   8  15
ATOM     15  C   UNL     1       4.080   4.216  16.744  0.00  0.00    +0.000 C 
BRANCH  15  16
ATOM     16  O   UNL     1       5.233   3.584  16.176  0.00  0.00    +0.000 OA
BRANCH  16  17
ATOM     17  C   UNL     1       6.318   4.501  15.932  0.00  0.00    +0.000 C 
BRANCH  17  18
ATOM     18  C   UNL     1       6.464   4.789  14.424  0.00  0.00    +0.000 C 
BRANCH  18  19
ATOM     19  O   UNL     1       7.723   5.393  14.137  0.00  0.00    +0.000 OA
ATOM     20  H   UNL     1       8.334   5.146  14.856  0.00  0.00    +0.000 HD
ENDBRANCH  18  19
ENDBRANCH  17  18
BRANCH  17  21
ATOM     21  C   UNL     1       6.027   5.806  16.702  0.00  0.00    +0.000 C 
BRANCH  21  22
ATOM     22  C   UNL     1       7.282   6.430  17.311  0.00  0.00    +0.000 C 
BRANCH  22  23
ATOM     23  P   UNL     1       7.656   5.872  19.014  0.00  0.00    +0.000 P 
ATOM     24  O   UNL     1       6.179   5.575  19.274  0.00  0.00    +0.000 OA
BRANCH  23  25
ATOM     25  O   UNL     1       8.244   4.458  18.436  0.00  0.00    +0.000 OA
ATOM     26  H   UNL     1       7.947   3.716  18.996  0.00  0.00    +0.000 HD
ENDBRANCH  23  25
BRANCH  23  27
ATOM     27  O   UNL     1       8.010   5.343  20.622  0.00  0.00    +0.000 OA
ATOM     28  H   UNL     1       7.133   5.241  21.046  0.00  0.00    +0.000 HD
ENDBRANCH  23  27
ENDBRANCH  22  23
ENDBRANCH  21  22
ENDBRANCH  17  21
ENDBRANCH  16  17
ENDBRANCH  15  16
ENDBRANCH   8  15
TORSDOF 10
ENDMDL
MODEL 2
REMARK VINA RESULT:      -7.0      0.832      1.024
REMARK  Name = 
REMARK  10 active torsions:
REMARK  status: ('A' for Active; 'I' for Inactive)
REMARK    1  A    between atoms: N_8  and  C_9
REMARK    2  A    between atoms: C_9  and  O_10
REMARK    3  A    between atoms: O_10  and  C_11
REMARK    4  A    between atoms: C_11  and  C_12
REMARK    5  A    between atoms: C_11  and  C_14
REMARK    6  A    between atoms: C_12  and  O_13
REMARK    7  A    between atoms: C_14  and  C_15
REMARK    8  A    between atoms: C_15  and  P_16
REMARK    9  A    between atoms: P_16  and  O_18
REMARK   10  A    between atoms: P_16  and  O_19
REMARK                            x       y       z     vdW  Elec       q    Type
REMARK                         _______ _______ _______ _____ _____    ______ ____
ROOT
ATOM      1  N   UNL     1       2.151   6.826  20.655  0.00  0.00    +0.000 N 
ATOM      2  C   UNL     1       2.436   5.543  20.322  0.00  0.00    +0.000 A 
ATOM      3  N   UNL     1       2.910   5.263  19.135  0.00  0.00    +0.000 NA
ATOM      4  C   UNL     1       3.127   3.936  18.949  0.00  0.00    +0.000 A 
ATOM      5  C   UNL     1       2.913   2.904  19.830  0.00  0.00    +0.000 A 
ATOM      6  N   UNL     1       3.247   1.692  19.269  0.00  0.00    +0.000 NA
ATOM      7  C   UNL     1       3.669   1.997  18.056  0.00  0.00    +0.000 A 
ATOM      8  N   UNL     1       3.631   3.345  17.822  0.00  0.00    +0.000 N 
ATOM      9  C   UNL     1       2.406   3.229  21.137  0.00  0.00    +0.000 A 
ATOM     10  O   UNL     1       2.174   2.434  22.046  0.00  0.00    +0.000 OA
ATOM     11  N   UNL     1       2.197   4.597  21.296  0.00  0.00    +0.000 N 
ATOM     12  H   UNL     1       2.557   7.508  20.022  0.00  0.00    +0.000 HD
ATOM     13  H   UNL     1       2.211   7.092  21.628  0.00  0.00    +0.000 HD
ATOM     14  H   UNL     1       1.815   4.866  22.188  0.00  0.00    +0.000 HD
ENDROOT
BRANCH   8  15
ATOM     15  C   UNL     1       4.091   4.073  16.655  0.00  0.00    +0.000 C 
BRANCH  15  16
ATOM     16  O   UNL     1       5.165   3.371  16.016  0.00  0.00    +0.000 OA
BRANCH  16  17
ATOM     17  C   UNL     1       6.284   4.221  15.696  0.00  0.00    +0.000 C 
BRANCH  17  18
ATOM     18  C   UNL     1       6.410   4.413  14.170  0.00  0.00    +0.000 C 
BRANCH  18  19
ATOM     19  O   UNL     1       6.190   3.185  13.480  0.00  0.00    +0.000 OA
ATOM     20  H   UNL     1       6.910   3.085  12.829  0.00  0.00    +0.000 HD
ENDBRANCH  18  19
ENDBRANCH  17  18
BRANCH  17  21
ATOM     21  C   UNL     1       6.068   5.582  16.391  0.00  0.00    +0.000 C 
BRANCH  21  22
ATOM     22  C   UNL     1       7.357   6.167  16.968  0.00  0.00    +0.000 C 
BRANCH  22  23
ATOM     23  P   UNL     1       7.646   5.769  18.731  0.00  0.00    +0.000 P 
ATOM     24  O   UNL     1       8.205   7.169  18.988  0.00  0.00    +0.000 OA
BRANCH  23  25
ATOM     25  O   UNL     1       6.048   5.922  19.042  0.00  0.00    +0.000 OA
ATOM     26  H   UNL     1       5.589   6.306  18.270  0.00  0.00    +0.000 HD
ENDBRANCH  23  25
BRANCH  23  27
ATOM     27  O   UNL     1       7.919   5.393  20.397  0.00  0.00    +0.000 OA
ATOM     28  H   UNL     1       8.788   4.940  20.409  0.00  0.00    +0.000 HD
ENDBRANCH  23  27
ENDBRANCH  22  23
ENDBRANCH  21  22
ENDBRANCH  17  21
ENDBRANCH  16  17
ENDBRANCH  15  16
ENDBRANCH   8  15
TORSDOF 10
ENDMDL
MODEL 3
REMARK VINA RESULT:      -6.8      1.614      2.685
REMARK  Name = 
REMARK  10 active torsions:
REMARK  status: ('A' for Active; 'I' for Inactive)
REMARK    1  A    between atoms: N_8  and  C_9
REMARK    2  A    between atoms: C_9  and  O_10
REMARK    3  A    between atoms: O_10  and  C_11
REMARK    4  A    between atoms: C_11  and  C_12
REMARK    5  A    between atoms: C_11  and  C_14
REMARK    6  A    between atoms: C_12  and  O_13
REMARK    7  A    between atoms: C_14  and  C_15
REMARK    8  A    between atoms: C_15  and  P_16
REMARK    9  A    between atoms: P_16  and  O_18
REMARK   10  A    between atoms: P_16  and  O_19
REMARK                            x       y       z     vdW  Elec       q    Type
REMARK                         _______ _______ _______ _____ _____    ______ ____
ROOT
ATOM      1  N   UNL     1       5.446   1.082  20.614  0.00  0.00    +0.000 N 
ATOM      2  C   UNL     1       4.413   1.910  20.321  0.00  0.00    +0.000 A 
ATOM      3  N   UNL     1       4.339   2.473  19.142  0.00  0.00    +0.000 NA
ATOM      4  C   UNL     1       3.260   3.285  19.009  0.00  0.00    +0.000 A 
ATOM      5  C   UNL     1       2.283   3.567  19.934  0.00  0.00    +0.000 A 
ATOM      6  N   UNL     1       1.355   4.448  19.426  0.00  0.00    +0.000 NA
ATOM      7  C   UNL     1       1.769   4.689  18.195  0.00  0.00    +0.000 A 
ATOM      8  N   UNL     1       2.908   3.994  17.892  0.00  0.00    +0.000 N 
ATOM      9  C   UNL     1       2.370   2.928  21.220  0.00  0.00    +0.000 A 
ATOM     10  O   UNL     1       1.577   3.056  22.151  0.00  0.00    +0.000 OA
ATOM     11  N   UNL     1       3.485   2.101  21.322  0.00  0.00    +0.000 N 
ATOM     12  H   UNL     1       5.965   0.777  19.797  0.00  0.00    +0.000 HD
ATOM     13  H   UNL     1       5.293   0.349  21.293  0.00  0.00    +0.000 HD
ATOM     14  H   UNL     1       3.601   1.654  22.219  0.00  0.00    +0.000 HD
ENDROOT
BRANCH   8  15
ATOM     15  C   UNL     1       3.613   3.923  16.625  0.00  0.00    +0.000 C 
BRANCH  15  16
ATOM     16  O   UNL     1       4.999   4.238  16.802  0.00  0.00    +0.000 OA
BRANCH  16  17
ATOM     17  C   UNL     1       5.409   5.411  16.070  0.00  0.00    +0.000 C 
BRANCH  17  18
ATOM     18  C   UNL     1       4.603   6.647  16.518  0.00  0.00    +0.000 C 
BRANCH  18  19
ATOM     19  O   UNL     1       4.790   6.906  17.907  0.00  0.00    +0.000 OA
ATOM     20  H   UNL     1       5.737   7.100  18.041  0.00  0.00    +0.000 HD
ENDBRANCH  18  19
ENDBRANCH  17  18
BRANCH  17  21
ATOM     21  C   UNL     1       6.915   5.632  16.324  0.00  0.00    +0.000 C 
BRANCH  21  22
ATOM     22  C   UNL     1       7.529   4.568  17.234  0.00  0.00    +0.000 C 
BRANCH  22  23
ATOM     23  P   UNL     1       7.815   5.119  18.957  0.00  0.00    +0.000 P 
ATOM     24  O   UNL     1       7.765   6.587  18.529  0.00  0.00    +0.000 OA
BRANCH  23  25
ATOM     25  O   UNL     1       6.263   4.770  19.341  0.00  0.00    +0.000 OA
ATOM     26  H   UNL     1       5.663   5.082  18.636  0.00  0.00    +0.000 HD
ENDBRANCH  23  25
BRANCH  23  27
ATOM     27  O   UNL     1       8.084   5.639  20.584  0.00  0.00    +0.000 OA
ATOM     28  H   UNL     1       8.195   6.610  20.517  0.00  0.00    +0.000 HD
ENDBRANCH  23  27
ENDBRANCH  22  23
ENDBRANCH  21  22
ENDBRANCH  17  21
ENDBRANCH  16  17
ENDBRANCH  15  16
ENDBRANCH   8  15
TORSDOF 10
ENDMDL
MODEL 4
REMARK VINA RESULT:      -6.7      3.275      5.716
REMARK  Name = 
REMARK  10 active torsions:
REMARK  status: ('A' for Active; 'I' for Inactive)
REMARK    1  A    between atoms: N_8  and  C_9
REMARK    2  A    between atoms: C_9  and  O_10
REMARK    3  A    between atoms: O_10  and  C_11
REMARK    4  A    between atoms: C_11  and  C_12
REMARK    5  A    between atoms: C_11  and  C_14
REMARK    6  A    between atoms: C_12  and  O_13
REMARK    7  A    between atoms: C_14  and  C_15
REMARK    8  A    between atoms: C_15  and  P_16
REMARK    9  A    between atoms: P_16  and  O_18
REMARK   10  A    between atoms: P_16  and  O_19
REMARK                            x       y       z     vdW  Elec       q    Type
REMARK                         _______ _______ _______ _____ _____    ______ ____
ROOT
ATOM      1  N   UNL     1       8.121   5.229  20.384  0.00  0.00    +0.000 N 
ATOM      2  C   UNL     1       7.557   5.580  19.203  0.00  0.00    +0.000 A 
ATOM      3  N   UNL     1       6.745   4.754  18.594  0.00  0.00    +0.000 NA
ATOM      4  C   UNL     1       6.277   5.242  17.416  0.00  0.00    +0.000 A 
ATOM      5  C   UNL     1       6.550   6.451  16.824  0.00  0.00    +0.000 A 
ATOM      6  N   UNL     1       5.888   6.579  15.623  0.00  0.00    +0.000 NA
ATOM      7  C   UNL     1       5.213   5.451  15.498  0.00  0.00    +0.000 A 
ATOM      8  N   UNL     1       5.404   4.618  16.568  0.00  0.00    +0.000 N 
ATOM      9  C   UNL     1       7.431   7.356  17.514  0.00  0.00    +0.000 A 
ATOM     10  O   UNL     1       7.767   8.476  17.135  0.00  0.00    +0.000 OA
ATOM     11  N   UNL     1       7.891   6.826  18.717  0.00  0.00    +0.000 N 
ATOM     12  H   UNL     1       7.677   4.430  20.824  0.00  0.00    +0.000 HD
ATOM     13  H   UNL     1       8.366   5.964  21.034  0.00  0.00    +0.000 HD
ATOM     14  H   UNL     1       8.535   7.416  19.221  0.00  0.00    +0.000 HD
ENDROOT
BRANCH   8  15
ATOM     15  C   UNL     1       4.772   3.341  16.841  0.00  0.00    +0.000 C 
BRANCH  15  16
ATOM     16  O   UNL     1       3.443   3.533  17.341  0.00  0.00    +0.000 OA
BRANCH  16  17
ATOM     17  C   UNL     1       2.791   2.300  17.703  0.00  0.00    +0.000 C 
BRANCH  17  18
ATOM     18  C   UNL     1       3.746   1.389  18.502  0.00  0.00    +0.000 C 
BRANCH  18  19
ATOM     19  O   UNL     1       4.684   2.159  19.249  0.00  0.00    +0.000 OA
ATOM     20  H   UNL     1       4.724   1.777  20.146  0.00  0.00    +0.000 HD
ENDBRANCH  18  19
ENDBRANCH  17  18
BRANCH  17  21
ATOM     21  C   UNL     1       1.546   2.644  18.547  0.00  0.00    +0.000 C 
BRANCH  21  22
ATOM     22  C   UNL     1       1.866   2.830  20.031  0.00  0.00    +0.000 C 
BRANCH  22  23
ATOM     23  P   UNL     1       2.023   4.576  20.558  0.00  0.00    +0.000 P 
ATOM     24  O   UNL     1       2.296   4.149  22.001  0.00  0.00    +0.000 OA
BRANCH  23  25
ATOM     25  O   UNL     1       3.512   4.660  19.885  0.00  0.00    +0.000 OA
ATOM     26  H   UNL     1       4.116   4.031  20.325  0.00  0.00    +0.000 HD
ENDBRANCH  23  25
BRANCH  23  27
ATOM     27  O   UNL     1       2.172   6.226  21.055  0.00  0.00    +0.000 OA
ATOM     28  H   UNL     1       2.742   6.192  21.852  0.00  0.00    +0.000 HD
ENDBRANCH  23  27
ENDBRANCH  22  23
ENDBRANCH  21  22
ENDBRANCH  17  21
ENDBRANCH  16  17
ENDBRANCH  15  16
ENDBRANCH   8  15
TORSDOF 10
ENDMDL
MODEL 5
REMARK VINA RESULT:      -6.7      3.572      6.033
REMARK  Name = 
REMARK  10 active torsions:
REMARK  status: ('A' for Active; 'I' for Inactive)
REMARK    1  A    between atoms: N_8  and  C_9
REMARK    2  A    between atoms: C_9  and  O_10
REMARK    3  A    between atoms: O_10  and  C_11
REMARK    4  A    between atoms: C_11  and  C_12
REMARK    5  A    between atoms: C_11  and  C_14
REMARK    6  A    between atoms: C_12  and  O_13
REMARK    7  A    between atoms: C_14  and  C_15
REMARK    8  A    between atoms: C_15  and  P_16
REMARK    9  A    between atoms: P_16  and  O_18
REMARK   10  A    between atoms: P_16  and  O_19
REMARK                            x       y       z     vdW  Elec       q    Type
REMARK                         _______ _______ _______ _____ _____    ______ ____
ROOT
ATOM      1  N   UNL     1       8.705   5.163  20.303  0.00  0.00    +0.000 N 
ATOM      2  C   UNL     1       8.035   5.648  19.230  0.00  0.00    +0.000 A 
ATOM      3  N   UNL     1       7.241   4.867  18.544  0.00  0.00    +0.000 NA
ATOM      4  C   UNL     1       6.658   5.494  17.491  0.00  0.00    +0.000 A 
ATOM      5  C   UNL     1       6.804   6.799  17.086  0.00  0.00    +0.000 A 
ATOM      6  N   UNL     1       6.052   7.060  15.963  0.00  0.00    +0.000 NA
ATOM      7  C   UNL     1       5.449   5.916  15.698  0.00  0.00    +0.000 A 
ATOM      8  N   UNL     1       5.771   4.943  16.606  0.00  0.00    +0.000 N 
ATOM      9  C   UNL     1       7.668   7.651  17.860  0.00  0.00    +0.000 A 
ATOM     10  O   UNL     1       7.898   8.840  17.648  0.00  0.00    +0.000 OA
ATOM     11  N   UNL     1       8.247   6.978  18.933  0.00  0.00    +0.000 N 
ATOM     12  H   UNL     1       8.348   4.272  20.634  0.00  0.00    +0.000 HD
ATOM     13  H   UNL     1       8.944   5.804  21.047  0.00  0.00    +0.000 HD
ATOM     14  H   UNL     1       8.883   7.530  19.486  0.00  0.00    +0.000 HD
ENDROOT
BRANCH   8  15
ATOM     15  C   UNL     1       5.249   3.593  16.706  0.00  0.00    +0.000 C 
BRANCH  15  16
ATOM     16  O   UNL     1       3.822   3.594  16.582  0.00  0.00    +0.000 OA
BRANCH  16  17
ATOM     17  C   UNL     1       3.147   3.822  17.835  0.00  0.00    +0.000 C 
BRANCH  17  18
ATOM     18  C   UNL     1       2.454   5.201  17.842  0.00  0.00    +0.000 C 
BRANCH  18  19
ATOM     19  O   UNL     1       2.992   6.040  18.862  0.00  0.00    +0.000 OA
ATOM     20  H   UNL     1       3.852   5.661  19.125  0.00  0.00    +0.000 HD
ENDBRANCH  18  19
ENDBRANCH  17  18
BRANCH  17  21
ATOM     21  C   UNL     1       2.107   2.699  18.032  0.00  0.00    +0.000 C 
BRANCH  21  22
ATOM     22  C   UNL     1       0.961   3.105  18.959  0.00  0.00    +0.000 C 
BRANCH  22  23
ATOM     23  P   UNL     1       1.297   2.841  20.739  0.00  0.00    +0.000 P 
ATOM     24  O   UNL     1       2.732   2.409  20.436  0.00  0.00    +0.000 OA
BRANCH  23  25
ATOM     25  O   UNL     1       1.415   4.457  20.970  0.00  0.00    +0.000 OA
ATOM     26  H   UNL     1       0.543   4.827  21.209  0.00  0.00    +0.000 HD
ENDBRANCH  23  25
BRANCH  23  27
ATOM     27  O   UNL     1       1.615   2.594  22.421  0.00  0.00    +0.000 OA
ATOM     28  H   UNL     1       1.805   1.636  22.497  0.00  0.00    +0.000 HD
ENDBRANCH  23  27
ENDBRANCH  22  23
ENDBRANCH  21  22
ENDBRANCH  17  21
ENDBRANCH  16  17
ENDBRANCH  15  16
ENDBRANCH   8  15
TORSDOF 10
ENDMDL
MODEL 6
REMARK VINA RESULT:      -6.7      1.420      2.307
REMARK  Name = 
REMARK  10 active torsions:
REMARK  status: ('A' for Active; 'I' for Inactive)
REMARK    1  A    between atoms: N_8  and  C_9
REMARK    2  A    between atoms: C_9  and  O_10
REMARK    3  A    between atoms: O_10  and  C_11
REMARK    4  A    between atoms: C_11  and  C_12
REMARK    5  A    between atoms: C_11  and  C_14
REMARK    6  A    between atoms: C_12  and  O_13
REMARK    7  A    between atoms: C_14  and  C_15
REMARK    8  A    between atoms: C_15  and  P_16
REMARK    9  A    between atoms: P_16  and  O_18
REMARK   10  A    between atoms: P_16  and  O_19
REMARK                            x       y       z     vdW  Elec       q    Type
REMARK                         _______ _______ _______ _____ _____    ______ ____
ROOT
ATOM      1  N   UNL     1       5.440   1.264  21.195  0.00  0.00    +0.000 N 
ATOM      2  C   UNL     1       4.370   1.925  20.690  0.00  0.00    +0.000 A 
ATOM      3  N   UNL     1       4.400   2.379  19.463  0.00  0.00    +0.000 NA
ATOM      4  C   UNL     1       3.264   3.033  19.111  0.00  0.00    +0.000 A 
ATOM      5  C   UNL     1       2.139   3.259  19.867  0.00  0.00    +0.000 A 
ATOM      6  N   UNL     1       1.196   3.970  19.159  0.00  0.00    +0.000 NA
ATOM      7  C   UNL     1       1.751   4.164  17.976  0.00  0.00    +0.000 A 
ATOM      8  N   UNL     1       2.995   3.599  17.894  0.00  0.00    +0.000 N 
ATOM      9  C   UNL     1       2.115   2.740  21.210  0.00  0.00    +0.000 A 
ATOM     10  O   UNL     1       1.188   2.839  22.011  0.00  0.00    +0.000 OA
ATOM     11  N   UNL     1       3.293   2.074  21.537  0.00  0.00    +0.000 N 
ATOM     12  H   UNL     1       6.102   0.964  20.487  0.00  0.00    +0.000 HD
ATOM     13  H   UNL     1       5.278   0.573  21.915  0.00  0.00    +0.000 HD
ATOM     14  H   UNL     1       3.331   1.719  22.480  0.00  0.00    +0.000 HD
ENDROOT
BRANCH   8  15
ATOM     15  C   UNL     1       3.876   3.519  16.744  0.00  0.00    +0.000 C 
BRANCH  15  16
ATOM     16  O   UNL     1       4.630   4.729  16.602  0.00  0.00    +0.000 OA
BRANCH  16  17
ATOM     17  C   UNL     1       5.932   4.519  16.021  0.00  0.00    +0.000 C 
BRANCH  17  18
ATOM     18  C   UNL     1       5.838   4.427  14.484  0.00  0.00    +0.000 C 
BRANCH  18  19
ATOM     19  O   UNL     1       7.082   4.762  13.874  0.00  0.00    +0.000 OA
ATOM     20  H   UNL     1       7.157   5.734  13.882  0.00  0.00    +0.000 HD
ENDBRANCH  18  19
ENDBRANCH  17  18
BRANCH  17  21
ATOM     21  C   UNL     1       6.838   5.698  16.434  0.00  0.00    +0.000 C 
BRANCH  21  22
ATOM     22  C   UNL     1       6.423   6.332  17.761  0.00  0.00    +0.000 C 
BRANCH  22  23
ATOM     23  P   UNL     1       7.369   5.740  19.212  0.00  0.00    +0.000 P 
ATOM     24  O   UNL     1       7.990   4.612  18.386  0.00  0.00    +0.000 OA
BRANCH  23  25
ATOM     25  O   UNL     1       8.427   6.977  19.045  0.00  0.00    +0.000 OA
ATOM     26  H   UNL     1       7.992   7.735  18.609  0.00  0.00    +0.000 HD
ENDBRANCH  23  25
BRANCH  23  27
ATOM     27  O   UNL     1       8.264   5.181  20.583  0.00  0.00    +0.000 OA
ATOM     28  H   UNL     1       7.790   5.554  21.355  0.00  0.00    +0.000 HD
ENDBRANCH  23  27
ENDBRANCH  22  23
ENDBRANCH  21  22
ENDBRANCH  17  21
ENDBRANCH  16  17
ENDBRANCH  15  16
ENDBRANCH   8  15
TORSDOF 10
ENDMDL
MODEL 7
REMARK VINA RESULT:      -6.6      2.027      4.168
REMARK  Name = 
REMARK  10 active torsions:
REMARK  status: ('A' for Active; 'I' for Inactive)
REMARK    1  A    between atoms: N_8  and  C_9
REMARK    2  A    between atoms: C_9  and  O_10
REMARK    3  A    between atoms: O_10  and  C_11
REMARK    4  A    between atoms: C_11  and  C_12
REMARK    5  A    between atoms: C_11  and  C_14
REMARK    6  A    between atoms: C_12  and  O_13
REMARK    7  A    between atoms: C_14  and  C_15
REMARK    8  A    between atoms: C_15  and  P_16
REMARK    9  A    between atoms: P_16  and  O_18
REMARK   10  A    between atoms: P_16  and  O_19
REMARK                            x       y       z     vdW  Elec       q    Type
REMARK                         _______ _______ _______ _____ _____    ______ ____
ROOT
ATOM      1  N   UNL     1       4.425   0.474  18.745  0.00  0.00    +0.000 N 
ATOM      2  C   UNL     1       3.655   1.588  18.799  0.00  0.00    +0.000 A 
ATOM      3  N   UNL     1       4.205   2.755  19.018  0.00  0.00    +0.000 NA
ATOM      4  C   UNL     1       3.302   3.768  19.062  0.00  0.00    +0.000 A 
ATOM      5  C   UNL     1       1.938   3.703  18.908  0.00  0.00    +0.000 A 
ATOM      6  N   UNL     1       1.363   4.949  19.028  0.00  0.00    +0.000 NA
ATOM      7  C   UNL     1       2.381   5.761  19.246  0.00  0.00    +0.000 A 
ATOM      8  N   UNL     1       3.576   5.094  19.258  0.00  0.00    +0.000 N 
ATOM      9  C   UNL     1       1.350   2.415  18.651  0.00  0.00    +0.000 A 
ATOM     10  O   UNL     1       0.155   2.183  18.475  0.00  0.00    +0.000 OA
ATOM     11  N   UNL     1       2.303   1.401  18.611  0.00  0.00    +0.000 N 
ATOM     12  H   UNL     1       5.416   0.672  18.645  0.00  0.00    +0.000 HD
ATOM     13  H   UNL     1       4.108  -0.299  18.176  0.00  0.00    +0.000 HD
ATOM     14  H   UNL     1       1.930   0.476  18.461  0.00  0.00    +0.000 HD
ENDROOT
BRANCH   8  15
ATOM     15  C   UNL     1       4.915   5.642  19.376  0.00  0.00    +0.000 C 
BRANCH  15  16
ATOM     16  O   UNL     1       5.332   6.224  18.135  0.00  0.00    +0.000 OA
BRANCH  16  17
ATOM     17  C   UNL     1       6.765   6.296  17.998  0.00  0.00    +0.000 C 
BRANCH  17  18
ATOM     18  C   UNL     1       7.458   5.311  18.961  0.00  0.00    +0.000 C 
BRANCH  18  19
ATOM     19  O   UNL     1       8.409   5.983  19.784  0.00  0.00    +0.000 OA
ATOM     20  H   UNL     1       8.509   5.457  20.600  0.00  0.00    +0.000 HD
ENDBRANCH  18  19
ENDBRANCH  17  18
BRANCH  17  21
ATOM     21  C   UNL     1       7.125   5.960  16.536  0.00  0.00    +0.000 C 
BRANCH  21  22
ATOM     22  C   UNL     1       6.928   4.482  16.199  0.00  0.00    +0.000 C 
BRANCH  22  23
ATOM     23  P   UNL     1       6.580   4.147  14.434  0.00  0.00    +0.000 P 
ATOM     24  O   UNL     1       5.222   4.842  14.537  0.00  0.00    +0.000 OA
BRANCH  23  25
ATOM     25  O   UNL     1       7.601   5.346  13.990  0.00  0.00    +0.000 OA
ATOM     26  H   UNL     1       8.448   4.970  13.681  0.00  0.00    +0.000 HD
ENDBRANCH  23  25
BRANCH  23  27
ATOM     27  O   UNL     1       6.252   3.831  12.765  0.00  0.00    +0.000 OA
ATOM     28  H   UNL     1       6.268   2.854  12.691  0.00  0.00    +0.000 HD
ENDBRANCH  23  27
ENDBRANCH  22  23
ENDBRANCH  21  22
ENDBRANCH  17  21
ENDBRANCH  16  17
ENDBRANCH  15  16
ENDBRANCH   8  15
TORSDOF 10
ENDMDL
MODEL 8
REMARK VINA RESULT:      -6.6      1.767      3.007
REMARK  Name = 
REMARK  10 active torsions:
REMARK  status: ('A' for Active; 'I' for Inactive)
REMARK    1  A    between atoms: N_8  and  C_9
REMARK    2  A    between atoms: C_9  and  O_10
REMARK    3  A    between atoms: O_10  and  C_11
REMARK    4  A    between atoms: C_11  and  C_12
REMARK    5  A    between atoms: C_11  and  C_14
REMARK    6  A    between atoms: C_12  and  O_13
REMARK    7  A    between atoms: C_14  and  C_15
REMARK    8  A    between atoms: C_15  and  P_16
REMARK    9  A    between atoms: P_16  and  O_18
REMARK   10  A    between atoms: P_16  and  O_19
REMARK                            x       y       z     vdW  Elec       q    Type
REMARK                         _______ _______ _______ _____ _____    ______ ____
ROOT
ATOM      1  N   UNL     1       1.484   6.848  21.020  0.00  0.00    +0.000 N 
ATOM      2  C   UNL     1       1.816   5.636  20.512  0.00  0.00    +0.000 A 
ATOM      3  N   UNL     1       3.051   5.391  20.155  0.00  0.00    +0.000 NA
ATOM      4  C   UNL     1       3.220   4.142  19.650  0.00  0.00    +0.000 A 
ATOM      5  C   UNL     1       2.279   3.155  19.480  0.00  0.00    +0.000 A 
ATOM      6  N   UNL     1       2.836   2.024  18.926  0.00  0.00    +0.000 NA
ATOM      7  C   UNL     1       4.112   2.330  18.770  0.00  0.00    +0.000 A 
ATOM      8  N   UNL     1       4.394   3.595  19.210  0.00  0.00    +0.000 N 
ATOM      9  C   UNL     1       0.928   3.434  19.892  0.00  0.00    +0.000 A 
ATOM     10  O   UNL     1      -0.027   2.662  19.825  0.00  0.00    +0.000 OA
ATOM     11  N   UNL     1       0.791   4.720  20.407  0.00  0.00    +0.000 N 
ATOM     12  H   UNL     1       2.286   7.401  21.305  0.00  0.00    +0.000 HD
ATOM     13  H   UNL     1       0.707   6.899  21.665  0.00  0.00    +0.000 HD
ATOM     14  H   UNL     1      -0.147   4.968  20.682  0.00  0.00    +0.000 HD
ENDROOT
BRANCH   8  15
ATOM     15  C   UNL     1       5.683   4.256  19.290  0.00  0.00    +0.000 C 
BRANCH  15  16
ATOM     16  O   UNL     1       5.680   5.461  18.515  0.00  0.00    +0.000 OA
BRANCH  16  17
ATOM     17  C   UNL     1       6.999   6.001  18.305  0.00  0.00    +0.000 C 
BRANCH  17  18
ATOM     18  C   UNL     1       8.082   4.971  18.686  0.00  0.00    +0.000 C 
BRANCH  18  19
ATOM     19  O   UNL     1       8.347   4.082  17.604  0.00  0.00    +0.000 OA
ATOM     20  H   UNL     1       8.144   4.561  16.779  0.00  0.00    +0.000 HD
ENDBRANCH  18  19
ENDBRANCH  17  18
BRANCH  17  21
ATOM     21  C   UNL     1       7.128   6.388  16.816  0.00  0.00    +0.000 C 
BRANCH  21  22
ATOM     22  C   UNL     1       5.881   6.044  16.002  0.00  0.00    +0.000 C 
BRANCH  22  23
ATOM     23  P   UNL     1       6.120   4.700  14.782  0.00  0.00    +0.000 P 
ATOM     24  O   UNL     1       7.607   5.038  14.655  0.00  0.00    +0.000 OA
BRANCH  23  25
ATOM     25  O   UNL     1       6.072   3.586  15.979  0.00  0.00    +0.000 OA
ATOM     26  H   UNL     1       6.937   3.138  16.057  0.00  0.00    +0.000 HD
ENDBRANCH  23  25
BRANCH  23  27
ATOM     27  O   UNL     1       6.346   3.430  13.630  0.00  0.00    +0.000 OA
ATOM     28  H   UNL     1       5.751   3.662  12.887  0.00  0.00    +0.000 HD
ENDBRANCH  23  27
ENDBRANCH  22  23
ENDBRANCH  21  22
ENDBRANCH  17  21
ENDBRANCH  16  17
ENDBRANCH  15  16
ENDBRANCH   8  15
TORSDOF 10
ENDMDL
MODEL 9
REMARK VINA RESULT:      -6.5      3.432      5.879
REMARK  Name = 
REMARK  10 active torsions:
REMARK  status: ('A' for Active; 'I' for Inactive)
REMARK    1  A    between atoms: N_8  and  C_9
REMARK    2  A    between atoms: C_9  and  O_10
REMARK    3  A    between atoms: O_10  and  C_11
REMARK    4  A    between atoms: C_11  and  C_12
REMARK    5  A    between atoms: C_11  and  C_14
REMARK    6  A    between atoms: C_12  and  O_13
REMARK    7  A    between atoms: C_14  and  C_15
REMARK    8  A    between atoms: C_15  and  P_16
REMARK    9  A    between atoms: P_16  and  O_18
REMARK   10  A    between atoms: P_16  and  O_19
REMARK                            x       y       z     vdW  Elec       q    Type
REMARK                         _______ _______ _______ _____ _____    ______ ____
ROOT
ATOM      1  N   UNL     1       8.600   5.191  20.407  0.00  0.00    +0.000 N 
ATOM      2  C   UNL     1       7.957   5.644  19.303  0.00  0.00    +0.000 A 
ATOM      3  N   UNL     1       7.171   4.845  18.628  0.00  0.00    +0.000 NA
ATOM      4  C   UNL     1       6.615   5.440  17.542  0.00  0.00    +0.000 A 
ATOM      5  C   UNL     1       6.780   6.729  17.095  0.00  0.00    +0.000 A 
ATOM      6  N   UNL     1       6.054   6.957  15.948  0.00  0.00    +0.000 NA
ATOM      7  C   UNL     1       5.447   5.808  15.710  0.00  0.00    +0.000 A 
ATOM      8  N   UNL     1       5.743   4.865  16.657  0.00  0.00    +0.000 N 
ATOM      9  C   UNL     1       7.635   7.601  17.858  0.00  0.00    +0.000 A 
ATOM     10  O   UNL     1       7.878   8.780  17.609  0.00  0.00    +0.000 OA
ATOM     11  N   UNL     1       8.186   6.961  18.965  0.00  0.00    +0.000 N 
ATOM     12  H   UNL     1       8.230   4.315  20.760  0.00  0.00    +0.000 HD
ATOM     13  H   UNL     1       8.829   5.856  21.133  0.00  0.00    +0.000 HD
ATOM     14  H   UNL     1       8.815   7.528  19.512  0.00  0.00    +0.000 HD
ENDROOT
BRANCH   8  15
ATOM     15  C   UNL     1       5.209   3.523  16.793  0.00  0.00    +0.000 C 
BRANCH  15  16
ATOM     16  O   UNL     1       4.230   3.474  17.838  0.00  0.00    +0.000 OA
BRANCH  16  17
ATOM     17  C   UNL     1       3.157   2.551  17.566  0.00  0.00    +0.000 C 
BRANCH  17  18
ATOM     18  C   UNL     1       3.180   1.373  18.562  0.00  0.00    +0.000 C 
BRANCH  18  19
ATOM     19  O   UNL     1       4.382   0.618  18.435  0.00  0.00    +0.000 OA
ATOM     20  H   UNL     1       4.831   0.640  19.301  0.00  0.00    +0.000 HD
ENDBRANCH  18  19
ENDBRANCH  17  18
BRANCH  17  21
ATOM     21  C   UNL     1       1.823   3.319  17.674  0.00  0.00    +0.000 C 
BRANCH  21  22
ATOM     22  C   UNL     1       1.900   4.514  18.624  0.00  0.00    +0.000 C 
BRANCH  22  23
ATOM     23  P   UNL     1       2.027   4.067  20.395  0.00  0.00    +0.000 P 
ATOM     24  O   UNL     1       3.253   4.965  20.566  0.00  0.00    +0.000 OA
BRANCH  23  25
ATOM     25  O   UNL     1       0.768   5.050  20.748  0.00  0.00    +0.000 OA
ATOM     26  H   UNL     1       1.066   5.787  21.316  0.00  0.00    +0.000 HD
ENDBRANCH  23  25
BRANCH  23  27
ATOM     27  O   UNL     1       2.146   3.644  22.068  0.00  0.00    +0.000 OA
ATOM     28  H   UNL     1       1.224   3.460  22.341  0.00  0.00    +0.000 HD
ENDBRANCH  23  27
ENDBRANCH  22  23
ENDBRANCH  21  22
ENDBRANCH  17  21
ENDBRANCH  16  17
ENDBRANCH  15  16
ENDBRANCH   8  15
TORSDOF 10
ENDMDL
