MODEL 1
REMARK VINA RESULT:      -6.2      0.000      0.000
REMARK  Name = 
REMARK  7 active torsions:
REMARK  status: ('A' for Active; 'I' for Inactive)
REMARK    1  A    between atoms: C_1  and  N_2
REMARK    2  A    between atoms: N_2  and  C_3
REMARK    3  A    between atoms: N_2  and  C_10
REMARK    4  A    between atoms: C_3  and  C_4
REMARK    5  A    between atoms: C_4  and  C_5
REMARK    6  A    between atoms: C_10  and  C_11
REMARK    7  A    between atoms: N_13  and  C_14
REMARK                            x       y       z     vdW  Elec       q    Type
REMARK                         _______ _______ _______ _____ _____    ______ ____
ROOT
ATOM      1  C   UNL     1       5.270   4.154  19.166  0.00  0.00    +0.000 C 
ATOM      2  O   UNL     1       5.471   5.184  19.802  0.00  0.00    +0.000 OA
ATOM      3  N   UNL     1       5.712   3.971  17.865  0.00  0.00    +0.000 N 
ATOM      4  H   UNL     1       5.735   3.001  17.558  0.00  0.00    +0.000 HD
ENDROOT
BRANCH   3   5
ATOM      5  C   UNL     1       6.510   5.000  17.211  0.00  0.00    +0.000 C 
ATOM      6  C   UNL     1       5.642   6.066  16.535  0.00  0.00    +0.000 C 
ATOM      7  C   UNL     1       5.229   5.509  15.186  0.00  0.00    +0.000 C 
ATOM      8  S   UNL     1       6.675   4.667  14.585  0.00  0.00    +0.000 S 
ATOM      9  O   UNL     1       7.461   5.607  13.810  0.00  0.00    +0.000 OA
ATOM     10  O   UNL     1       6.272   3.380  14.056  0.00  0.00    +0.000 OA
ATOM     11  C   UNL     1       7.471   4.432  16.164  0.00  0.00    +0.000 C 
ENDBRANCH   3   5
BRANCH   1  12
ATOM     12  C   UNL     1       4.456   2.987  19.730  0.00  0.00    +0.000 C 
BRANCH  12  14
ATOM     13  C   UNL     1       3.911   1.078  18.347  0.00  0.00    +0.000 C 
ATOM     14  N   UNL     1       3.502   2.444  18.729  0.00  0.00    +0.000 NA
BRANCH  14  15
ATOM     15  C   UNL     1       2.130   2.368  19.304  0.00  0.00    +0.000 C 
BRANCH  15  16
ATOM     16  C   UNL     1       1.146   3.407  18.732  0.00  0.00    +0.000 C 
BRANCH  16  17
ATOM     17  C   UNL     1       1.648   4.817  18.871  0.00  0.00    +0.000 A 
ATOM     18  C   UNL     1       2.129   5.656  17.886  0.00  0.00    +0.000 A 
ATOM     19  C   UNL     1       2.581   6.901  18.410  0.00  0.00    +0.000 A 
ATOM     20  C   UNL     1       2.422   6.977  19.775  0.00  0.00    +0.000 A 
ATOM     21  S   UNL     1       1.722   5.556  20.418  0.00  0.00    +0.000 S 
ENDBRANCH  16  17
ENDBRANCH  15  16
ENDBRANCH  14  15
ENDBRANCH  12  14
ENDBRANCH   1  12
TORSDOF 6
ENDMDL
MODEL 2
REMARK VINA RESULT:      -6.0      0.979      1.289
REMARK  Name = 
REMARK  7 active torsions:
REMARK  status: ('A' for Active; 'I' for Inactive)
REMARK    1  A    between atoms: C_1  and  N_2
REMARK    2  A    between atoms: N_2  and  C_3
REMARK    3  A    between atoms: N_2  and  C_10
REMARK    4  A    between atoms: C_3  and  C_4
REMARK    5  A    between atoms: C_4  and  C_5
REMARK    6  A    between atoms: C_10  and  C_11
REMARK    7  A    between atoms: N_13  and  C_14
REMARK                            x       y       z     vdW  Elec       q    Type
REMARK                         _______ _______ _______ _____ _____    ______ ____
ROOT
ATOM      1  C   UNL     1       5.182   4.367  19.159  0.00  0.00    +0.000 C 
ATOM      2  O   UNL     1       5.647   5.261  19.859  0.00  0.00    +0.000 OA
ATOM      3  N   UNL     1       5.553   4.172  17.837  0.00  0.00    +0.000 N 
ATOM      4  H   UNL     1       5.322   3.254  17.463  0.00  0.00    +0.000 HD
ENDROOT
BRANCH   3   5
ATOM      5  C   UNL     1       6.586   5.006  17.236  0.00  0.00    +0.000 C 
ATOM      6  C   UNL     1       6.018   6.299  16.644  0.00  0.00    +0.000 C 
ATOM      7  C   UNL     1       5.476   5.955  15.270  0.00  0.00    +0.000 C 
ATOM      8  S   UNL     1       6.660   4.815  14.592  0.00  0.00    +0.000 S 
ATOM      9  O   UNL     1       7.659   5.574  13.865  0.00  0.00    +0.000 OA
ATOM     10  O   UNL     1       5.942   3.709  13.990  0.00  0.00    +0.000 OA
ATOM     11  C   UNL     1       7.370   4.282  16.139  0.00  0.00    +0.000 C 
ENDBRANCH   3   5
BRANCH   1  12
ATOM     12  C   UNL     1       4.097   3.412  19.661  0.00  0.00    +0.000 C 
BRANCH  12  14
ATOM     13  C   UNL     1       2.538   1.861  18.650  0.00  0.00    +0.000 C 
ATOM     14  N   UNL     1       2.992   3.265  18.679  0.00  0.00    +0.000 NA
BRANCH  14  15
ATOM     15  C   UNL     1       1.831   4.114  19.070  0.00  0.00    +0.000 C 
BRANCH  15  16
ATOM     16  C   UNL     1       2.179   5.246  20.056  0.00  0.00    +0.000 C 
BRANCH  16  17
ATOM     17  C   UNL     1       2.149   6.604  19.412  0.00  0.00    +0.000 A 
ATOM     18  C   UNL     1       2.620   6.972  18.168  0.00  0.00    +0.000 A 
ATOM     19  C   UNL     1       2.480   8.369  17.928  0.00  0.00    +0.000 A 
ATOM     20  C   UNL     1       1.899   9.021  18.992  0.00  0.00    +0.000 A 
ATOM     21  S   UNL     1       1.516   7.949  20.268  0.00  0.00    +0.000 S 
ENDBRANCH  16  17
ENDBRANCH  15  16
ENDBRANCH  14  15
ENDBRANCH  12  14
ENDBRANCH   1  12
TORSDOF 6
ENDMDL
MODEL 3
REMARK VINA RESULT:      -5.8      1.939      2.687
REMARK  Name = 
REMARK  7 active torsions:
REMARK  status: ('A' for Active; 'I' for Inactive)
REMARK    1  A    between atoms: C_1  and  N_2
REMARK    2  A    between atoms: N_2  and  C_3
REMARK    3  A    between atoms: N_2  and  C_10
REMARK    4  A    between atoms: C_3  and  C_4
REMARK    5  A    between atoms: C_4  and  C_5
REMARK    6  A    between atoms: C_10  and  C_11
REMARK    7  A    between atoms: N_13  and  C_14
REMARK                            x       y       z     vdW  Elec       q    Type
REMARK                         _______ _______ _______ _____ _____    ______ ____
ROOT
ATOM      1  C   UNL     1       4.599   3.618  19.495  0.00  0.00    +0.000 C 
ATOM      2  O   UNL     1       5.188   2.595  19.831  0.00  0.00    +0.000 OA
ATOM      3  N   UNL     1       5.050   4.451  18.483  0.00  0.00    +0.000 N 
ATOM      4  H   UNL     1       4.347   5.089  18.115  0.00  0.00    +0.000 HD
ENDROOT
BRANCH   3   5
ATOM      5  C   UNL     1       6.239   4.098  17.718  0.00  0.00    +0.000 C 
ATOM      6  C   UNL     1       7.409   5.046  17.990  0.00  0.00    +0.000 C 
ATOM      7  C   UNL     1       7.196   6.272  17.121  0.00  0.00    +0.000 C 
ATOM      8  S   UNL     1       6.585   5.628  15.580  0.00  0.00    +0.000 S 
ATOM      9  O   UNL     1       7.718   5.370  14.713  0.00  0.00    +0.000 OA
ATOM     10  O   UNL     1       5.460   6.438  15.158  0.00  0.00    +0.000 OA
ATOM     11  C   UNL     1       5.987   4.070  16.208  0.00  0.00    +0.000 C 
ENDBRANCH   3   5
BRANCH   1  12
ATOM     12  C   UNL     1       3.334   4.107  20.204  0.00  0.00    +0.000 C 
BRANCH  12  14
ATOM     13  C   UNL     1       0.950   3.723  20.044  0.00  0.00    +0.000 C 
ATOM     14  N   UNL     1       2.160   4.119  19.295  0.00  0.00    +0.000 NA
BRANCH  14  15
ATOM     15  C   UNL     1       1.935   5.488  18.752  0.00  0.00    +0.000 C 
BRANCH  15  16
ATOM     16  C   UNL     1       2.381   6.624  19.694  0.00  0.00    +0.000 C 
BRANCH  16  17
ATOM     17  C   UNL     1       1.942   7.979  19.215  0.00  0.00    +0.000 A 
ATOM     18  C   UNL     1       2.135   8.552  17.974  0.00  0.00    +0.000 A 
ATOM     19  C   UNL     1       1.637   9.886  17.910  0.00  0.00    +0.000 A 
ATOM     20  C   UNL     1       1.072  10.284  19.100  0.00  0.00    +0.000 A 
ATOM     21  S   UNL     1       1.134   9.051  20.283  0.00  0.00    +0.000 S 
ENDBRANCH  16  17
ENDBRANCH  15  16
ENDBRANCH  14  15
ENDBRANCH  12  14
ENDBRANCH   1  12
TORSDOF 6
ENDMDL
MODEL 4
REMARK VINA RESULT:      -5.8      2.132      2.989
REMARK  Name = 
REMARK  7 active torsions:
REMARK  status: ('A' for Active; 'I' for Inactive)
REMARK    1  A    between atoms: C_1  and  N_2
REMARK    2  A    between atoms: N_2  and  C_3
REMARK    3  A    between atoms: N_2  and  C_10
REMARK    4  A    between atoms: C_3  and  C_4
REMARK    5  A    between atoms: C_4  and  C_5
REMARK    6  A    between atoms: C_10  and  C_11
REMARK    7  A    between atoms: N_13  and  C_14
REMARK                            x       y       z     vdW  Elec       q    Type
REMARK                         _______ _______ _______ _____ _____    ______ ____
ROOT
ATOM      1  C   UNL     1       2.865   2.966  18.119  0.00  0.00    +0.000 C 
ATOM      2  O   UNL     1       3.388   1.939  18.539  0.00  0.00    +0.000 OA
ATOM      3  N   UNL     1       3.562   3.934  17.413  0.00  0.00    +0.000 N 
ATOM      4  H   UNL     1       2.976   4.579  16.886  0.00  0.00    +0.000 HD
ENDROOT
BRANCH   3   5
ATOM      5  C   UNL     1       4.966   3.728  17.078  0.00  0.00    +0.000 C 
ATOM      6  C   UNL     1       5.907   4.390  18.088  0.00  0.00    +0.000 C 
ATOM      7  C   UNL     1       6.014   5.853  17.699  0.00  0.00    +0.000 C 
ATOM      8  S   UNL     1       6.074   5.842  15.922  0.00  0.00    +0.000 S 
ATOM      9  O   UNL     1       7.464   5.766  15.513  0.00  0.00    +0.000 OA
ATOM     10  O   UNL     1       5.180   6.868  15.426  0.00  0.00    +0.000 OA
ATOM     11  C   UNL     1       5.326   4.241  15.682  0.00  0.00    +0.000 C 
ENDBRANCH   3   5
BRANCH   1  12
ATOM     12  C   UNL     1       1.398   3.310  18.388  0.00  0.00    +0.000 C 
BRANCH  12  14
ATOM     13  C   UNL     1       1.237   3.101  20.793  0.00  0.00    +0.000 C 
ATOM     14  N   UNL     1       1.228   4.051  19.663  0.00  0.00    +0.000 NA
BRANCH  14  15
ATOM     15  C   UNL     1       2.351   5.011  19.863  0.00  0.00    +0.000 C 
BRANCH  15  16
ATOM     16  C   UNL     1       1.963   6.286  20.634  0.00  0.00    +0.000 C 
BRANCH  16  17
ATOM     17  C   UNL     1       1.886   7.498  19.748  0.00  0.00    +0.000 A 
ATOM     18  C   UNL     1       1.247   8.697  19.990  0.00  0.00    +0.000 A 
ATOM     19  C   UNL     1       1.333   9.590  18.883  0.00  0.00    +0.000 A 
ATOM     20  C   UNL     1       2.043   9.048  17.836  0.00  0.00    +0.000 A 
ATOM     21  S   UNL     1       2.609   7.475  18.192  0.00  0.00    +0.000 S 
ENDBRANCH  16  17
ENDBRANCH  15  16
ENDBRANCH  14  15
ENDBRANCH  12  14
ENDBRANCH   1  12
TORSDOF 6
ENDMDL
MODEL 5
REMARK VINA RESULT:      -5.7      2.871      5.392
REMARK  Name = 
REMARK  7 active torsions:
REMARK  status: ('A' for Active; 'I' for Inactive)
REMARK    1  A    between atoms: C_1  and  N_2
REMARK    2  A    between atoms: N_2  and  C_3
REMARK    3  A    between atoms: N_2  and  C_10
REMARK    4  A    between atoms: C_3  and  C_4
REMARK    5  A    between atoms: C_4  and  C_5
REMARK    6  A    between atoms: C_10  and  C_11
REMARK    7  A    between atoms: N_13  and  C_14
REMARK                            x       y       z     vdW  Elec       q    Type
REMARK                         _______ _______ _______ _____ _____    ______ ____
ROOT
ATOM      1  C   UNL     1       5.120   4.062  18.157  0.00  0.00    +0.000 C 
ATOM      2  O   UNL     1       6.035   3.691  18.886  0.00  0.00    +0.000 OA
ATOM      3  N   UNL     1       3.857   3.491  18.180  0.00  0.00    +0.000 N 
ATOM      4  H   UNL     1       3.129   4.056  17.749  0.00  0.00    +0.000 HD
ENDROOT
BRANCH   3   5
ATOM      5  C   UNL     1       3.543   2.445  19.146  0.00  0.00    +0.000 C 
ATOM      6  C   UNL     1       2.155   1.841  18.918  0.00  0.00    +0.000 C 
ATOM      7  C   UNL     1       1.154   2.771  19.578  0.00  0.00    +0.000 C 
ATOM      8  S   UNL     1       1.942   3.280  21.089  0.00  0.00    +0.000 S 
ATOM      9  O   UNL     1       1.569   2.347  22.134  0.00  0.00    +0.000 OA
ATOM     10  O   UNL     1       1.774   4.711  21.236  0.00  0.00    +0.000 OA
ATOM     11  C   UNL     1       3.621   2.933  20.595  0.00  0.00    +0.000 C 
ENDBRANCH   3   5
BRANCH   1  12
ATOM     12  C   UNL     1       5.304   5.154  17.101  0.00  0.00    +0.000 C 
BRANCH  12  14
ATOM     13  C   UNL     1       6.379   7.322  17.156  0.00  0.00    +0.000 C 
ATOM     14  N   UNL     1       5.270   6.513  17.700  0.00  0.00    +0.000 NA
BRANCH  14  15
ATOM     15  C   UNL     1       3.992   7.201  17.361  0.00  0.00    +0.000 C 
BRANCH  15  16
ATOM     16  C   UNL     1       2.847   6.934  18.357  0.00  0.00    +0.000 C 
BRANCH  16  17
ATOM     17  C   UNL     1       2.072   8.178  18.693  0.00  0.00    +0.000 A 
ATOM     18  C   UNL     1       1.771   9.247  17.873  0.00  0.00    +0.000 A 
ATOM     19  C   UNL     1       1.076  10.281  18.564  0.00  0.00    +0.000 A 
ATOM     20  C   UNL     1       0.860   9.964  19.886  0.00  0.00    +0.000 A 
ATOM     21  S   UNL     1       1.484   8.424  20.286  0.00  0.00    +0.000 S 
ENDBRANCH  16  17
ENDBRANCH  15  16
ENDBRANCH  14  15
ENDBRANCH  12  14
ENDBRANCH   1  12
TORSDOF 6
ENDMDL
MODEL 6
REMARK VINA RESULT:      -5.7      2.310      3.189
REMARK  Name = 
REMARK  7 active torsions:
REMARK  status: ('A' for Active; 'I' for Inactive)
REMARK    1  A    between atoms: C_1  and  N_2
REMARK    2  A    between atoms: N_2  and  C_3
REMARK    3  A    between atoms: N_2  and  C_10
REMARK    4  A    between atoms: C_3  and  C_4
REMARK    5  A    between atoms: C_4  and  C_5
REMARK    6  A    between atoms: C_10  and  C_11
REMARK    7  A    between atoms: N_13  and  C_14
REMARK                            x       y       z     vdW  Elec       q    Type
REMARK                         _______ _______ _______ _____ _____    ______ ____
ROOT
ATOM      1  C   UNL     1       4.552   3.575  19.559  0.00  0.00    +0.000 C 
ATOM      2  O   UNL     1       5.207   2.591  19.889  0.00  0.00    +0.000 OA
ATOM      3  N   UNL     1       5.015   4.522  18.659  0.00  0.00    +0.000 N 
ATOM      4  H   UNL     1       4.291   5.116  18.260  0.00  0.00    +0.000 HD
ENDROOT
BRANCH   3   5
ATOM      5  C   UNL     1       6.305   4.343  18.005  0.00  0.00    +0.000 C 
ATOM      6  C   UNL     1       7.260   5.509  18.274  0.00  0.00    +0.000 C 
ATOM      7  C   UNL     1       6.901   6.610  17.294  0.00  0.00    +0.000 C 
ATOM      8  S   UNL     1       6.540   5.759  15.775  0.00  0.00    +0.000 S 
ATOM      9  O   UNL     1       7.766   5.655  15.008  0.00  0.00    +0.000 OA
ATOM     10  O   UNL     1       5.324   6.314  15.214  0.00  0.00    +0.000 OA
ATOM     11  C   UNL     1       6.184   4.164  16.490  0.00  0.00    +0.000 C 
ENDBRANCH   3   5
BRANCH   1  12
ATOM     12  C   UNL     1       3.179   3.886  20.158  0.00  0.00    +0.000 C 
BRANCH  12  14
ATOM     13  C   UNL     1       1.274   4.239  18.707  0.00  0.00    +0.000 C 
ATOM     14  N   UNL     1       2.436   4.886  19.349  0.00  0.00    +0.000 NA
BRANCH  14  15
ATOM     15  C   UNL     1       1.927   5.985  20.216  0.00  0.00    +0.000 C 
BRANCH  15  16
ATOM     16  C   UNL     1       2.223   7.400  19.684  0.00  0.00    +0.000 C 
BRANCH  16  17
ATOM     17  C   UNL     1       1.322   8.444  20.282  0.00  0.00    +0.000 A 
ATOM     18  C   UNL     1       0.715   8.442  21.522  0.00  0.00    +0.000 A 
ATOM     19  C   UNL     1      -0.129   9.574  21.713  0.00  0.00    +0.000 A 
ATOM     20  C   UNL     1      -0.133  10.407  20.617  0.00  0.00    +0.000 A 
ATOM     21  S   UNL     1       0.885   9.830  19.371  0.00  0.00    +0.000 S 
ENDBRANCH  16  17
ENDBRANCH  15  16
ENDBRANCH  14  15
ENDBRANCH  12  14
ENDBRANCH   1  12
TORSDOF 6
ENDMDL
MODEL 7
REMARK VINA RESULT:      -5.7      1.665      2.227
REMARK  Name = 
REMARK  7 active torsions:
REMARK  status: ('A' for Active; 'I' for Inactive)
REMARK    1  A    between atoms: C_1  and  N_2
REMARK    2  A    between atoms: N_2  and  C_3
REMARK    3  A    between atoms: N_2  and  C_10
REMARK    4  A    between atoms: C_3  and  C_4
REMARK    5  A    between atoms: C_4  and  C_5
REMARK    6  A    between atoms: C_10  and  C_11
REMARK    7  A    between atoms: N_13  and  C_14
REMARK                            x       y       z     vdW  Elec       q    Type
REMARK                         _______ _______ _______ _____ _____    ______ ____
ROOT
ATOM      1  C   UNL     1       4.215   3.232  19.035  0.00  0.00    +0.000 C 
ATOM      2  O   UNL     1       5.117   2.884  19.791  0.00  0.00    +0.000 OA
ATOM      3  N   UNL     1       4.386   4.186  18.043  0.00  0.00    +0.000 N 
ATOM      4  H   UNL     1       3.670   4.179  17.320  0.00  0.00    +0.000 HD
ENDROOT
BRANCH   3   5
ATOM      5  C   UNL     1       5.699   4.778  17.815  0.00  0.00    +0.000 C 
ATOM      6  C   UNL     1       5.615   6.273  17.497  0.00  0.00    +0.000 C 
ATOM      7  C   UNL     1       5.288   6.392  16.020  0.00  0.00    +0.000 C 
ATOM      8  S   UNL     1       6.248   5.113  15.243  0.00  0.00    +0.000 S 
ATOM      9  O   UNL     1       7.534   5.670  14.871  0.00  0.00    +0.000 OA
ATOM     10  O   UNL     1       5.405   4.418  14.291  0.00  0.00    +0.000 OA
ATOM     11  C   UNL     1       6.472   4.091  16.687  0.00  0.00    +0.000 C 
ENDBRANCH   3   5
BRANCH   1  12
ATOM     12  C   UNL     1       2.789   2.689  19.153  0.00  0.00    +0.000 C 
BRANCH  12  14
ATOM     13  C   UNL     1       2.513   3.836  21.266  0.00  0.00    +0.000 C 
ATOM     14  N   UNL     1       1.914   3.597  19.938  0.00  0.00    +0.000 NA
BRANCH  14  15
ATOM     15  C   UNL     1       1.779   4.912  19.252  0.00  0.00    +0.000 C 
BRANCH  15  16
ATOM     16  C   UNL     1       2.248   6.115  20.093  0.00  0.00    +0.000 C 
BRANCH  16  17
ATOM     17  C   UNL     1       1.996   7.431  19.410  0.00  0.00    +0.000 A 
ATOM     18  C   UNL     1       2.368   7.821  18.139  0.00  0.00    +0.000 A 
ATOM     19  C   UNL     1       2.015   9.174  17.863  0.00  0.00    +0.000 A 
ATOM     20  C   UNL     1       1.378   9.769  18.927  0.00  0.00    +0.000 A 
ATOM     21  S   UNL     1       1.199   8.698  20.248  0.00  0.00    +0.000 S 
ENDBRANCH  16  17
ENDBRANCH  15  16
ENDBRANCH  14  15
ENDBRANCH  12  14
ENDBRANCH   1  12
TORSDOF 6
ENDMDL
MODEL 8
REMARK VINA RESULT:      -5.7      1.834      2.614
REMARK  Name = 
REMARK  7 active torsions:
REMARK  status: ('A' for Active; 'I' for Inactive)
REMARK    1  A    between atoms: C_1  and  N_2
REMARK    2  A    between atoms: N_2  and  C_3
REMARK    3  A    between atoms: N_2  and  C_10
REMARK    4  A    between atoms: C_3  and  C_4
REMARK    5  A    between atoms: C_4  and  C_5
REMARK    6  A    between atoms: C_10  and  C_11
REMARK    7  A    between atoms: N_13  and  C_14
REMARK                            x       y       z     vdW  Elec       q    Type
REMARK                         _______ _______ _______ _____ _____    ______ ____
ROOT
ATOM      1  C   UNL     1       4.341   3.667  18.847  0.00  0.00    +0.000 C 
ATOM      2  O   UNL     1       5.240   3.463  19.657  0.00  0.00    +0.000 OA
ATOM      3  N   UNL     1       4.529   4.379  17.673  0.00  0.00    +0.000 N 
ATOM      4  H   UNL     1       3.806   4.238  16.971  0.00  0.00    +0.000 HD
ENDROOT
BRANCH   3   5
ATOM      5  C   UNL     1       5.856   4.869  17.318  0.00  0.00    +0.000 C 
ATOM      6  C   UNL     1       5.832   6.326  16.850  0.00  0.00    +0.000 C 
ATOM      7  C   UNL     1       5.429   6.314  15.387  0.00  0.00    +0.000 C 
ATOM      8  S   UNL     1       6.276   4.909  14.700  0.00  0.00    +0.000 S 
ATOM      9  O   UNL     1       7.566   5.351  14.207  0.00  0.00    +0.000 OA
ATOM     10  O   UNL     1       5.345   4.171  13.870  0.00  0.00    +0.000 OA
ATOM     11  C   UNL     1       6.528   4.028  16.230  0.00  0.00    +0.000 C 
ENDBRANCH   3   5
BRANCH   1  12
ATOM     12  C   UNL     1       2.901   3.205  19.085  0.00  0.00    +0.000 C 
BRANCH  12  14
ATOM     13  C   UNL     1       0.900   3.961  20.216  0.00  0.00    +0.000 C 
ATOM     14  N   UNL     1       1.978   4.351  19.286  0.00  0.00    +0.000 NA
BRANCH  14  15
ATOM     15  C   UNL     1       2.704   5.506  19.885  0.00  0.00    +0.000 C 
BRANCH  15  16
ATOM     16  C   UNL     1       2.598   6.810  19.071  0.00  0.00    +0.000 C 
BRANCH  16  17
ATOM     17  C   UNL     1       1.804   7.872  19.781  0.00  0.00    +0.000 A 
ATOM     18  C   UNL     1       1.271   7.834  21.054  0.00  0.00    +0.000 A 
ATOM     19  C   UNL     1       0.518   9.004  21.360  0.00  0.00    +0.000 A 
ATOM     20  C   UNL     1       0.509   9.901  20.316  0.00  0.00    +0.000 A 
ATOM     21  S   UNL     1       1.412   9.336  18.979  0.00  0.00    +0.000 S 
ENDBRANCH  16  17
ENDBRANCH  15  16
ENDBRANCH  14  15
ENDBRANCH  12  14
ENDBRANCH   1  12
TORSDOF 6
ENDMDL
MODEL 9
REMARK VINA RESULT:      -5.6      2.087      2.822
REMARK  Name = 
REMARK  7 active torsions:
REMARK  status: ('A' for Active; 'I' for Inactive)
REMARK    1  A    between atoms: C_1  and  N_2
REMARK    2  A    between atoms: N_2  and  C_3
REMARK    3  A    between atoms: N_2  and  C_10
REMARK    4  A    between atoms: C_3  and  C_4
REMARK    5  A    between atoms: C_4  and  C_5
REMARK    6  A    between atoms: C_10  and  C_11
REMARK    7  A    between atoms: N_13  and  C_14
REMARK                            x       y       z     vdW  Elec       q    Type
REMARK                         _______ _______ _______ _____ _____    ______ ____
ROOT
ATOM      1  C   UNL     1       3.254   3.310  17.695  0.00  0.00    +0.000 C 
ATOM      2  O   UNL     1       2.434   3.715  16.876  0.00  0.00    +0.000 OA
ATOM      3  N   UNL     1       4.602   3.628  17.634  0.00  0.00    +0.000 N 
ATOM      4  H   UNL     1       5.113   3.475  18.501  0.00  0.00    +0.000 HD
ENDROOT
BRANCH   3   5
ATOM      5  C   UNL     1       5.095   4.535  16.605  0.00  0.00    +0.000 C 
ATOM      6  C   UNL     1       6.390   4.033  15.960  0.00  0.00    +0.000 C 
ATOM      7  C   UNL     1       7.527   4.436  16.880  0.00  0.00    +0.000 C 
ATOM      8  S   UNL     1       7.092   6.065  17.445  0.00  0.00    +0.000 S 
ATOM      9  O   UNL     1       7.663   7.033  16.528  0.00  0.00    +0.000 OA
ATOM     10  O   UNL     1       7.316   6.131  18.875  0.00  0.00    +0.000 OA
ATOM     11  C   UNL     1       5.340   5.952  17.128  0.00  0.00    +0.000 C 
ENDBRANCH   3   5
BRANCH   1  12
ATOM     12  C   UNL     1       2.877   2.359  18.833  0.00  0.00    +0.000 C 
BRANCH  12  14
ATOM     13  C   UNL     1       3.101   2.461  21.240  0.00  0.00    +0.000 C 
ATOM     14  N   UNL     1       2.481   3.095  20.060  0.00  0.00    +0.000 NA
BRANCH  14  15
ATOM     15  C   UNL     1       2.953   4.507  19.997  0.00  0.00    +0.000 C 
BRANCH  15  16
ATOM     16  C   UNL     1       1.954   5.534  20.562  0.00  0.00    +0.000 C 
BRANCH  16  17
ATOM     17  C   UNL     1       1.899   6.797  19.748  0.00  0.00    +0.000 A 
ATOM     18  C   UNL     1       2.222   6.971  18.417  0.00  0.00    +0.000 A 
ATOM     19  C   UNL     1       2.113   8.332  18.007  0.00  0.00    +0.000 A 
ATOM     20  C   UNL     1       1.702   9.149  19.035  0.00  0.00    +0.000 A 
ATOM     21  S   UNL     1       1.441   8.277  20.482  0.00  0.00    +0.000 S 
ENDBRANCH  16  17
ENDBRANCH  15  16
ENDBRANCH  14  15
ENDBRANCH  12  14
ENDBRANCH   1  12
TORSDOF 6
ENDMDL
