MODEL 1
REMARK VINA RESULT:      -6.0      0.000      0.000
REMARK  Name = 
REMARK  3 active torsions:
REMARK  status: ('A' for Active; 'I' for Inactive)
REMARK    1  A    between atoms: N_10  and  C_11
REMARK    2  A    between atoms: C_11  and  C_12
REMARK    3  A    between atoms: C_12  and  O_13
REMARK                            x       y       z     vdW  Elec       q    Type
REMARK                         _______ _______ _______ _____ _____    ______ ____
ROOT
ATOM      1  N   UNL     1       4.973   1.783  20.100  0.00  0.00    +0.000 N 
ATOM      2  C   UNL     1       4.577   2.933  19.538  0.00  0.00    +0.000 A 
ATOM      3  N   UNL     1       5.370   3.867  19.078  0.00  0.00    +0.000 NA
ATOM      4  C   UNL     1       4.541   4.862  18.623  0.00  0.00    +0.000 A 
ATOM      5  C   UNL     1       4.868   6.102  18.055  0.00  0.00    +0.000 A 
ATOM      6  C   UNL     1       3.831   6.966  17.678  0.00  0.00    +0.000 A 
ATOM      7  C   UNL     1       2.497   6.598  17.854  0.00  0.00    +0.000 A 
ATOM      8  C   UNL     1       2.151   5.361  18.412  0.00  0.00    +0.000 A 
ATOM      9  C   UNL     1       3.202   4.516  18.792  0.00  0.00    +0.000 A 
ATOM     10  N   UNL     1       3.253   3.269  19.375  0.00  0.00    +0.000 N 
ATOM     11  H   UNL     1       5.964   1.569  20.023  0.00  0.00    +0.000 HD
ATOM     12  H   UNL     1       4.381   0.956  20.088  0.00  0.00    +0.000 HD
ENDROOT
BRANCH  10  13
ATOM     13  C   UNL     1       2.111   2.473  19.786  0.00  0.00    +0.000 C 
BRANCH  13  14
ATOM     14  C   UNL     1       1.615   2.847  21.180  0.00  0.00    +0.000 C 
BRANCH  14  15
ATOM     15  O   UNL     1       2.588   2.550  22.180  0.00  0.00    +0.000 OA
ATOM     16  H   UNL     1       3.400   2.270  21.716  0.00  0.00    +0.000 HD
ENDBRANCH  14  15
ENDBRANCH  13  14
ENDBRANCH  10  13
TORSDOF 3
ENDMDL
MODEL 2
REMARK VINA RESULT:      -5.9      3.240      4.368
REMARK  Name = 
REMARK  3 active torsions:
REMARK  status: ('A' for Active; 'I' for Inactive)
REMARK    1  A    between atoms: N_10  and  C_11
REMARK    2  A    between atoms: C_11  and  C_12
REMARK    3  A    between atoms: C_12  and  O_13
REMARK                            x       y       z     vdW  Elec       q    Type
REMARK                         _______ _______ _______ _____ _____    ______ ____
ROOT
ATOM      1  N   UNL     1       7.643   4.439  18.039  0.00  0.00    +0.000 N 
ATOM      2  C   UNL     1       6.314   4.449  18.206  0.00  0.00    +0.000 A 
ATOM      3  N   UNL     1       5.690   4.703  19.328  0.00  0.00    +0.000 NA
ATOM      4  C   UNL     1       4.353   4.577  19.043  0.00  0.00    +0.000 A 
ATOM      5  C   UNL     1       3.245   4.717  19.892  0.00  0.00    +0.000 A 
ATOM      6  C   UNL     1       1.962   4.523  19.364  0.00  0.00    +0.000 A 
ATOM      7  C   UNL     1       1.786   4.205  18.017  0.00  0.00    +0.000 A 
ATOM      8  C   UNL     1       2.879   4.069  17.152  0.00  0.00    +0.000 A 
ATOM      9  C   UNL     1       4.154   4.256  17.702  0.00  0.00    +0.000 A 
ATOM     10  N   UNL     1       5.430   4.187  17.186  0.00  0.00    +0.000 N 
ATOM     11  H   UNL     1       8.190   4.802  18.815  0.00  0.00    +0.000 HD
ATOM     12  H   UNL     1       8.064   4.619  17.131  0.00  0.00    +0.000 HD
ENDROOT
BRANCH  10  13
ATOM     13  C   UNL     1       5.777   3.852  15.817  0.00  0.00    +0.000 C 
BRANCH  13  14
ATOM     14  C   UNL     1       6.095   5.088  14.980  0.00  0.00    +0.000 C 
BRANCH  14  15
ATOM     15  O   UNL     1       7.493   5.372  14.974  0.00  0.00    +0.000 OA
ATOM     16  H   UNL     1       7.910   4.772  15.622  0.00  0.00    +0.000 HD
ENDBRANCH  14  15
ENDBRANCH  13  14
ENDBRANCH  10  13
TORSDOF 3
ENDMDL
MODEL 3
REMARK VINA RESULT:      -5.8      3.760      5.152
REMARK  Name = 
REMARK  3 active torsions:
REMARK  status: ('A' for Active; 'I' for Inactive)
REMARK    1  A    between atoms: N_10  and  C_11
REMARK    2  A    between atoms: C_11  and  C_12
REMARK    3  A    between atoms: C_12  and  O_13
REMARK                            x       y       z     vdW  Elec       q    Type
REMARK                         _______ _______ _______ _____ _____    ______ ____
ROOT
ATOM      1  N   UNL     1       7.038   7.240  16.834  0.00  0.00    +0.000 N 
ATOM      2  C   UNL     1       5.900   6.562  17.036  0.00  0.00    +0.000 A 
ATOM      3  N   UNL     1       4.803   7.054  17.553  0.00  0.00    +0.000 NA
ATOM      4  C   UNL     1       3.915   6.009  17.594  0.00  0.00    +0.000 A 
ATOM      5  C   UNL     1       2.599   5.977  18.079  0.00  0.00    +0.000 A 
ATOM      6  C   UNL     1       1.888   4.772  18.026  0.00  0.00    +0.000 A 
ATOM      7  C   UNL     1       2.473   3.623  17.492  0.00  0.00    +0.000 A 
ATOM      8  C   UNL     1       3.782   3.636  16.995  0.00  0.00    +0.000 A 
ATOM      9  C   UNL     1       4.479   4.849  17.067  0.00  0.00    +0.000 A 
ATOM     10  N   UNL     1       5.753   5.235  16.709  0.00  0.00    +0.000 N 
ATOM     11  H   UNL     1       6.983   8.247  16.962  0.00  0.00    +0.000 HD
ATOM     12  H   UNL     1       7.701   6.962  16.115  0.00  0.00    +0.000 HD
ENDROOT
BRANCH  10  13
ATOM     13  C   UNL     1       6.771   4.376  16.133  0.00  0.00    +0.000 C 
BRANCH  13  14
ATOM     14  C   UNL     1       6.873   4.534  14.618  0.00  0.00    +0.000 C 
BRANCH  14  15
ATOM     15  O   UNL     1       7.801   5.556  14.259  0.00  0.00    +0.000 OA
ATOM     16  H   UNL     1       8.690   5.151  14.263  0.00  0.00    +0.000 HD
ENDBRANCH  14  15
ENDBRANCH  13  14
ENDBRANCH  10  13
TORSDOF 3
ENDMDL
MODEL 4
REMARK VINA RESULT:      -5.7      2.448      3.929
REMARK  Name = 
REMARK  3 active torsions:
REMARK  status: ('A' for Active; 'I' for Inactive)
REMARK    1  A    between atoms: N_10  and  C_11
REMARK    2  A    between atoms: C_11  and  C_12
REMARK    3  A    between atoms: C_12  and  O_13
REMARK                            x       y       z     vdW  Elec       q    Type
REMARK                         _______ _______ _______ _____ _____    ______ ____
ROOT
ATOM      1  N   UNL     1       5.272   3.292  16.461  0.00  0.00    +0.000 N 
ATOM      2  C   UNL     1       4.324   3.485  17.389  0.00  0.00    +0.000 A 
ATOM      3  N   UNL     1       3.305   2.694  17.609  0.00  0.00    +0.000 NA
ATOM      4  C   UNL     1       2.589   3.289  18.618  0.00  0.00    +0.000 A 
ATOM      5  C   UNL     1       1.393   2.877  19.224  0.00  0.00    +0.000 A 
ATOM      6  C   UNL     1       0.841   3.671  20.237  0.00  0.00    +0.000 A 
ATOM      7  C   UNL     1       1.473   4.846  20.646  0.00  0.00    +0.000 A 
ATOM      8  C   UNL     1       2.672   5.270  20.060  0.00  0.00    +0.000 A 
ATOM      9  C   UNL     1       3.202   4.467  19.041  0.00  0.00    +0.000 A 
ATOM     10  N   UNL     1       4.318   4.565  18.239  0.00  0.00    +0.000 N 
ATOM     11  H   UNL     1       5.266   2.385  16.002  0.00  0.00    +0.000 HD
ATOM     12  H   UNL     1       6.205   3.682  16.569  0.00  0.00    +0.000 HD
ENDROOT
BRANCH  10  13
ATOM     13  C   UNL     1       5.289   5.644  18.260  0.00  0.00    +0.000 C 
BRANCH  13  14
ATOM     14  C   UNL     1       6.511   5.308  19.110  0.00  0.00    +0.000 C 
BRANCH  14  15
ATOM     15  O   UNL     1       7.361   4.368  18.457  0.00  0.00    +0.000 OA
ATOM     16  H   UNL     1       7.994   4.879  17.918  0.00  0.00    +0.000 HD
ENDBRANCH  14  15
ENDBRANCH  13  14
ENDBRANCH  10  13
TORSDOF 3
ENDMDL
MODEL 5
REMARK VINA RESULT:      -5.7      2.635      4.247
REMARK  Name = 
REMARK  3 active torsions:
REMARK  status: ('A' for Active; 'I' for Inactive)
REMARK    1  A    between atoms: N_10  and  C_11
REMARK    2  A    between atoms: C_11  and  C_12
REMARK    3  A    between atoms: C_12  and  O_13
REMARK                            x       y       z     vdW  Elec       q    Type
REMARK                         _______ _______ _______ _____ _____    ______ ____
ROOT
ATOM      1  N   UNL     1       6.841   4.958  18.903  0.00  0.00    +0.000 N 
ATOM      2  C   UNL     1       5.579   4.510  18.853  0.00  0.00    +0.000 A 
ATOM      3  N   UNL     1       5.142   3.407  19.405  0.00  0.00    +0.000 NA
ATOM      4  C   UNL     1       3.810   3.335  19.079  0.00  0.00    +0.000 A 
ATOM      5  C   UNL     1       2.869   2.343  19.393  0.00  0.00    +0.000 A 
ATOM      6  C   UNL     1       1.556   2.488  18.929  0.00  0.00    +0.000 A 
ATOM      7  C   UNL     1       1.185   3.602  18.175  0.00  0.00    +0.000 A 
ATOM      8  C   UNL     1       2.108   4.607  17.858  0.00  0.00    +0.000 A 
ATOM      9  C   UNL     1       3.419   4.438  18.323  0.00  0.00    +0.000 A 
ATOM     10  N   UNL     1       4.573   5.180  18.199  0.00  0.00    +0.000 N 
ATOM     11  H   UNL     1       7.460   4.470  19.545  0.00  0.00    +0.000 HD
ATOM     12  H   UNL     1       7.056   5.948  18.813  0.00  0.00    +0.000 HD
ENDROOT
BRANCH  10  13
ATOM     13  C   UNL     1       4.709   6.426  17.467  0.00  0.00    +0.000 C 
BRANCH  13  14
ATOM     14  C   UNL     1       5.191   6.207  16.035  0.00  0.00    +0.000 C 
BRANCH  14  15
ATOM     15  O   UNL     1       6.614   6.209  15.955  0.00  0.00    +0.000 OA
ATOM     16  H   UNL     1       6.946   5.723  16.734  0.00  0.00    +0.000 HD
ENDBRANCH  14  15
ENDBRANCH  13  14
ENDBRANCH  10  13
TORSDOF 3
ENDMDL
MODEL 6
REMARK VINA RESULT:      -5.7      3.291      4.776
REMARK  Name = 
REMARK  3 active torsions:
REMARK  status: ('A' for Active; 'I' for Inactive)
REMARK    1  A    between atoms: N_10  and  C_11
REMARK    2  A    between atoms: C_11  and  C_12
REMARK    3  A    between atoms: C_12  and  O_13
REMARK                            x       y       z     vdW  Elec       q    Type
REMARK                         _______ _______ _______ _____ _____    ______ ____
ROOT
ATOM      1  N   UNL     1       7.376   5.625  18.081  0.00  0.00    +0.000 N 
ATOM      2  C   UNL     1       6.260   4.894  18.207  0.00  0.00    +0.000 A 
ATOM      3  N   UNL     1       5.925   4.192  19.259  0.00  0.00    +0.000 NA
ATOM      4  C   UNL     1       4.732   3.593  18.938  0.00  0.00    +0.000 A 
ATOM      5  C   UNL     1       3.945   2.713  19.696  0.00  0.00    +0.000 A 
ATOM      6  C   UNL     1       2.760   2.216  19.138  0.00  0.00    +0.000 A 
ATOM      7  C   UNL     1       2.363   2.595  17.856  0.00  0.00    +0.000 A 
ATOM      8  C   UNL     1       3.130   3.479  17.087  0.00  0.00    +0.000 A 
ATOM      9  C   UNL     1       4.317   3.956  17.658  0.00  0.00    +0.000 A 
ATOM     10  N   UNL     1       5.313   4.798  17.214  0.00  0.00    +0.000 N 
ATOM     11  H   UNL     1       7.920   5.752  18.930  0.00  0.00    +0.000 HD
ATOM     12  H   UNL     1       7.418   6.423  17.453  0.00  0.00    +0.000 HD
ENDROOT
BRANCH  10  13
ATOM     13  C   UNL     1       5.372   5.433  15.910  0.00  0.00    +0.000 C 
BRANCH  13  14
ATOM     14  C   UNL     1       6.324   4.714  14.958  0.00  0.00    +0.000 C 
BRANCH  14  15
ATOM     15  O   UNL     1       7.615   5.320  14.950  0.00  0.00    +0.000 OA
ATOM     16  H   UNL     1       8.218   4.706  14.489  0.00  0.00    +0.000 HD
ENDBRANCH  14  15
ENDBRANCH  13  14
ENDBRANCH  10  13
TORSDOF 3
ENDMDL
MODEL 7
REMARK VINA RESULT:      -5.6      2.488      4.079
REMARK  Name = 
REMARK  3 active torsions:
REMARK  status: ('A' for Active; 'I' for Inactive)
REMARK    1  A    between atoms: N_10  and  C_11
REMARK    2  A    between atoms: C_11  and  C_12
REMARK    3  A    between atoms: C_12  and  O_13
REMARK                            x       y       z     vdW  Elec       q    Type
REMARK                         _______ _______ _______ _____ _____    ______ ____
ROOT
ATOM      1  N   UNL     1       6.532   4.137  18.186  0.00  0.00    +0.000 N 
ATOM      2  C   UNL     1       5.314   3.973  18.720  0.00  0.00    +0.000 A 
ATOM      3  N   UNL     1       5.037   3.247  19.773  0.00  0.00    +0.000 NA
ATOM      4  C   UNL     1       3.678   3.346  19.941  0.00  0.00    +0.000 A 
ATOM      5  C   UNL     1       2.854   2.744  20.903  0.00  0.00    +0.000 A 
ATOM      6  C   UNL     1       1.476   2.988  20.860  0.00  0.00    +0.000 A 
ATOM      7  C   UNL     1       0.930   3.822  19.883  0.00  0.00    +0.000 A 
ATOM      8  C   UNL     1       1.737   4.439  18.919  0.00  0.00    +0.000 A 
ATOM      9  C   UNL     1       3.112   4.173  18.973  0.00  0.00    +0.000 A 
ATOM     10  N   UNL     1       4.186   4.568  18.206  0.00  0.00    +0.000 N 
ATOM     11  H   UNL     1       7.309   3.785  18.738  0.00  0.00    +0.000 HD
ATOM     12  H   UNL     1       6.766   4.966  17.646  0.00  0.00    +0.000 HD
ENDROOT
BRANCH  10  13
ATOM     13  C   UNL     1       4.127   5.425  17.036  0.00  0.00    +0.000 C 
BRANCH  13  14
ATOM     14  C   UNL     1       4.744   6.797  17.290  0.00  0.00    +0.000 C 
BRANCH  14  15
ATOM     15  O   UNL     1       6.026   6.917  16.676  0.00  0.00    +0.000 OA
ATOM     16  H   UNL     1       6.023   7.751  16.167  0.00  0.00    +0.000 HD
ENDBRANCH  14  15
ENDBRANCH  13  14
ENDBRANCH  10  13
TORSDOF 3
ENDMDL
MODEL 8
REMARK VINA RESULT:      -5.6      1.189      1.270
REMARK  Name = 
REMARK  3 active torsions:
REMARK  status: ('A' for Active; 'I' for Inactive)
REMARK    1  A    between atoms: N_10  and  C_11
REMARK    2  A    between atoms: C_11  and  C_12
REMARK    3  A    between atoms: C_12  and  O_13
REMARK                            x       y       z     vdW  Elec       q    Type
REMARK                         _______ _______ _______ _____ _____    ______ ____
ROOT
ATOM      1  N   UNL     1       4.762   2.007  19.998  0.00  0.00    +0.000 N 
ATOM      2  C   UNL     1       4.488   3.189  19.430  0.00  0.00    +0.000 A 
ATOM      3  N   UNL     1       5.330   3.914  18.738  0.00  0.00    +0.000 NA
ATOM      4  C   UNL     1       4.634   5.041  18.376  0.00  0.00    +0.000 A 
ATOM      5  C   UNL     1       5.067   6.158  17.646  0.00  0.00    +0.000 A 
ATOM      6  C   UNL     1       4.164   7.203  17.414  0.00  0.00    +0.000 A 
ATOM      7  C   UNL     1       2.854   7.133  17.890  0.00  0.00    +0.000 A 
ATOM      8  C   UNL     1       2.401   6.022  18.613  0.00  0.00    +0.000 A 
ATOM      9  C   UNL     1       3.322   4.992  18.844  0.00  0.00    +0.000 A 
ATOM     10  N   UNL     1       3.253   3.789  19.511  0.00  0.00    +0.000 N 
ATOM     11  H   UNL     1       5.651   1.586  19.740  0.00  0.00    +0.000 HD
ATOM     12  H   UNL     1       4.031   1.324  20.179  0.00  0.00    +0.000 HD
ENDROOT
BRANCH  10  13
ATOM     13  C   UNL     1       2.094   3.271  20.214  0.00  0.00    +0.000 C 
BRANCH  13  14
ATOM     14  C   UNL     1       1.126   2.548  19.282  0.00  0.00    +0.000 C 
BRANCH  14  15
ATOM     15  O   UNL     1       1.692   1.344  18.770  0.00  0.00    +0.000 OA
ATOM     16  H   UNL     1       2.136   1.569  17.930  0.00  0.00    +0.000 HD
ENDBRANCH  14  15
ENDBRANCH  13  14
ENDBRANCH  10  13
TORSDOF 3
ENDMDL
MODEL 9
REMARK VINA RESULT:      -5.6      2.702      4.253
REMARK  Name = 
REMARK  3 active torsions:
REMARK  status: ('A' for Active; 'I' for Inactive)
REMARK    1  A    between atoms: N_10  and  C_11
REMARK    2  A    between atoms: C_11  and  C_12
REMARK    3  A    between atoms: C_12  and  O_13
REMARK                            x       y       z     vdW  Elec       q    Type
REMARK                         _______ _______ _______ _____ _____    ______ ____
ROOT
ATOM      1  N   UNL     1       5.434   3.464  16.520  0.00  0.00    +0.000 N 
ATOM      2  C   UNL     1       4.447   3.540  17.423  0.00  0.00    +0.000 A 
ATOM      3  N   UNL     1       3.581   2.594  17.685  0.00  0.00    +0.000 NA
ATOM      4  C   UNL     1       2.749   3.112  18.646  0.00  0.00    +0.000 A 
ATOM      5  C   UNL     1       1.633   2.529  19.265  0.00  0.00    +0.000 A 
ATOM      6  C   UNL     1       0.925   3.272  20.218  0.00  0.00    +0.000 A 
ATOM      7  C   UNL     1       1.326   4.566  20.555  0.00  0.00    +0.000 A 
ATOM      8  C   UNL     1       2.443   5.161  19.954  0.00  0.00    +0.000 A 
ATOM      9  C   UNL     1       3.130   4.405  18.995  0.00  0.00    +0.000 A 
ATOM     10  N   UNL     1       4.228   4.653  18.200  0.00  0.00    +0.000 N 
ATOM     11  H   UNL     1       5.601   2.544  16.122  0.00  0.00    +0.000 HD
ATOM     12  H   UNL     1       6.279   4.023  16.611  0.00  0.00    +0.000 HD
ENDROOT
BRANCH  10  13
ATOM     13  C   UNL     1       4.988   5.889  18.160  0.00  0.00    +0.000 C 
BRANCH  13  14
ATOM     14  C   UNL     1       4.561   6.795  17.008  0.00  0.00    +0.000 C 
BRANCH  14  15
ATOM     15  O   UNL     1       5.394   6.616  15.865  0.00  0.00    +0.000 OA
ATOM     16  H   UNL     1       5.678   7.504  15.575  0.00  0.00    +0.000 HD
ENDBRANCH  14  15
ENDBRANCH  13  14
ENDBRANCH  10  13
TORSDOF 3
ENDMDL
