MODEL 1
REMARK VINA RESULT:      -7.8      0.000      0.000
REMARK  Name = 
REMARK  12 active torsions:
REMARK  status: ('A' for Active; 'I' for Inactive)
REMARK    1  A    between atoms: C_1  and  C_2
REMARK    2  A    between atoms: C_2  and  N_3
REMARK    3  A    between atoms: N_3  and  C_4
REMARK    4  A    between atoms: N_3  and  C_6
REMARK    5  A    between atoms: C_4  and  C_5
REMARK    6  A    between atoms: C_7  and  O_8
REMARK    7  A    between atoms: C_12  and  C_13
REMARK    8  A    between atoms: C_13  and  C_14
REMARK    9  A    between atoms: C_20  and  O_21
REMARK   10  A    between atoms: O_21  and  C_22
REMARK   11  A    between atoms: C_23  and  O_24
REMARK   12  A    between atoms: O_24  and  C_25
REMARK                            x       y       z     vdW  Elec       q    Type
REMARK                         _______ _______ _______ _____ _____    ______ ____
ROOT
ATOM      1  C   UNL     1       3.352   7.945  17.457  0.00  0.00    +0.000 C 
ENDROOT
BRANCH   1   2
ATOM      2  C   UNL     1       1.868   8.203  18.257  0.00  0.00    +0.000 C 
ATOM      3  O   UNL     1       1.194   9.032  17.283  0.00  0.00    +0.000 OA
ATOM      4  C   UNL     1       0.321   9.712  18.008  0.00  0.00    +0.000 C 
ATOM      5  O   UNL     1      -0.882   9.777  17.924  0.00  0.00    +0.000 OA
ATOM      6  C   UNL     1       1.137   9.909  19.164  0.00  0.00    +0.000 A 
ATOM      7  C   UNL     1       1.219  11.245  19.608  0.00  0.00    +0.000 A 
ATOM      8  C   UNL     1       1.196  11.533  20.943  0.00  0.00    +0.000 A 
ATOM      9  C   UNL     1       0.704  10.479  21.670  0.00  0.00    +0.000 A 
ATOM     10  C   UNL     1       0.804   9.122  20.982  0.00  0.00    +0.000 A 
ATOM     11  C   UNL     1       1.288   8.672  19.714  0.00  0.00    +0.000 A 
BRANCH   8  12
ATOM     12  O   UNL     1       1.466  12.792  21.391  0.00  0.00    +0.000 OA
ATOM     13  C   UNL     1       2.444  13.449  20.551  0.00  0.00    +0.000 C 
ENDBRANCH   8  12
BRANCH   9  14
ATOM     14  O   UNL     1       0.042  10.761  22.864  0.00  0.00    +0.000 OA
ATOM     15  C   UNL     1      -1.333  11.172  22.842  0.00  0.00    +0.000 C 
ENDBRANCH   9  14
ENDBRANCH   1   2
BRANCH   1  21
ATOM     16  C   UNL     1       4.394   5.522  18.342  0.00  0.00    +0.000 A 
ATOM     17  C   UNL     1       5.572   4.682  18.587  0.00  0.00    +0.000 A 
ATOM     18  C   UNL     1       6.837   5.019  18.187  0.00  0.00    +0.000 A 
ATOM     19  C   UNL     1       6.944   6.172  17.438  0.00  0.00    +0.000 A 
ATOM     20  C   UNL     1       5.831   7.039  17.188  0.00  0.00    +0.000 A 
ATOM     21  C   UNL     1       4.536   6.824  17.689  0.00  0.00    +0.000 A 
BRANCH  17  22
ATOM     22  O   UNL     1       5.537   3.424  19.159  0.00  0.00    +0.000 OA
ATOM     23  H   UNL     1       4.600   3.192  19.177  0.00  0.00    +0.000 HD
ENDBRANCH  17  22
BRANCH  16  24
ATOM     24  N   UNL     1       3.140   4.975  18.712  0.00  0.00    +0.000 N 
BRANCH  24  26
ATOM     25  C   UNL     1       1.413   4.788  20.582  0.00  0.00    +0.000 C 
ATOM     26  C   UNL     1       2.830   5.017  20.137  0.00  0.00    +0.000 C 
ENDBRANCH  24  26
BRANCH  24  27
ATOM     27  C   UNL     1       2.409   4.277  17.645  0.00  0.00    +0.000 C 
ATOM     28  C   UNL     1       2.431   2.783  17.669  0.00  0.00    +0.000 C 
ENDBRANCH  24  27
ENDBRANCH  16  24
ENDBRANCH   1  21
TORSDOF 8
ENDMDL
MODEL 2
REMARK VINA RESULT:      -7.8      0.156      1.262
REMARK  Name = 
REMARK  12 active torsions:
REMARK  status: ('A' for Active; 'I' for Inactive)
REMARK    1  A    between atoms: C_1  and  C_2
REMARK    2  A    between atoms: C_2  and  N_3
REMARK    3  A    between atoms: N_3  and  C_4
REMARK    4  A    between atoms: N_3  and  C_6
REMARK    5  A    between atoms: C_4  and  C_5
REMARK    6  A    between atoms: C_7  and  O_8
REMARK    7  A    between atoms: C_12  and  C_13
REMARK    8  A    between atoms: C_13  and  C_14
REMARK    9  A    between atoms: C_20  and  O_21
REMARK   10  A    between atoms: O_21  and  C_22
REMARK   11  A    between atoms: C_23  and  O_24
REMARK   12  A    between atoms: O_24  and  C_25
REMARK                            x       y       z     vdW  Elec       q    Type
REMARK                         _______ _______ _______ _____ _____    ______ ____
ROOT
ATOM      1  C   UNL     1       3.460   8.007  17.527  0.00  0.00    +0.000 C 
ENDROOT
BRANCH   1   2
ATOM      2  C   UNL     1       1.955   8.257  18.288  0.00  0.00    +0.000 C 
ATOM      3  O   UNL     1       1.289   9.050  17.281  0.00  0.00    +0.000 OA
ATOM      4  C   UNL     1       0.387   9.731  17.970  0.00  0.00    +0.000 C 
ATOM      5  O   UNL     1      -0.814   9.772  17.859  0.00  0.00    +0.000 OA
ATOM      6  C   UNL     1       1.174   9.969  19.139  0.00  0.00    +0.000 A 
ATOM      7  C   UNL     1       1.223  11.317  19.553  0.00  0.00    +0.000 A 
ATOM      8  C   UNL     1       1.165  11.635  20.880  0.00  0.00    +0.000 A 
ATOM      9  C   UNL     1       0.676  10.589  21.621  0.00  0.00    +0.000 A 
ATOM     10  C   UNL     1       0.815   9.218  20.967  0.00  0.00    +0.000 A 
ATOM     11  C   UNL     1       1.335   8.748  19.721  0.00  0.00    +0.000 A 
BRANCH   8  12
ATOM     12  O   UNL     1       1.402  12.909  21.304  0.00  0.00    +0.000 OA
ATOM     13  C   UNL     1       2.630  13.428  20.742  0.00  0.00    +0.000 C 
ENDBRANCH   8  12
BRANCH   9  14
ATOM     14  O   UNL     1      -0.017  10.886  22.793  0.00  0.00    +0.000 OA
ATOM     15  C   UNL     1      -1.387  11.314  22.729  0.00  0.00    +0.000 C 
ENDBRANCH   9  14
ENDBRANCH   1   2
BRANCH   1  21
ATOM     16  C   UNL     1       4.431   5.546  18.387  0.00  0.00    +0.000 A 
ATOM     17  C   UNL     1       5.582   4.662  18.603  0.00  0.00    +0.000 A 
ATOM     18  C   UNL     1       6.849   4.951  18.173  0.00  0.00    +0.000 A 
ATOM     19  C   UNL     1       6.981   6.100  17.423  0.00  0.00    +0.000 A 
ATOM     20  C   UNL     1       5.897   7.009  17.199  0.00  0.00    +0.000 A 
ATOM     21  C   UNL     1       4.607   6.843  17.730  0.00  0.00    +0.000 A 
BRANCH  17  22
ATOM     22  O   UNL     1       5.513   3.405  19.175  0.00  0.00    +0.000 OA
ATOM     23  H   UNL     1       6.400   3.039  19.064  0.00  0.00    +0.000 HD
ENDBRANCH  17  22
BRANCH  16  24
ATOM     24  N   UNL     1       3.167   5.046  18.785  0.00  0.00    +0.000 N 
BRANCH  24  26
ATOM     25  C   UNL     1       2.439   3.060  17.356  0.00  0.00    +0.000 C 
ATOM     26  C   UNL     1       2.332   4.516  17.712  0.00  0.00    +0.000 C 
ENDBRANCH  24  26
BRANCH  24  27
ATOM     27  C   UNL     1       2.792   5.298  20.184  0.00  0.00    +0.000 C 
ATOM     28  C   UNL     1       1.405   4.926  20.595  0.00  0.00    +0.000 C 
ENDBRANCH  24  27
ENDBRANCH  16  24
ENDBRANCH   1  21
TORSDOF 8
ENDMDL
MODEL 3
REMARK VINA RESULT:      -7.7      1.101      1.101
REMARK  Name = 
REMARK  12 active torsions:
REMARK  status: ('A' for Active; 'I' for Inactive)
REMARK    1  A    between atoms: C_1  and  C_2
REMARK    2  A    between atoms: C_2  and  N_3
REMARK    3  A    between atoms: N_3  and  C_4
REMARK    4  A    between atoms: N_3  and  C_6
REMARK    5  A    between atoms: C_4  and  C_5
REMARK    6  A    between atoms: C_7  and  O_8
REMARK    7  A    between atoms: C_12  and  C_13
REMARK    8  A    between atoms: C_13  and  C_14
REMARK    9  A    between atoms: C_20  and  O_21
REMARK   10  A    between atoms: O_21  and  C_22
REMARK   11  A    between atoms: C_23  and  O_24
REMARK   12  A    between atoms: O_24  and  C_25
REMARK                            x       y       z     vdW  Elec       q    Type
REMARK                         _______ _______ _______ _____ _____    ______ ____
ROOT
ATOM      1  C   UNL     1       3.520   7.924  17.794  0.00  0.00    +0.000 C 
ENDROOT
BRANCH   1   2
ATOM      2  C   UNL     1       1.979   8.238  18.455  0.00  0.00    +0.000 C 
ATOM      3  O   UNL     1       1.402   9.028  17.391  0.00  0.00    +0.000 OA
ATOM      4  C   UNL     1       0.483   9.753  18.009  0.00  0.00    +0.000 C 
ATOM      5  O   UNL     1      -0.707   9.828  17.822  0.00  0.00    +0.000 OA
ATOM      6  C   UNL     1       1.203   9.992  19.220  0.00  0.00    +0.000 A 
ATOM      7  C   UNL     1       1.270  11.347  19.607  0.00  0.00    +0.000 A 
ATOM      8  C   UNL     1       1.141  11.697  20.921  0.00  0.00    +0.000 A 
ATOM      9  C   UNL     1       0.574  10.684  21.652  0.00  0.00    +0.000 A 
ATOM     10  C   UNL     1       0.709   9.295  21.036  0.00  0.00    +0.000 A 
ATOM     11  C   UNL     1       1.289   8.781  19.835  0.00  0.00    +0.000 A 
BRANCH   8  12
ATOM     12  O   UNL     1       1.393  12.972  21.333  0.00  0.00    +0.000 OA
ATOM     13  C   UNL     1       0.774  13.939  20.451  0.00  0.00    +0.000 C 
ENDBRANCH   8  12
BRANCH   9  14
ATOM     14  O   UNL     1      -0.180  11.029  22.773  0.00  0.00    +0.000 OA
ATOM     15  C   UNL     1      -1.491  11.591  22.610  0.00  0.00    +0.000 C 
ENDBRANCH   9  14
ENDBRANCH   1   2
BRANCH   1  21
ATOM     16  C   UNL     1       3.920   5.179  17.582  0.00  0.00    +0.000 A 
ATOM     17  C   UNL     1       4.677   4.068  16.995  0.00  0.00    +0.000 A 
ATOM     18  C   UNL     1       5.606   4.226  16.002  0.00  0.00    +0.000 A 
ATOM     19  C   UNL     1       5.733   5.502  15.496  0.00  0.00    +0.000 A 
ATOM     20  C   UNL     1       5.035   6.626  16.045  0.00  0.00    +0.000 A 
ATOM     21  C   UNL     1       4.176   6.556  17.154  0.00  0.00    +0.000 A 
BRANCH  17  22
ATOM     22  O   UNL     1       4.483   2.734  17.303  0.00  0.00    +0.000 OA
ATOM     23  H   UNL     1       4.391   2.718  18.264  0.00  0.00    +0.000 HD
ENDBRANCH  17  22
BRANCH  16  24
ATOM     24  N   UNL     1       2.911   4.835  18.514  0.00  0.00    +0.000 N 
BRANCH  24  26
ATOM     25  C   UNL     1       2.259   5.023  20.975  0.00  0.00    +0.000 C 
ATOM     26  C   UNL     1       3.313   4.861  19.917  0.00  0.00    +0.000 C 
ENDBRANCH  24  26
BRANCH  24  27
ATOM     27  C   UNL     1       1.659   4.320  17.940  0.00  0.00    +0.000 C 
ATOM     28  C   UNL     1       1.236   2.948  18.351  0.00  0.00    +0.000 C 
ENDBRANCH  24  27
ENDBRANCH  16  24
ENDBRANCH   1  21
TORSDOF 8
ENDMDL
MODEL 4
REMARK VINA RESULT:      -7.5      1.868      3.142
REMARK  Name = 
REMARK  12 active torsions:
REMARK  status: ('A' for Active; 'I' for Inactive)
REMARK    1  A    between atoms: C_1  and  C_2
REMARK    2  A    between atoms: C_2  and  N_3
REMARK    3  A    between atoms: N_3  and  C_4
REMARK    4  A    between atoms: N_3  and  C_6
REMARK    5  A    between atoms: C_4  and  C_5
REMARK    6  A    between atoms: C_7  and  O_8
REMARK    7  A    between atoms: C_12  and  C_13
REMARK    8  A    between atoms: C_13  and  C_14
REMARK    9  A    between atoms: C_20  and  O_21
REMARK   10  A    between atoms: O_21  and  C_22
REMARK   11  A    between atoms: C_23  and  O_24
REMARK   12  A    between atoms: O_24  and  C_25
REMARK                            x       y       z     vdW  Elec       q    Type
REMARK                         _______ _______ _______ _____ _____    ______ ____
ROOT
ATOM      1  C   UNL     1       2.270   7.378  18.187  0.00  0.00    +0.000 C 
ENDROOT
BRANCH   1   2
ATOM      2  C   UNL     1       2.047   8.834  19.047  0.00  0.00    +0.000 C 
ATOM      3  O   UNL     1       1.328   8.340  20.200  0.00  0.00    +0.000 OA
ATOM      4  C   UNL     1       0.653   9.399  20.619  0.00  0.00    +0.000 C 
ATOM      5  O   UNL     1       0.666   9.961  21.687  0.00  0.00    +0.000 OA
ATOM      6  C   UNL     1       0.330   9.944  19.339  0.00  0.00    +0.000 A 
ATOM      7  C   UNL     1      -1.037  10.242  19.152  0.00  0.00    +0.000 A 
ATOM      8  C   UNL     1      -1.413  11.379  18.497  0.00  0.00    +0.000 A 
ATOM      9  C   UNL     1      -0.384  12.284  18.441  0.00  0.00    +0.000 A 
ATOM     10  C   UNL     1       1.009  11.683  18.600  0.00  0.00    +0.000 A 
ATOM     11  C   UNL     1       1.515  10.364  18.815  0.00  0.00    +0.000 A 
BRANCH   8  12
ATOM     12  O   UNL     1      -2.714  11.584  18.143  0.00  0.00    +0.000 OA
ATOM     13  C   UNL     1      -2.964  11.137  16.790  0.00  0.00    +0.000 C 
ENDBRANCH   8  12
BRANCH   9  14
ATOM     14  O   UNL     1      -0.707  13.640  18.400  0.00  0.00    +0.000 OA
ATOM     15  C   UNL     1      -0.667  14.424  19.603  0.00  0.00    +0.000 C 
ENDBRANCH   9  14
ENDBRANCH   1   2
BRANCH   1  21
ATOM     16  C   UNL     1       3.548   4.974  18.759  0.00  0.00    +0.000 A 
ATOM     17  C   UNL     1       4.784   4.183  18.757  0.00  0.00    +0.000 A 
ATOM     18  C   UNL     1       5.947   4.599  18.166  0.00  0.00    +0.000 A 
ATOM     19  C   UNL     1       5.876   5.787  17.470  0.00  0.00    +0.000 A 
ATOM     20  C   UNL     1       4.701   6.608  17.456  0.00  0.00    +0.000 A 
ATOM     21  C   UNL     1       3.522   6.309  18.157  0.00  0.00    +0.000 A 
BRANCH  17  22
ATOM     22  O   UNL     1       4.900   2.902  19.262  0.00  0.00    +0.000 OA
ATOM     23  H   UNL     1       5.789   2.869  19.637  0.00  0.00    +0.000 HD
ENDBRANCH  17  22
BRANCH  16  24
ATOM     24  N   UNL     1       2.400   4.351  19.307  0.00  0.00    +0.000 N 
BRANCH  24  26
ATOM     25  C   UNL     1       0.834   2.407  18.772  0.00  0.00    +0.000 C 
ATOM     26  C   UNL     1       1.537   3.665  18.350  0.00  0.00    +0.000 C 
ENDBRANCH  24  26
BRANCH  24  27
ATOM     27  C   UNL     1       2.135   4.634  20.725  0.00  0.00    +0.000 C 
ATOM     28  C   UNL     1       2.233   3.488  21.678  0.00  0.00    +0.000 C 
ENDBRANCH  24  27
ENDBRANCH  16  24
ENDBRANCH   1  21
TORSDOF 8
ENDMDL
MODEL 5
REMARK VINA RESULT:      -7.4      2.676      7.724
REMARK  Name = 
REMARK  12 active torsions:
REMARK  status: ('A' for Active; 'I' for Inactive)
REMARK    1  A    between atoms: C_1  and  C_2
REMARK    2  A    between atoms: C_2  and  N_3
REMARK    3  A    between atoms: N_3  and  C_4
REMARK    4  A    between atoms: N_3  and  C_6
REMARK    5  A    between atoms: C_4  and  C_5
REMARK    6  A    between atoms: C_7  and  O_8
REMARK    7  A    between atoms: C_12  and  C_13
REMARK    8  A    between atoms: C_13  and  C_14
REMARK    9  A    between atoms: C_20  and  O_21
REMARK   10  A    between atoms: O_21  and  C_22
REMARK   11  A    between atoms: C_23  and  O_24
REMARK   12  A    between atoms: O_24  and  C_25
REMARK                            x       y       z     vdW  Elec       q    Type
REMARK                         _______ _______ _______ _____ _____    ______ ____
ROOT
ATOM      1  C   UNL     1       1.251   9.248  17.662  0.00  0.00    +0.000 C 
ENDROOT
BRANCH   1   2
ATOM      2  C   UNL     1       2.201   8.229  18.646  0.00  0.00    +0.000 C 
ATOM      3  O   UNL     1       3.193   7.802  17.686  0.00  0.00    +0.000 OA
ATOM      4  C   UNL     1       3.609   6.641  18.169  0.00  0.00    +0.000 C 
ATOM      5  O   UNL     1       4.716   6.280  18.489  0.00  0.00    +0.000 OA
ATOM      6  C   UNL     1       2.352   6.169  18.655  0.00  0.00    +0.000 A 
ATOM      7  C   UNL     1       2.005   4.869  18.230  0.00  0.00    +0.000 A 
ATOM      8  C   UNL     1       1.411   3.995  19.095  0.00  0.00    +0.000 A 
ATOM      9  C   UNL     1       1.581   4.391  20.397  0.00  0.00    +0.000 A 
ATOM     10  C   UNL     1       1.876   5.876  20.584  0.00  0.00    +0.000 A 
ATOM     11  C   UNL     1       2.038   6.986  19.698  0.00  0.00    +0.000 A 
BRANCH   8  12
ATOM     12  O   UNL     1       0.900   2.811  18.651  0.00  0.00    +0.000 OA
ATOM     13  C   UNL     1       1.921   2.004  18.020  0.00  0.00    +0.000 C 
ENDBRANCH   8  12
BRANCH   9  14
ATOM     14  O   UNL     1       1.619   3.404  21.381  0.00  0.00    +0.000 OA
ATOM     15  C   UNL     1       2.789   2.584  21.530  0.00  0.00    +0.000 C 
ENDBRANCH   9  14
ENDBRANCH   1   2
BRANCH   1  21
ATOM     16  C   UNL     1      -0.285  11.259  18.819  0.00  0.00    +0.000 A 
ATOM     17  C   UNL     1      -1.614  11.814  19.097  0.00  0.00    +0.000 A 
ATOM     18  C   UNL     1      -2.770  11.315  18.558  0.00  0.00    +0.000 A 
ATOM     19  C   UNL     1      -2.615  10.298  17.641  0.00  0.00    +0.000 A 
ATOM     20  C   UNL     1      -1.343   9.706  17.348  0.00  0.00    +0.000 A 
ATOM     21  C   UNL     1      -0.139  10.075  17.969  0.00  0.00    +0.000 A 
BRANCH  17  22
ATOM     22  O   UNL     1      -1.852  12.948  19.851  0.00  0.00    +0.000 OA
ATOM     23  H   UNL     1      -1.610  12.695  20.751  0.00  0.00    +0.000 HD
ENDBRANCH  17  22
BRANCH  16  24
ATOM     24  N   UNL     1       0.820  11.964  19.357  0.00  0.00    +0.000 N 
BRANCH  24  26
ATOM     25  C   UNL     1       0.692  10.359  21.338  0.00  0.00    +0.000 C 
ATOM     26  C   UNL     1       1.138  11.668  20.750  0.00  0.00    +0.000 C 
ENDBRANCH  24  26
BRANCH  24  27
ATOM     27  C   UNL     1       1.375  13.027  18.507  0.00  0.00    +0.000 C 
ATOM     28  C   UNL     1       2.751  13.509  18.832  0.00  0.00    +0.000 C 
ENDBRANCH  24  27
ENDBRANCH  16  24
ENDBRANCH   1  21
TORSDOF 8
ENDMDL
MODEL 6
REMARK VINA RESULT:      -7.4      2.284      7.857
REMARK  Name = 
REMARK  12 active torsions:
REMARK  status: ('A' for Active; 'I' for Inactive)
REMARK    1  A    between atoms: C_1  and  C_2
REMARK    2  A    between atoms: C_2  and  N_3
REMARK    3  A    between atoms: N_3  and  C_4
REMARK    4  A    between atoms: N_3  and  C_6
REMARK    5  A    between atoms: C_4  and  C_5
REMARK    6  A    between atoms: C_7  and  O_8
REMARK    7  A    between atoms: C_12  and  C_13
REMARK    8  A    between atoms: C_13  and  C_14
REMARK    9  A    between atoms: C_20  and  O_21
REMARK   10  A    between atoms: O_21  and  C_22
REMARK   11  A    between atoms: C_23  and  O_24
REMARK   12  A    between atoms: O_24  and  C_25
REMARK                            x       y       z     vdW  Elec       q    Type
REMARK                         _______ _______ _______ _____ _____    ______ ____
ROOT
ATOM      1  C   UNL     1       1.795   8.277  20.998  0.00  0.00    +0.000 C 
ENDROOT
BRANCH   1   2
ATOM      2  C   UNL     1       1.952   7.296  19.612  0.00  0.00    +0.000 C 
ATOM      3  O   UNL     1       1.591   6.011  20.166  0.00  0.00    +0.000 OA
ATOM      4  C   UNL     1       2.196   5.149  19.365  0.00  0.00    +0.000 C 
ATOM      5  O   UNL     1       1.741   4.253  18.697  0.00  0.00    +0.000 OA
ATOM      6  C   UNL     1       3.395   5.894  19.144  0.00  0.00    +0.000 A 
ATOM      7  C   UNL     1       4.587   5.175  19.371  0.00  0.00    +0.000 A 
ATOM      8  C   UNL     1       5.656   5.328  18.535  0.00  0.00    +0.000 A 
ATOM      9  C   UNL     1       5.279   5.893  17.344  0.00  0.00    +0.000 A 
ATOM     10  C   UNL     1       3.977   6.685  17.392  0.00  0.00    +0.000 A 
ATOM     11  C   UNL     1       3.016   6.977  18.410  0.00  0.00    +0.000 A 
BRANCH   8  12
ATOM     12  O   UNL     1       6.870   4.791  18.849  0.00  0.00    +0.000 OA
ATOM     13  C   UNL     1       7.799   5.813  19.279  0.00  0.00    +0.000 C 
ENDBRANCH   8  12
BRANCH   9  14
ATOM     14  O   UNL     1       6.016   5.571  16.205  0.00  0.00    +0.000 OA
ATOM     15  C   UNL     1       5.636   4.446  15.398  0.00  0.00    +0.000 C 
ENDBRANCH   9  14
ENDBRANCH   1   2
BRANCH   1  21
ATOM     16  C   UNL     1       0.122  10.462  20.586  0.00  0.00    +0.000 A 
ATOM     17  C   UNL     1      -0.799  11.455  21.150  0.00  0.00    +0.000 A 
ATOM     18  C   UNL     1      -1.252  11.420  22.441  0.00  0.00    +0.000 A 
ATOM     19  C   UNL     1      -0.866  10.324  23.183  0.00  0.00    +0.000 A 
ATOM     20  C   UNL     1       0.047   9.336  22.690  0.00  0.00    +0.000 A 
ATOM     21  C   UNL     1       0.658   9.388  21.426  0.00  0.00    +0.000 A 
BRANCH  17  22
ATOM     22  O   UNL     1      -1.387  12.479  20.432  0.00  0.00    +0.000 OA
ATOM     23  H   UNL     1      -2.187  12.086  20.060  0.00  0.00    +0.000 HD
ENDBRANCH  17  22
BRANCH  16  24
ATOM     24  N   UNL     1       0.399  10.570  19.201  0.00  0.00    +0.000 N 
BRANCH  24  26
ATOM     25  C   UNL     1      -1.622  10.524  17.643  0.00  0.00    +0.000 C 
ATOM     26  C   UNL     1      -0.485   9.813  18.321  0.00  0.00    +0.000 C 
ENDBRANCH  24  26
BRANCH  24  27
ATOM     27  C   UNL     1       1.642  11.272  18.851  0.00  0.00    +0.000 C 
ATOM     28  C   UNL     1       1.565  12.756  18.695  0.00  0.00    +0.000 C 
ENDBRANCH  24  27
ENDBRANCH  16  24
ENDBRANCH   1  21
TORSDOF 8
ENDMDL
MODEL 7
REMARK VINA RESULT:      -7.4      2.650      7.694
REMARK  Name = 
REMARK  12 active torsions:
REMARK  status: ('A' for Active; 'I' for Inactive)
REMARK    1  A    between atoms: C_1  and  C_2
REMARK    2  A    between atoms: C_2  and  N_3
REMARK    3  A    between atoms: N_3  and  C_4
REMARK    4  A    between atoms: N_3  and  C_6
REMARK    5  A    between atoms: C_4  and  C_5
REMARK    6  A    between atoms: C_7  and  O_8
REMARK    7  A    between atoms: C_12  and  C_13
REMARK    8  A    between atoms: C_13  and  C_14
REMARK    9  A    between atoms: C_20  and  O_21
REMARK   10  A    between atoms: O_21  and  C_22
REMARK   11  A    between atoms: C_23  and  O_24
REMARK   12  A    between atoms: O_24  and  C_25
REMARK                            x       y       z     vdW  Elec       q    Type
REMARK                         _______ _______ _______ _____ _____    ______ ____
ROOT
ATOM      1  C   UNL     1       1.436   9.256  17.796  0.00  0.00    +0.000 C 
ENDROOT
BRANCH   1   2
ATOM      2  C   UNL     1       2.320   8.144  18.740  0.00  0.00    +0.000 C 
ATOM      3  O   UNL     1       3.333   7.751  17.787  0.00  0.00    +0.000 OA
ATOM      4  C   UNL     1       3.698   6.548  18.203  0.00  0.00    +0.000 C 
ATOM      5  O   UNL     1       4.781   6.132  18.535  0.00  0.00    +0.000 OA
ATOM      6  C   UNL     1       2.410   6.084  18.612  0.00  0.00    +0.000 A 
ATOM      7  C   UNL     1       2.041   4.828  18.087  0.00  0.00    +0.000 A 
ATOM      8  C   UNL     1       1.391   3.916  18.870  0.00  0.00    +0.000 A 
ATOM      9  C   UNL     1       1.525   4.218  20.200  0.00  0.00    +0.000 A 
ATOM     10  C   UNL     1       1.856   5.676  20.499  0.00  0.00    +0.000 A 
ATOM     11  C   UNL     1       2.082   6.838  19.698  0.00  0.00    +0.000 A 
BRANCH   8  12
ATOM     12  O   UNL     1       0.862   2.782  18.328  0.00  0.00    +0.000 OA
ATOM     13  C   UNL     1       1.897   1.822  18.009  0.00  0.00    +0.000 C 
ENDBRANCH   8  12
BRANCH   9  14
ATOM     14  O   UNL     1       1.499   3.165  21.115  0.00  0.00    +0.000 OA
ATOM     15  C   UNL     1       2.729   2.578  21.569  0.00  0.00    +0.000 C 
ENDBRANCH   9  14
ENDBRANCH   1   2
BRANCH   1  21
ATOM     16  C   UNL     1      -0.330  10.976  19.087  0.00  0.00    +0.000 A 
ATOM     17  C   UNL     1      -1.707  11.451  19.266  0.00  0.00    +0.000 A 
ATOM     18  C   UNL     1      -2.751  11.061  18.471  0.00  0.00    +0.000 A 
ATOM     19  C   UNL     1      -2.424  10.254  17.403  0.00  0.00    +0.000 A 
ATOM     20  C   UNL     1      -1.101   9.745  17.192  0.00  0.00    +0.000 A 
ATOM     21  C   UNL     1      -0.016   9.991  18.049  0.00  0.00    +0.000 A 
BRANCH  17  22
ATOM     22  O   UNL     1      -2.097  12.405  20.188  0.00  0.00    +0.000 OA
ATOM     23  H   UNL     1      -1.404  12.389  20.861  0.00  0.00    +0.000 HD
ENDBRANCH  17  22
BRANCH  16  24
ATOM     24  N   UNL     1       0.656  11.566  19.916  0.00  0.00    +0.000 N 
BRANCH  24  26
ATOM     25  C   UNL     1       1.240  13.540  18.406  0.00  0.00    +0.000 C 
ATOM     26  C   UNL     1       1.670  12.356  19.225  0.00  0.00    +0.000 C 
ENDBRANCH  24  26
BRANCH  24  27
ATOM     27  C   UNL     1       0.633  11.154  21.327  0.00  0.00    +0.000 C 
ATOM     28  C   UNL     1       0.783   9.696  21.612  0.00  0.00    +0.000 C 
ENDBRANCH  24  27
ENDBRANCH  16  24
ENDBRANCH   1  21
TORSDOF 8
ENDMDL
MODEL 8
REMARK VINA RESULT:      -7.4      2.395      8.041
REMARK  Name = 
REMARK  12 active torsions:
REMARK  status: ('A' for Active; 'I' for Inactive)
REMARK    1  A    between atoms: C_1  and  C_2
REMARK    2  A    between atoms: C_2  and  N_3
REMARK    3  A    between atoms: N_3  and  C_4
REMARK    4  A    between atoms: N_3  and  C_6
REMARK    5  A    between atoms: C_4  and  C_5
REMARK    6  A    between atoms: C_7  and  O_8
REMARK    7  A    between atoms: C_12  and  C_13
REMARK    8  A    between atoms: C_13  and  C_14
REMARK    9  A    between atoms: C_20  and  O_21
REMARK   10  A    between atoms: O_21  and  C_22
REMARK   11  A    between atoms: C_23  and  O_24
REMARK   12  A    between atoms: O_24  and  C_25
REMARK                            x       y       z     vdW  Elec       q    Type
REMARK                         _______ _______ _______ _____ _____    ______ ____
ROOT
ATOM      1  C   UNL     1       2.041   8.396  19.683  0.00  0.00    +0.000 C 
ENDROOT
BRANCH   1   2
ATOM      2  C   UNL     1       2.131   6.783  19.137  0.00  0.00    +0.000 C 
ATOM      3  O   UNL     1       2.194   6.088  20.403  0.00  0.00    +0.000 OA
ATOM      4  C   UNL     1       2.802   4.952  20.102  0.00  0.00    +0.000 C 
ATOM      5  O   UNL     1       2.436   3.810  20.239  0.00  0.00    +0.000 OA
ATOM      6  C   UNL     1       3.728   5.473  19.146  0.00  0.00    +0.000 A 
ATOM      7  C   UNL     1       5.073   5.114  19.372  0.00  0.00    +0.000 A 
ATOM      8  C   UNL     1       5.885   4.784  18.324  0.00  0.00    +0.000 A 
ATOM      9  C   UNL     1       5.154   4.479  17.205  0.00  0.00    +0.000 A 
ATOM     10  C   UNL     1       3.744   5.059  17.181  0.00  0.00    +0.000 A 
ATOM     11  C   UNL     1       2.971   5.857  18.081  0.00  0.00    +0.000 A 
BRANCH   8  12
ATOM     12  O   UNL     1       7.228   4.622  18.505  0.00  0.00    +0.000 OA
ATOM     13  C   UNL     1       7.841   5.839  18.991  0.00  0.00    +0.000 C 
ENDBRANCH   8  12
BRANCH   9  14
ATOM     14  O   UNL     1       5.697   3.570  16.297  0.00  0.00    +0.000 OA
ATOM     15  C   UNL     1       6.276   4.040  15.070  0.00  0.00    +0.000 C 
ENDBRANCH   9  14
ENDBRANCH   1   2
BRANCH   1  21
ATOM     16  C   UNL     1       0.150  10.325  20.349  0.00  0.00    +0.000 A 
ATOM     17  C   UNL     1      -0.671  10.967  21.382  0.00  0.00    +0.000 A 
ATOM     18  C   UNL     1      -0.773  10.501  22.666  0.00  0.00    +0.000 A 
ATOM     19  C   UNL     1      -0.124   9.314  22.927  0.00  0.00    +0.000 A 
ATOM     20  C   UNL     1       0.708   8.656  21.963  0.00  0.00    +0.000 A 
ATOM     21  C   UNL     1       0.967   9.154  20.675  0.00  0.00    +0.000 A 
BRANCH  17  22
ATOM     22  O   UNL     1      -1.504  12.048  21.165  0.00  0.00    +0.000 OA
ATOM     23  H   UNL     1      -2.043  11.791  20.406  0.00  0.00    +0.000 HD
ENDBRANCH  17  22
BRANCH  16  24
ATOM     24  N   UNL     1       0.052  10.859  19.041  0.00  0.00    +0.000 N 
BRANCH  24  26
ATOM     25  C   UNL     1      -2.258  10.609  17.984  0.00  0.00    +0.000 C 
ATOM     26  C   UNL     1      -0.837  10.143  18.133  0.00  0.00    +0.000 C 
ENDBRANCH  24  26
BRANCH  24  27
ATOM     27  C   UNL     1       0.994  11.942  18.721  0.00  0.00    +0.000 C 
ATOM     28  C   UNL     1       0.420  13.307  18.524  0.00  0.00    +0.000 C 
ENDBRANCH  24  27
ENDBRANCH  16  24
ENDBRANCH   1  21
TORSDOF 8
ENDMDL
MODEL 9
REMARK VINA RESULT:      -7.4      2.281      7.874
REMARK  Name = 
REMARK  12 active torsions:
REMARK  status: ('A' for Active; 'I' for Inactive)
REMARK    1  A    between atoms: C_1  and  C_2
REMARK    2  A    between atoms: C_2  and  N_3
REMARK    3  A    between atoms: N_3  and  C_4
REMARK    4  A    between atoms: N_3  and  C_6
REMARK    5  A    between atoms: C_4  and  C_5
REMARK    6  A    between atoms: C_7  and  O_8
REMARK    7  A    between atoms: C_12  and  C_13
REMARK    8  A    between atoms: C_13  and  C_14
REMARK    9  A    between atoms: C_20  and  O_21
REMARK   10  A    between atoms: O_21  and  C_22
REMARK   11  A    between atoms: C_23  and  O_24
REMARK   12  A    between atoms: O_24  and  C_25
REMARK                            x       y       z     vdW  Elec       q    Type
REMARK                         _______ _______ _______ _____ _____    ______ ____
ROOT
ATOM      1  C   UNL     1       1.830   8.306  21.182  0.00  0.00    +0.000 C 
ENDROOT
BRANCH   1   2
ATOM      2  C   UNL     1       1.925   7.255  19.842  0.00  0.00    +0.000 C 
ATOM      3  O   UNL     1       1.605   5.999  20.481  0.00  0.00    +0.000 OA
ATOM      4  C   UNL     1       2.175   5.099  19.696  0.00  0.00    +0.000 C 
ATOM      5  O   UNL     1       1.695   4.166  19.099  0.00  0.00    +0.000 OA
ATOM      6  C   UNL     1       3.355   5.839  19.375  0.00  0.00    +0.000 A 
ATOM      7  C   UNL     1       4.563   5.140  19.578  0.00  0.00    +0.000 A 
ATOM      8  C   UNL     1       5.587   5.256  18.681  0.00  0.00    +0.000 A 
ATOM      9  C   UNL     1       5.145   5.755  17.483  0.00  0.00    +0.000 A 
ATOM     10  C   UNL     1       3.840   6.541  17.557  0.00  0.00    +0.000 A 
ATOM     11  C   UNL     1       2.930   6.880  18.606  0.00  0.00    +0.000 A 
BRANCH   8  12
ATOM     12  O   UNL     1       6.820   4.744  18.960  0.00  0.00    +0.000 OA
ATOM     13  C   UNL     1       7.784   5.798  19.191  0.00  0.00    +0.000 C 
ENDBRANCH   8  12
BRANCH   9  14
ATOM     14  O   UNL     1       5.826   5.378  16.326  0.00  0.00    +0.000 OA
ATOM     15  C   UNL     1       5.655   4.057  15.791  0.00  0.00    +0.000 C 
ENDBRANCH   9  14
ENDBRANCH   1   2
BRANCH   1  21
ATOM     16  C   UNL     1       0.386  10.661  20.848  0.00  0.00    +0.000 A 
ATOM     17  C   UNL     1      -0.541  11.649  21.410  0.00  0.00    +0.000 A 
ATOM     18  C   UNL     1      -1.184  11.488  22.609  0.00  0.00    +0.000 A 
ATOM     19  C   UNL     1      -0.987  10.277  23.237  0.00  0.00    +0.000 A 
ATOM     20  C   UNL     1      -0.078   9.286  22.744  0.00  0.00    +0.000 A 
ATOM     21  C   UNL     1       0.718   9.447  21.597  0.00  0.00    +0.000 A 
BRANCH  17  22
ATOM     22  O   UNL     1      -0.946  12.804  20.767  0.00  0.00    +0.000 OA
ATOM     23  H   UNL     1      -0.125  13.216  20.470  0.00  0.00    +0.000 HD
ENDBRANCH  17  22
BRANCH  16  24
ATOM     24  N   UNL     1       0.874  10.922  19.544  0.00  0.00    +0.000 N 
BRANCH  24  26
ATOM     25  C   UNL     1       1.721  12.922  18.203  0.00  0.00    +0.000 C 
ATOM     26  C   UNL     1       1.788  12.054  19.428  0.00  0.00    +0.000 C 
ENDBRANCH  24  26
BRANCH  24  27
ATOM     27  C   UNL     1       0.255  10.142  18.463  0.00  0.00    +0.000 C 
ATOM     28  C   UNL     1      -1.192  10.390  18.187  0.00  0.00    +0.000 C 
ENDBRANCH  24  27
ENDBRANCH  16  24
ENDBRANCH   1  21
TORSDOF 8
ENDMDL
