MODEL 1
REMARK VINA RESULT:      -7.1      0.000      0.000
REMARK  Name = 
REMARK  7 active torsions:
REMARK  status: ('A' for Active; 'I' for Inactive)
REMARK    1  A    between atoms: C_1  and  O_2
REMARK    2  A    between atoms: O_2  and  C_3
REMARK    3  A    between atoms: C_5  and  C_6
REMARK    4  A    between atoms: C_6  and  C_7
REMARK    5  A    between atoms: C_6  and  C_8
REMARK    6  A    between atoms: C_11  and  C_12
REMARK    7  A    between atoms: C_13  and  C_14
REMARK                            x       y       z     vdW  Elec       q    Type
REMARK                         _______ _______ _______ _____ _____    ______ ____
ROOT
ATOM      1  C   UNL     1       2.992   5.406  17.838  0.00  0.00    +0.000 A 
ATOM      2  C   UNL     1       4.104   4.631  17.463  0.00  0.00    +0.000 A 
ATOM      3  C   UNL     1       5.277   5.212  16.955  0.00  0.00    +0.000 A 
ATOM      4  C   UNL     1       5.322   6.599  16.812  0.00  0.00    +0.000 A 
ATOM      5  C   UNL     1       4.236   7.380  17.208  0.00  0.00    +0.000 A 
ATOM      6  C   UNL     1       3.065   6.806  17.733  0.00  0.00    +0.000 A 
ENDROOT
BRANCH   3   7
ATOM      7  C   UNL     1       6.470   4.334  16.626  0.00  0.00    +0.000 C 
ATOM      8  C   UNL     1       6.902   4.469  15.165  0.00  0.00    +0.000 C 
ATOM      9  C   UNL     1       7.638   4.616  17.576  0.00  0.00    +0.000 C 
ENDBRANCH   3   7
BRANCH   1  11
ATOM     10  C   UNL     1       2.036   3.997  19.486  0.00  0.00    +0.000 C 
ATOM     11  O   UNL     1       1.849   4.850  18.359  0.00  0.00    +0.000 OA
ENDBRANCH   1  11
BRANCH   6  12
ATOM     12  C   UNL     1       2.037   7.774  18.158  0.00  0.00    +0.000 C 
ATOM     13  C   UNL     1       1.921   9.068  17.825  0.00  0.00    +0.000 C 
BRANCH  13  14
ATOM     14  C   UNL     1       0.878   9.858  18.536  0.00  0.00    +0.000 C 
ATOM     15  O   UNL     1       1.094  10.345  19.641  0.00  0.00    +0.000 OA
ATOM     16  N   UNL     1      -0.330   9.897  17.878  0.00  0.00    +0.000 N 
ATOM     17  C   UNL     1      -1.383  10.725  18.143  0.00  0.00    +0.000 C 
ATOM     18  N   UNL     1      -2.559  10.426  17.709  0.00  0.00    +0.000 NA
ATOM     19  C   UNL     1      -3.514  11.466  18.160  0.00  0.00    +0.000 C 
ATOM     20  C   UNL     1      -2.943  12.244  19.338  0.00  0.00    +0.000 C 
ATOM     21  S   UNL     1      -1.182  12.211  19.011  0.00  0.00    +0.000 S 
ATOM     22  H   UNL     1      -0.528   9.201  17.176  0.00  0.00    +0.000 HD
ENDBRANCH  13  14
ENDBRANCH   6  12
TORSDOF 4
ENDMDL
MODEL 2
REMARK VINA RESULT:      -7.1      1.927      2.186
REMARK  Name = 
REMARK  7 active torsions:
REMARK  status: ('A' for Active; 'I' for Inactive)
REMARK    1  A    between atoms: C_1  and  O_2
REMARK    2  A    between atoms: O_2  and  C_3
REMARK    3  A    between atoms: C_5  and  C_6
REMARK    4  A    between atoms: C_6  and  C_7
REMARK    5  A    between atoms: C_6  and  C_8
REMARK    6  A    between atoms: C_11  and  C_12
REMARK    7  A    between atoms: C_13  and  C_14
REMARK                            x       y       z     vdW  Elec       q    Type
REMARK                         _______ _______ _______ _____ _____    ______ ____
ROOT
ATOM      1  C   UNL     1       3.004   5.608  18.257  0.00  0.00    +0.000 A 
ATOM      2  C   UNL     1       3.903   4.727  17.629  0.00  0.00    +0.000 A 
ATOM      3  C   UNL     1       4.862   5.177  16.707  0.00  0.00    +0.000 A 
ATOM      4  C   UNL     1       4.906   6.538  16.407  0.00  0.00    +0.000 A 
ATOM      5  C   UNL     1       4.039   7.425  17.046  0.00  0.00    +0.000 A 
ATOM      6  C   UNL     1       3.087   6.984  17.982  0.00  0.00    +0.000 A 
ENDROOT
BRANCH   3   7
ATOM      7  C   UNL     1       5.848   4.193  16.107  0.00  0.00    +0.000 C 
ATOM      8  C   UNL     1       5.786   4.171  14.579  0.00  0.00    +0.000 C 
ATOM      9  C   UNL     1       7.272   4.472  16.599  0.00  0.00    +0.000 C 
ENDBRANCH   3   7
BRANCH   1  11
ATOM     10  C   UNL     1       2.545   4.222  20.124  0.00  0.00    +0.000 C 
ATOM     11  O   UNL     1       2.079   5.182  19.178  0.00  0.00    +0.000 OA
ENDBRANCH   1  11
BRANCH   6  12
ATOM     12  C   UNL     1       2.292   8.055  18.609  0.00  0.00    +0.000 C 
ATOM     13  C   UNL     1       1.805   9.171  18.047  0.00  0.00    +0.000 C 
BRANCH  13  14
ATOM     14  C   UNL     1       1.176  10.168  18.957  0.00  0.00    +0.000 C 
ATOM     15  O   UNL     1       1.122  11.356  18.656  0.00  0.00    +0.000 OA
ATOM     16  N   UNL     1       0.767   9.639  20.159  0.00  0.00    +0.000 N 
ATOM     17  C   UNL     1      -0.050  10.229  21.081  0.00  0.00    +0.000 C 
ATOM     18  N   UNL     1      -0.066   9.795  22.294  0.00  0.00    +0.000 NA
ATOM     19  C   UNL     1      -1.004  10.626  23.087  0.00  0.00    +0.000 C 
ATOM     20  C   UNL     1      -1.260  11.956  22.393  0.00  0.00    +0.000 C 
ATOM     21  S   UNL     1      -1.118  11.527  20.659  0.00  0.00    +0.000 S 
ATOM     22  H   UNL     1       1.154   8.759  20.464  0.00  0.00    +0.000 HD
ENDBRANCH  13  14
ENDBRANCH   6  12
TORSDOF 4
ENDMDL
MODEL 3
REMARK VINA RESULT:      -7.1      7.448      9.623
REMARK  Name = 
REMARK  7 active torsions:
REMARK  status: ('A' for Active; 'I' for Inactive)
REMARK    1  A    between atoms: C_1  and  O_2
REMARK    2  A    between atoms: O_2  and  C_3
REMARK    3  A    between atoms: C_5  and  C_6
REMARK    4  A    between atoms: C_6  and  C_7
REMARK    5  A    between atoms: C_6  and  C_8
REMARK    6  A    between atoms: C_11  and  C_12
REMARK    7  A    between atoms: C_13  and  C_14
REMARK                            x       y       z     vdW  Elec       q    Type
REMARK                         _______ _______ _______ _____ _____    ______ ____
ROOT
ATOM      1  C   UNL     1       9.548  11.738  20.311  0.00  0.00    +0.000 A 
ATOM      2  C   UNL     1       9.968  13.080  20.344  0.00  0.00    +0.000 A 
ATOM      3  C   UNL     1      10.410  13.748  19.191  0.00  0.00    +0.000 A 
ATOM      4  C   UNL     1      10.439  13.045  17.987  0.00  0.00    +0.000 A 
ATOM      5  C   UNL     1       9.997  11.723  17.936  0.00  0.00    +0.000 A 
ATOM      6  C   UNL     1       9.538  11.052  19.083  0.00  0.00    +0.000 A 
ENDROOT
BRANCH   3   7
ATOM      7  C   UNL     1      10.791  15.214  19.271  0.00  0.00    +0.000 C 
ATOM      8  C   UNL     1      11.380  15.731  17.957  0.00  0.00    +0.000 C 
ATOM      9  C   UNL     1       9.601  16.068  19.717  0.00  0.00    +0.000 C 
ENDBRANCH   3   7
BRANCH   1  11
ATOM     10  C   UNL     1       8.373  11.882  22.364  0.00  0.00    +0.000 C 
ATOM     11  O   UNL     1       9.090  11.082  21.427  0.00  0.00    +0.000 OA
ENDBRANCH   1  11
BRANCH   6  12
ATOM     12  C   UNL     1       9.050   9.681  18.846  0.00  0.00    +0.000 C 
ATOM     13  C   UNL     1       8.369   9.208  17.792  0.00  0.00    +0.000 C 
BRANCH  13  14
ATOM     14  C   UNL     1       7.855   7.814  17.889  0.00  0.00    +0.000 C 
ATOM     15  O   UNL     1       8.196   7.075  18.808  0.00  0.00    +0.000 OA
ATOM     16  N   UNL     1       7.063   7.441  16.828  0.00  0.00    +0.000 N 
ATOM     17  C   UNL     1       6.259   6.341  16.749  0.00  0.00    +0.000 C 
ATOM     18  N   UNL     1       5.861   5.919  15.598  0.00  0.00    +0.000 NA
ATOM     19  C   UNL     1       5.037   4.702  15.795  0.00  0.00    +0.000 C 
ATOM     20  C   UNL     1       5.313   4.081  17.157  0.00  0.00    +0.000 C 
ATOM     21  S   UNL     1       5.707   5.509  18.165  0.00  0.00    +0.000 S 
ATOM     22  H   UNL     1       7.118   7.966  15.968  0.00  0.00    +0.000 HD
ENDBRANCH  13  14
ENDBRANCH   6  12
TORSDOF 4
ENDMDL
MODEL 4
REMARK VINA RESULT:      -7.0      1.161      1.286
REMARK  Name = 
REMARK  7 active torsions:
REMARK  status: ('A' for Active; 'I' for Inactive)
REMARK    1  A    between atoms: C_1  and  O_2
REMARK    2  A    between atoms: O_2  and  C_3
REMARK    3  A    between atoms: C_5  and  C_6
REMARK    4  A    between atoms: C_6  and  C_7
REMARK    5  A    between atoms: C_6  and  C_8
REMARK    6  A    between atoms: C_11  and  C_12
REMARK    7  A    between atoms: C_13  and  C_14
REMARK                            x       y       z     vdW  Elec       q    Type
REMARK                         _______ _______ _______ _____ _____    ______ ____
ROOT
ATOM      1  C   UNL     1       3.341   5.970  19.283  0.00  0.00    +0.000 A 
ATOM      2  C   UNL     1       4.567   5.293  19.161  0.00  0.00    +0.000 A 
ATOM      3  C   UNL     1       5.475   5.580  18.128  0.00  0.00    +0.000 A 
ATOM      4  C   UNL     1       5.131   6.561  17.198  0.00  0.00    +0.000 A 
ATOM      5  C   UNL     1       3.931   7.260  17.326  0.00  0.00    +0.000 A 
ATOM      6  C   UNL     1       3.025   6.988  18.367  0.00  0.00    +0.000 A 
ENDROOT
BRANCH   3   7
ATOM      7  C   UNL     1       6.811   4.864  18.080  0.00  0.00    +0.000 C 
ATOM      8  C   UNL     1       7.277   4.606  16.647  0.00  0.00    +0.000 C 
ATOM      9  C   UNL     1       7.873   5.626  18.878  0.00  0.00    +0.000 C 
ENDBRANCH   3   7
BRANCH   1  11
ATOM     10  C   UNL     1       1.720   4.499  20.191  0.00  0.00    +0.000 C 
ATOM     11  O   UNL     1       2.457   5.714  20.303  0.00  0.00    +0.000 OA
ENDBRANCH   1  11
BRANCH   6  12
ATOM     12  C   UNL     1       1.835   7.858  18.394  0.00  0.00    +0.000 C 
ATOM     13  C   UNL     1       1.760   9.178  18.173  0.00  0.00    +0.000 C 
BRANCH  13  14
ATOM     14  C   UNL     1       0.449   9.835  18.431  0.00  0.00    +0.000 C 
ATOM     15  O   UNL     1       0.226  10.412  19.490  0.00  0.00    +0.000 OA
ATOM     16  N   UNL     1      -0.472   9.645  17.426  0.00  0.00    +0.000 N 
ATOM     17  C   UNL     1      -1.651  10.312  17.256  0.00  0.00    +0.000 C 
ATOM     18  N   UNL     1      -2.571   9.807  16.507  0.00  0.00    +0.000 NA
ATOM     19  C   UNL     1      -3.748  10.709  16.523  0.00  0.00    +0.000 C 
ATOM     20  C   UNL     1      -3.700  11.633  17.731  0.00  0.00    +0.000 C 
ATOM     21  S   UNL     1      -1.940  11.859  17.982  0.00  0.00    +0.000 S 
ATOM     22  H   UNL     1      -0.337   8.887  16.775  0.00  0.00    +0.000 HD
ENDBRANCH  13  14
ENDBRANCH   6  12
TORSDOF 4
ENDMDL
MODEL 5
REMARK VINA RESULT:      -6.9      2.632      2.898
REMARK  Name = 
REMARK  7 active torsions:
REMARK  status: ('A' for Active; 'I' for Inactive)
REMARK    1  A    between atoms: C_1  and  O_2
REMARK    2  A    between atoms: O_2  and  C_3
REMARK    3  A    between atoms: C_5  and  C_6
REMARK    4  A    between atoms: C_6  and  C_7
REMARK    5  A    between atoms: C_6  and  C_8
REMARK    6  A    between atoms: C_11  and  C_12
REMARK    7  A    between atoms: C_13  and  C_14
REMARK                            x       y       z     vdW  Elec       q    Type
REMARK                         _______ _______ _______ _____ _____    ______ ____
ROOT
ATOM      1  C   UNL     1       3.984   4.196  17.320  0.00  0.00    +0.000 A 
ATOM      2  C   UNL     1       4.931   3.803  16.356  0.00  0.00    +0.000 A 
ATOM      3  C   UNL     1       5.595   4.737  15.545  0.00  0.00    +0.000 A 
ATOM      4  C   UNL     1       5.290   6.089  15.702  0.00  0.00    +0.000 A 
ATOM      5  C   UNL     1       4.375   6.492  16.675  0.00  0.00    +0.000 A 
ATOM      6  C   UNL     1       3.718   5.564  17.502  0.00  0.00    +0.000 A 
ENDROOT
BRANCH   3   7
ATOM      7  C   UNL     1       6.653   4.264  14.565  0.00  0.00    +0.000 C 
ATOM      8  C   UNL     1       6.041   3.705  13.279  0.00  0.00    +0.000 C 
ATOM      9  C   UNL     1       7.657   5.379  14.261  0.00  0.00    +0.000 C 
ENDBRANCH   3   7
BRANCH   1  11
ATOM     10  C   UNL     1       4.108   2.815  19.242  0.00  0.00    +0.000 C 
ATOM     11  O   UNL     1       3.347   3.293  18.135  0.00  0.00    +0.000 OA
ENDBRANCH   1  11
BRANCH   6  12
ATOM     12  C   UNL     1       2.830   6.159  18.518  0.00  0.00    +0.000 C 
ATOM     13  C   UNL     1       2.582   7.455  18.753  0.00  0.00    +0.000 C 
BRANCH  13  14
ATOM     14  C   UNL     1       1.767   7.781  19.956  0.00  0.00    +0.000 C 
ATOM     15  O   UNL     1       1.610   6.962  20.856  0.00  0.00    +0.000 OA
ATOM     16  N   UNL     1       1.165   9.017  19.898  0.00  0.00    +0.000 N 
ATOM     17  C   UNL     1       0.572   9.690  20.928  0.00  0.00    +0.000 C 
ATOM     18  N   UNL     1      -0.253  10.648  20.676  0.00  0.00    +0.000 NA
ATOM     19  C   UNL     1      -0.772  11.181  21.959  0.00  0.00    +0.000 C 
ATOM     20  C   UNL     1      -0.569  10.172  23.081  0.00  0.00    +0.000 C 
ATOM     21  S   UNL     1       0.934   9.332  22.584  0.00  0.00    +0.000 S 
ATOM     22  H   UNL     1       1.057   9.468  19.003  0.00  0.00    +0.000 HD
ENDBRANCH  13  14
ENDBRANCH   6  12
TORSDOF 4
ENDMDL
MODEL 6
REMARK VINA RESULT:      -6.9      1.591      1.733
REMARK  Name = 
REMARK  7 active torsions:
REMARK  status: ('A' for Active; 'I' for Inactive)
REMARK    1  A    between atoms: C_1  and  O_2
REMARK    2  A    between atoms: O_2  and  C_3
REMARK    3  A    between atoms: C_5  and  C_6
REMARK    4  A    between atoms: C_6  and  C_7
REMARK    5  A    between atoms: C_6  and  C_8
REMARK    6  A    between atoms: C_11  and  C_12
REMARK    7  A    between atoms: C_13  and  C_14
REMARK                            x       y       z     vdW  Elec       q    Type
REMARK                         _______ _______ _______ _____ _____    ______ ____
ROOT
ATOM      1  C   UNL     1       2.825   5.256  18.081  0.00  0.00    +0.000 A 
ATOM      2  C   UNL     1       3.756   4.478  17.369  0.00  0.00    +0.000 A 
ATOM      3  C   UNL     1       4.810   5.059  16.645  0.00  0.00    +0.000 A 
ATOM      4  C   UNL     1       4.918   6.449  16.632  0.00  0.00    +0.000 A 
ATOM      5  C   UNL     1       4.019   7.230  17.359  0.00  0.00    +0.000 A 
ATOM      6  C   UNL     1       2.971   6.654  18.099  0.00  0.00    +0.000 A 
ENDROOT
BRANCH   3   7
ATOM      7  C   UNL     1       5.822   4.170  15.947  0.00  0.00    +0.000 C 
ATOM      8  C   UNL     1       5.743   4.290  14.424  0.00  0.00    +0.000 C 
ATOM      9  C   UNL     1       7.240   4.451  16.451  0.00  0.00    +0.000 C 
ENDBRANCH   3   7
BRANCH   1  11
ATOM     10  C   UNL     1       1.328   3.439  18.346  0.00  0.00    +0.000 C 
ATOM     11  O   UNL     1       1.805   4.698  18.813  0.00  0.00    +0.000 OA
ENDBRANCH   1  11
BRANCH   6  12
ATOM     12  C   UNL     1       2.149   7.614  18.858  0.00  0.00    +0.000 C 
ATOM     13  C   UNL     1       2.015   7.730  20.188  0.00  0.00    +0.000 C 
BRANCH  13  14
ATOM     14  C   UNL     1       0.985   8.684  20.684  0.00  0.00    +0.000 C 
ATOM     15  O   UNL     1       0.516   8.580  21.813  0.00  0.00    +0.000 OA
ATOM     16  N   UNL     1       0.572   9.593  19.738  0.00  0.00    +0.000 N 
ATOM     17  C   UNL     1      -0.160  10.726  19.952  0.00  0.00    +0.000 C 
ATOM     18  N   UNL     1      -0.776  11.287  18.969  0.00  0.00    +0.000 NA
ATOM     19  C   UNL     1      -1.514  12.467  19.478  0.00  0.00    +0.000 C 
ATOM     20  C   UNL     1      -1.712  12.368  20.984  0.00  0.00    +0.000 C 
ATOM     21  S   UNL     1      -0.251  11.475  21.512  0.00  0.00    +0.000 S 
ATOM     22  H   UNL     1       0.737   9.396  18.763  0.00  0.00    +0.000 HD
ENDBRANCH  13  14
ENDBRANCH   6  12
TORSDOF 4
ENDMDL
MODEL 7
REMARK VINA RESULT:      -6.8      1.988      2.255
REMARK  Name = 
REMARK  7 active torsions:
REMARK  status: ('A' for Active; 'I' for Inactive)
REMARK    1  A    between atoms: C_1  and  O_2
REMARK    2  A    between atoms: O_2  and  C_3
REMARK    3  A    between atoms: C_5  and  C_6
REMARK    4  A    between atoms: C_6  and  C_7
REMARK    5  A    between atoms: C_6  and  C_8
REMARK    6  A    between atoms: C_11  and  C_12
REMARK    7  A    between atoms: C_13  and  C_14
REMARK                            x       y       z     vdW  Elec       q    Type
REMARK                         _______ _______ _______ _____ _____    ______ ____
ROOT
ATOM      1  C   UNL     1       2.950   5.698  18.311  0.00  0.00    +0.000 A 
ATOM      2  C   UNL     1       3.887   4.787  17.793  0.00  0.00    +0.000 A 
ATOM      3  C   UNL     1       4.923   5.193  16.937  0.00  0.00    +0.000 A 
ATOM      4  C   UNL     1       5.005   6.541  16.588  0.00  0.00    +0.000 A 
ATOM      5  C   UNL     1       4.099   7.459  17.119  0.00  0.00    +0.000 A 
ATOM      6  C   UNL     1       3.069   7.062  17.991  0.00  0.00    +0.000 A 
ENDROOT
BRANCH   3   7
ATOM      7  C   UNL     1       5.944   4.179  16.458  0.00  0.00    +0.000 C 
ATOM      8  C   UNL     1       6.003   4.093  14.932  0.00  0.00    +0.000 C 
ATOM      9  C   UNL     1       7.326   4.469  17.049  0.00  0.00    +0.000 C 
ENDBRANCH   3   7
BRANCH   1  11
ATOM     10  C   UNL     1       2.376   4.734  20.399  0.00  0.00    +0.000 C 
ATOM     11  O   UNL     1       1.948   5.316  19.170  0.00  0.00    +0.000 OA
ENDBRANCH   1  11
BRANCH   6  12
ATOM     12  C   UNL     1       2.237   8.163  18.509  0.00  0.00    +0.000 C 
ATOM     13  C   UNL     1       1.427   8.988  17.830  0.00  0.00    +0.000 C 
BRANCH  13  14
ATOM     14  C   UNL     1       0.831  10.125  18.585  0.00  0.00    +0.000 C 
ATOM     15  O   UNL     1      -0.116   9.952  19.346  0.00  0.00    +0.000 OA
ATOM     16  N   UNL     1       1.381  11.346  18.272  0.00  0.00    +0.000 N 
ATOM     17  C   UNL     1       1.226  12.517  18.958  0.00  0.00    +0.000 C 
ATOM     18  N   UNL     1       1.487  13.638  18.379  0.00  0.00    +0.000 NA
ATOM     19  C   UNL     1       1.205  14.742  19.328  0.00  0.00    +0.000 C 
ATOM     20  C   UNL     1       0.281  14.270  20.442  0.00  0.00    +0.000 C 
ATOM     21  S   UNL     1       0.732  12.545  20.619  0.00  0.00    +0.000 S 
ATOM     22  H   UNL     1       1.892  11.447  17.409  0.00  0.00    +0.000 HD
ENDBRANCH  13  14
ENDBRANCH   6  12
TORSDOF 4
ENDMDL
MODEL 8
REMARK VINA RESULT:      -6.8      2.571      2.663
REMARK  Name = 
REMARK  7 active torsions:
REMARK  status: ('A' for Active; 'I' for Inactive)
REMARK    1  A    between atoms: C_1  and  O_2
REMARK    2  A    between atoms: O_2  and  C_3
REMARK    3  A    between atoms: C_5  and  C_6
REMARK    4  A    between atoms: C_6  and  C_7
REMARK    5  A    between atoms: C_6  and  C_8
REMARK    6  A    between atoms: C_11  and  C_12
REMARK    7  A    between atoms: C_13  and  C_14
REMARK                            x       y       z     vdW  Elec       q    Type
REMARK                         _______ _______ _______ _____ _____    ______ ____
ROOT
ATOM      1  C   UNL     1       2.750   5.306  18.387  0.00  0.00    +0.000 A 
ATOM      2  C   UNL     1       3.727   4.618  17.646  0.00  0.00    +0.000 A 
ATOM      3  C   UNL     1       4.697   5.295  16.888  0.00  0.00    +0.000 A 
ATOM      4  C   UNL     1       4.670   6.689  16.870  0.00  0.00    +0.000 A 
ATOM      5  C   UNL     1       3.724   7.382  17.625  0.00  0.00    +0.000 A 
ATOM      6  C   UNL     1       2.760   6.712  18.399  0.00  0.00    +0.000 A 
ENDROOT
BRANCH   3   7
ATOM      7  C   UNL     1       5.767   4.505  16.158  0.00  0.00    +0.000 C 
ATOM      8  C   UNL     1       5.909   4.937  14.698  0.00  0.00    +0.000 C 
ATOM      9  C   UNL     1       7.108   4.587  16.893  0.00  0.00    +0.000 C 
ENDBRANCH   3   7
BRANCH   1  11
ATOM     10  C   UNL     1       2.329   3.768  20.141  0.00  0.00    +0.000 C 
ATOM     11  O   UNL     1       1.812   4.655  19.151  0.00  0.00    +0.000 OA
ENDBRANCH   1  11
BRANCH   6  12
ATOM     12  C   UNL     1       1.874   7.591  19.183  0.00  0.00    +0.000 C 
ATOM     13  C   UNL     1       1.783   7.709  20.516  0.00  0.00    +0.000 C 
BRANCH  13  14
ATOM     14  C   UNL     1       0.680   8.557  21.046  0.00  0.00    +0.000 C 
ATOM     15  O   UNL     1      -0.405   8.070  21.348  0.00  0.00    +0.000 OA
ATOM     16  N   UNL     1       0.977   9.900  21.068  0.00  0.00    +0.000 N 
ATOM     17  C   UNL     1       0.284  10.884  21.715  0.00  0.00    +0.000 C 
ATOM     18  N   UNL     1       0.447  12.115  21.371  0.00  0.00    +0.000 NA
ATOM     19  C   UNL     1      -0.439  12.965  22.201  0.00  0.00    +0.000 C 
ATOM     20  C   UNL     1      -1.559  12.135  22.813  0.00  0.00    +0.000 C 
ATOM     21  S   UNL     1      -0.784  10.535  23.034  0.00  0.00    +0.000 S 
ATOM     22  H   UNL     1       1.729  10.246  20.492  0.00  0.00    +0.000 HD
ENDBRANCH  13  14
ENDBRANCH   6  12
TORSDOF 4
ENDMDL
MODEL 9
REMARK VINA RESULT:      -6.8      0.789      1.103
REMARK  Name = 
REMARK  7 active torsions:
REMARK  status: ('A' for Active; 'I' for Inactive)
REMARK    1  A    between atoms: C_1  and  O_2
REMARK    2  A    between atoms: O_2  and  C_3
REMARK    3  A    between atoms: C_5  and  C_6
REMARK    4  A    between atoms: C_6  and  C_7
REMARK    5  A    between atoms: C_6  and  C_8
REMARK    6  A    between atoms: C_11  and  C_12
REMARK    7  A    between atoms: C_13  and  C_14
REMARK                            x       y       z     vdW  Elec       q    Type
REMARK                         _______ _______ _______ _____ _____    ______ ____
ROOT
ATOM      1  C   UNL     1       3.920   6.008  18.634  0.00  0.00    +0.000 A 
ATOM      2  C   UNL     1       5.076   5.366  18.154  0.00  0.00    +0.000 A 
ATOM      3  C   UNL     1       5.667   5.719  16.930  0.00  0.00    +0.000 A 
ATOM      4  C   UNL     1       5.075   6.730  16.174  0.00  0.00    +0.000 A 
ATOM      5  C   UNL     1       3.946   7.395  16.654  0.00  0.00    +0.000 A 
ATOM      6  C   UNL     1       3.357   7.057  17.886  0.00  0.00    +0.000 A 
ENDROOT
BRANCH   3   7
ATOM      7  C   UNL     1       6.949   5.037  16.490  0.00  0.00    +0.000 C 
ATOM      8  C   UNL     1       7.730   4.457  17.670  0.00  0.00    +0.000 C 
ATOM      9  C   UNL     1       6.666   3.964  15.434  0.00  0.00    +0.000 C 
ENDBRANCH   3   7
BRANCH   1  11
ATOM     10  C   UNL     1       2.774   4.386  19.926  0.00  0.00    +0.000 C 
ATOM     11  O   UNL     1       3.347   5.689  19.840  0.00  0.00    +0.000 OA
ENDBRANCH   1  11
BRANCH   6  12
ATOM     12  C   UNL     1       2.209   7.896  18.274  0.00  0.00    +0.000 C 
ATOM     13  C   UNL     1       1.912   9.142  17.875  0.00  0.00    +0.000 C 
BRANCH  13  14
ATOM     14  C   UNL     1       0.775   9.818  18.557  0.00  0.00    +0.000 C 
ATOM     15  O   UNL     1       0.839  10.125  19.743  0.00  0.00    +0.000 OA
ATOM     16  N   UNL     1      -0.338   9.967  17.761  0.00  0.00    +0.000 N 
ATOM     17  C   UNL     1      -1.427  10.751  18.012  0.00  0.00    +0.000 C 
ATOM     18  N   UNL     1      -2.532  10.532  17.386  0.00  0.00    +0.000 NA
ATOM     19  C   UNL     1      -3.553  11.495  17.865  0.00  0.00    +0.000 C 
ATOM     20  C   UNL     1      -3.151  12.075  19.214  0.00  0.00    +0.000 C 
ATOM     21  S   UNL     1      -1.362  12.082  19.120  0.00  0.00    +0.000 S 
ATOM     22  H   UNL     1      -0.433   9.391  16.939  0.00  0.00    +0.000 HD
ENDBRANCH  13  14
ENDBRANCH   6  12
TORSDOF 4
ENDMDL
