MODEL 1
REMARK VINA RESULT:      -5.8      0.000      0.000
REMARK  Name = 
REMARK  5 active torsions:
REMARK  status: ('A' for Active; 'I' for Inactive)
REMARK    1  A    between atoms: C_1  and  N_2
REMARK    2  A    between atoms: N_2  and  C_3
REMARK    3  A    between atoms: C_3  and  C_4
REMARK    4  A    between atoms: C_10  and  C_12
REMARK    5  A    between atoms: C_18  and  C_19
REMARK                            x       y       z     vdW  Elec       q    Type
REMARK                         _______ _______ _______ _____ _____    ______ ____
ROOT
ATOM      1  C   UNL     1      -6.220  12.920  21.094  0.00  0.00    +0.000 A 
ATOM      2  N   UNL     1      -6.815  13.412  19.941  0.00  0.00    +0.000 NA
ATOM      3  C   UNL     1      -5.986  13.170  18.957  0.00  0.00    +0.000 A 
ATOM      4  N   UNL     1      -4.990  12.364  19.397  0.00  0.00    +0.000 N 
ATOM      5  C   UNL     1      -4.957  12.476  20.763  0.00  0.00    +0.000 A 
ATOM      6  C   UNL     1      -3.674  12.296  21.384  0.00  0.00    +0.000 A 
ATOM      7  C   UNL     1      -2.701  12.889  20.626  0.00  0.00    +0.000 A 
ATOM      8  C   UNL     1      -2.655  12.213  19.269  0.00  0.00    +0.000 A 
ATOM      9  C   UNL     1      -1.528  11.585  18.740  0.00  0.00    +0.000 A 
ATOM     10  C   UNL     1      -1.687  10.529  17.823  0.00  0.00    +0.000 A 
ATOM     11  C   UNL     1      -2.958  10.093  17.425  0.00  0.00    +0.000 A 
ATOM     12  C   UNL     1      -4.084  10.800  17.825  0.00  0.00    +0.000 A 
ATOM     13  C   UNL     1      -3.904  11.873  18.708  0.00  0.00    +0.000 A 
ENDROOT
BRANCH   7  14
ATOM     14  C   UNL     1      -2.427  14.338  20.976  0.00  0.00    +0.000 A 
ATOM     15  C   UNL     1      -1.349  14.690  21.828  0.00  0.00    +0.000 A 
ATOM     16  C   UNL     1      -1.058  16.006  22.185  0.00  0.00    +0.000 A 
ATOM     17  C   UNL     1      -1.862  17.031  21.704  0.00  0.00    +0.000 A 
ATOM     18  C   UNL     1      -2.973  16.721  20.932  0.00  0.00    +0.000 A 
ATOM     19  C   UNL     1      -3.268  15.387  20.582  0.00  0.00    +0.000 A 
ENDBRANCH   7  14
BRANCH   1  22
ATOM     20  C   UNL     1      -7.916  14.176  24.214  0.00  0.00    +0.000 C 
ATOM     21  N   UNL     1      -7.052  14.140  23.055  0.00  0.00    +0.000 N 
ATOM     22  C   UNL     1      -6.870  12.915  22.415  0.00  0.00    +0.000 C 
ATOM     23  O   UNL     1      -7.242  11.852  22.935  0.00  0.00    +0.000 OA
BRANCH  21  24
ATOM     24  C   UNL     1      -6.206  15.313  22.808  0.00  0.00    +0.000 C 
BRANCH  24  25
ATOM     25  C   UNL     1      -5.054  15.512  23.778  0.00  0.00    +0.000 A 
ATOM     26  C   UNL     1      -4.653  16.768  24.263  0.00  0.00    +0.000 A 
ATOM     27  C   UNL     1      -3.530  16.891  25.084  0.00  0.00    +0.000 A 
ATOM     28  C   UNL     1      -2.798  15.762  25.444  0.00  0.00    +0.000 A 
ATOM     29  C   UNL     1      -3.183  14.508  24.976  0.00  0.00    +0.000 A 
ATOM     30  C   UNL     1      -4.301  14.385  24.148  0.00  0.00    +0.000 A 
ENDBRANCH  24  25
ENDBRANCH  21  24
ENDBRANCH   1  22
TORSDOF 4
ENDMDL
MODEL 2
REMARK VINA RESULT:      -5.7      3.794      5.993
REMARK  Name = 
REMARK  5 active torsions:
REMARK  status: ('A' for Active; 'I' for Inactive)
REMARK    1  A    between atoms: C_1  and  N_2
REMARK    2  A    between atoms: N_2  and  C_3
REMARK    3  A    between atoms: C_3  and  C_4
REMARK    4  A    between atoms: C_10  and  C_12
REMARK    5  A    between atoms: C_18  and  C_19
REMARK                            x       y       z     vdW  Elec       q    Type
REMARK                         _______ _______ _______ _____ _____    ______ ____
ROOT
ATOM      1  C   UNL     1       1.270  11.990  19.080  0.00  0.00    +0.000 A 
ATOM      2  N   UNL     1       1.467  10.662  19.431  0.00  0.00    +0.000 NA
ATOM      3  C   UNL     1       0.347  10.034  19.174  0.00  0.00    +0.000 A 
ATOM      4  N   UNL     1      -0.479  10.856  18.482  0.00  0.00    +0.000 N 
ATOM      5  C   UNL     1      -0.049  12.138  18.707  0.00  0.00    +0.000 A 
ATOM      6  C   UNL     1      -1.057  13.161  18.674  0.00  0.00    +0.000 A 
ATOM      7  C   UNL     1      -2.201  12.709  19.276  0.00  0.00    +0.000 A 
ATOM      8  C   UNL     1      -2.726  11.518  18.497  0.00  0.00    +0.000 A 
ATOM      9  C   UNL     1      -3.992  11.455  17.915  0.00  0.00    +0.000 A 
ATOM     10  C   UNL     1      -4.195  10.649  16.779  0.00  0.00    +0.000 A 
ATOM     11  C   UNL     1      -3.150   9.901  16.218  0.00  0.00    +0.000 A 
ATOM     12  C   UNL     1      -1.925   9.836  16.869  0.00  0.00    +0.000 A 
ATOM     13  C   UNL     1      -1.753  10.615  18.020  0.00  0.00    +0.000 A 
ENDROOT
BRANCH   7  14
ATOM     14  C   UNL     1      -2.278  12.981  20.764  0.00  0.00    +0.000 A 
ATOM     15  C   UNL     1      -2.854  14.180  21.256  0.00  0.00    +0.000 A 
ATOM     16  C   UNL     1      -2.944  14.481  22.615  0.00  0.00    +0.000 A 
ATOM     17  C   UNL     1      -2.437  13.581  23.542  0.00  0.00    +0.000 A 
ATOM     18  C   UNL     1      -1.796  12.432  23.098  0.00  0.00    +0.000 A 
ATOM     19  C   UNL     1      -1.699  12.138  21.722  0.00  0.00    +0.000 A 
ENDBRANCH   7  14
BRANCH   1  22
ATOM     20  C   UNL     1       3.748  14.456  20.483  0.00  0.00    +0.000 C 
ATOM     21  N   UNL     1       2.555  13.649  20.354  0.00  0.00    +0.000 N 
ATOM     22  C   UNL     1       2.323  13.017  19.134  0.00  0.00    +0.000 C 
ATOM     23  O   UNL     1       2.980  13.305  18.121  0.00  0.00    +0.000 OA
BRANCH  21  24
ATOM     24  C   UNL     1       1.534  13.782  21.400  0.00  0.00    +0.000 C 
BRANCH  24  25
ATOM     25  C   UNL     1       0.767  15.093  21.409  0.00  0.00    +0.000 A 
ATOM     26  C   UNL     1       0.366  15.768  20.244  0.00  0.00    +0.000 A 
ATOM     27  C   UNL     1      -0.260  17.014  20.320  0.00  0.00    +0.000 A 
ATOM     28  C   UNL     1      -0.507  17.599  21.560  0.00  0.00    +0.000 A 
ATOM     29  C   UNL     1      -0.120  16.942  22.726  0.00  0.00    +0.000 A 
ATOM     30  C   UNL     1       0.513  15.700  22.650  0.00  0.00    +0.000 A 
ENDBRANCH  24  25
ENDBRANCH  21  24
ENDBRANCH   1  22
TORSDOF 4
ENDMDL
MODEL 3
REMARK VINA RESULT:      -5.7     10.549     12.697
REMARK  Name = 
REMARK  5 active torsions:
REMARK  status: ('A' for Active; 'I' for Inactive)
REMARK    1  A    between atoms: C_1  and  N_2
REMARK    2  A    between atoms: N_2  and  C_3
REMARK    3  A    between atoms: C_3  and  C_4
REMARK    4  A    between atoms: C_10  and  C_12
REMARK    5  A    between atoms: C_18  and  C_19
REMARK                            x       y       z     vdW  Elec       q    Type
REMARK                         _______ _______ _______ _____ _____    ______ ____
ROOT
ATOM      1  C   UNL     1       7.453  15.363  18.471  0.00  0.00    +0.000 A 
ATOM      2  N   UNL     1       8.272  16.277  17.824  0.00  0.00    +0.000 NA
ATOM      3  C   UNL     1       9.489  15.798  17.881  0.00  0.00    +0.000 A 
ATOM      4  N   UNL     1       9.449  14.527  18.348  0.00  0.00    +0.000 N 
ATOM      5  C   UNL     1       8.255  14.378  19.006  0.00  0.00    +0.000 A 
ATOM      6  C   UNL     1       8.244  13.445  20.099  0.00  0.00    +0.000 A 
ATOM      7  C   UNL     1       9.408  13.547  20.812  0.00  0.00    +0.000 A 
ATOM      8  C   UNL     1      10.570  13.184  19.907  0.00  0.00    +0.000 A 
ATOM      9  C   UNL     1      11.472  12.150  20.161  0.00  0.00    +0.000 A 
ATOM     10  C   UNL     1      12.112  11.507  19.084  0.00  0.00    +0.000 A 
ATOM     11  C   UNL     1      11.866  11.884  17.757  0.00  0.00    +0.000 A 
ATOM     12  C   UNL     1      11.088  13.004  17.494  0.00  0.00    +0.000 A 
ATOM     13  C   UNL     1      10.490  13.655  18.580  0.00  0.00    +0.000 A 
ENDROOT
BRANCH   7  14
ATOM     14  C   UNL     1       9.365  14.549  21.948  0.00  0.00    +0.000 A 
ATOM     15  C   UNL     1       8.956  14.158  23.248  0.00  0.00    +0.000 A 
ATOM     16  C   UNL     1       8.893  15.041  24.325  0.00  0.00    +0.000 A 
ATOM     17  C   UNL     1       9.230  16.374  24.128  0.00  0.00    +0.000 A 
ATOM     18  C   UNL     1       9.560  16.812  22.852  0.00  0.00    +0.000 A 
ATOM     19  C   UNL     1       9.612  15.916  21.765  0.00  0.00    +0.000 A 
ENDBRANCH   7  14
BRANCH   1  22
ATOM     20  C   UNL     1       4.053  16.751  19.313  0.00  0.00    +0.000 C 
ATOM     21  N   UNL     1       5.461  16.439  19.422  0.00  0.00    +0.000 N 
ATOM     22  C   UNL     1       5.988  15.487  18.550  0.00  0.00    +0.000 C 
ATOM     23  O   UNL     1       5.252  14.766  17.859  0.00  0.00    +0.000 OA
BRANCH  21  24
ATOM     24  C   UNL     1       6.168  16.918  20.615  0.00  0.00    +0.000 C 
BRANCH  24  25
ATOM     25  C   UNL     1       5.779  16.254  21.924  0.00  0.00    +0.000 A 
ATOM     26  C   UNL     1       5.673  16.942  23.144  0.00  0.00    +0.000 A 
ATOM     27  C   UNL     1       5.397  16.256  24.329  0.00  0.00    +0.000 A 
ATOM     28  C   UNL     1       5.210  14.876  24.312  0.00  0.00    +0.000 A 
ATOM     29  C   UNL     1       5.307  14.178  23.111  0.00  0.00    +0.000 A 
ATOM     30  C   UNL     1       5.591  14.862  21.927  0.00  0.00    +0.000 A 
ENDBRANCH  24  25
ENDBRANCH  21  24
ENDBRANCH   1  22
TORSDOF 4
ENDMDL
MODEL 4
REMARK VINA RESULT:      -5.7      3.446      6.169
REMARK  Name = 
REMARK  5 active torsions:
REMARK  status: ('A' for Active; 'I' for Inactive)
REMARK    1  A    between atoms: C_1  and  N_2
REMARK    2  A    between atoms: N_2  and  C_3
REMARK    3  A    between atoms: C_3  and  C_4
REMARK    4  A    between atoms: C_10  and  C_12
REMARK    5  A    between atoms: C_18  and  C_19
REMARK                            x       y       z     vdW  Elec       q    Type
REMARK                         _______ _______ _______ _____ _____    ______ ____
ROOT
ATOM      1  C   UNL     1      -0.226  13.776  21.536  0.00  0.00    +0.000 A 
ATOM      2  N   UNL     1       0.429  12.562  21.693  0.00  0.00    +0.000 NA
ATOM      3  C   UNL     1      -0.210  11.691  20.955  0.00  0.00    +0.000 A 
ATOM      4  N   UNL     1      -1.111  12.338  20.177  0.00  0.00    +0.000 N 
ATOM      5  C   UNL     1      -1.344  13.556  20.760  0.00  0.00    +0.000 A 
ATOM      6  C   UNL     1      -2.651  14.117  20.560  0.00  0.00    +0.000 A 
ATOM      7  C   UNL     1      -3.599  13.132  20.636  0.00  0.00    +0.000 A 
ATOM      8  C   UNL     1      -3.352  12.128  19.525  0.00  0.00    +0.000 A 
ATOM      9  C   UNL     1      -4.282  11.804  18.538  0.00  0.00    +0.000 A 
ATOM     10  C   UNL     1      -3.832  11.363  17.278  0.00  0.00    +0.000 A 
ATOM     11  C   UNL     1      -2.466  11.239  16.993  0.00  0.00    +0.000 A 
ATOM     12  C   UNL     1      -1.533  11.415  18.008  0.00  0.00    +0.000 A 
ATOM     13  C   UNL     1      -2.002  11.816  19.265  0.00  0.00    +0.000 A 
ENDROOT
BRANCH   7  14
ATOM     14  C   UNL     1      -4.149  12.894  22.027  0.00  0.00    +0.000 A 
ATOM     15  C   UNL     1      -5.512  13.149  22.324  0.00  0.00    +0.000 A 
ATOM     16  C   UNL     1      -6.066  12.953  23.589  0.00  0.00    +0.000 A 
ATOM     17  C   UNL     1      -5.255  12.500  24.621  0.00  0.00    +0.000 A 
ATOM     18  C   UNL     1      -3.898  12.313  24.389  0.00  0.00    +0.000 A 
ATOM     19  C   UNL     1      -3.342  12.523  23.111  0.00  0.00    +0.000 A 
ENDBRANCH   7  14
BRANCH   1  22
ATOM     20  C   UNL     1       0.888  17.363  21.824  0.00  0.00    +0.000 C 
ATOM     21  N   UNL     1       0.688  16.040  21.276  0.00  0.00    +0.000 N 
ATOM     22  C   UNL     1       0.234  15.039  22.134  0.00  0.00    +0.000 C 
ATOM     23  O   UNL     1       0.216  15.202  23.365  0.00  0.00    +0.000 OA
BRANCH  21  24
ATOM     24  C   UNL     1       1.244  15.768  19.945  0.00  0.00    +0.000 C 
BRANCH  24  25
ATOM     25  C   UNL     1       0.819  16.725  18.845  0.00  0.00    +0.000 A 
ATOM     26  C   UNL     1      -0.519  17.057  18.577  0.00  0.00    +0.000 A 
ATOM     27  C   UNL     1      -0.849  17.876  17.493  0.00  0.00    +0.000 A 
ATOM     28  C   UNL     1       0.153  18.385  16.670  0.00  0.00    +0.000 A 
ATOM     29  C   UNL     1       1.486  18.069  16.924  0.00  0.00    +0.000 A 
ATOM     30  C   UNL     1       1.815  17.245  18.001  0.00  0.00    +0.000 A 
ENDBRANCH  24  25
ENDBRANCH  21  24
ENDBRANCH   1  22
TORSDOF 4
ENDMDL
MODEL 5
REMARK VINA RESULT:      -5.7      2.904      4.821
REMARK  Name = 
REMARK  5 active torsions:
REMARK  status: ('A' for Active; 'I' for Inactive)
REMARK    1  A    between atoms: C_1  and  N_2
REMARK    2  A    between atoms: N_2  and  C_3
REMARK    3  A    between atoms: C_3  and  C_4
REMARK    4  A    between atoms: C_10  and  C_12
REMARK    5  A    between atoms: C_18  and  C_19
REMARK                            x       y       z     vdW  Elec       q    Type
REMARK                         _______ _______ _______ _____ _____    ______ ____
ROOT
ATOM      1  C   UNL     1       0.038  13.620  21.090  0.00  0.00    +0.000 A 
ATOM      2  N   UNL     1       0.713  12.489  21.527  0.00  0.00    +0.000 NA
ATOM      3  C   UNL     1       0.135  11.462  20.958  0.00  0.00    +0.000 A 
ATOM      4  N   UNL     1      -0.738  11.902  20.020  0.00  0.00    +0.000 N 
ATOM      5  C   UNL     1      -1.031  13.206  20.325  0.00  0.00    +0.000 A 
ATOM      6  C   UNL     1      -2.339  13.668  19.950  0.00  0.00    +0.000 A 
ATOM      7  C   UNL     1      -3.266  12.687  20.185  0.00  0.00    +0.000 A 
ATOM      8  C   UNL     1      -2.936  11.485  19.321  0.00  0.00    +0.000 A 
ATOM      9  C   UNL     1      -3.803  10.931  18.380  0.00  0.00    +0.000 A 
ATOM     10  C   UNL     1      -3.276  10.255  17.263  0.00  0.00    +0.000 A 
ATOM     11  C   UNL     1      -1.894  10.122  17.075  0.00  0.00    +0.000 A 
ATOM     12  C   UNL     1      -1.021  10.536  18.073  0.00  0.00    +0.000 A 
ATOM     13  C   UNL     1      -1.566  11.173  19.195  0.00  0.00    +0.000 A 
ENDROOT
BRANCH   7  14
ATOM     14  C   UNL     1      -3.884  12.724  21.568  0.00  0.00    +0.000 A 
ATOM     15  C   UNL     1      -5.164  13.296  21.778  0.00  0.00    +0.000 A 
ATOM     16  C   UNL     1      -5.774  13.360  23.030  0.00  0.00    +0.000 A 
ATOM     17  C   UNL     1      -5.102  12.856  24.137  0.00  0.00    +0.000 A 
ATOM     18  C   UNL     1      -3.815  12.359  23.985  0.00  0.00    +0.000 A 
ATOM     19  C   UNL     1      -3.199  12.305  22.718  0.00  0.00    +0.000 A 
ENDBRANCH   7  14
BRANCH   1  22
ATOM     20  C   UNL     1       0.859  16.664  23.153  0.00  0.00    +0.000 C 
ATOM     21  N   UNL     1       0.236  15.424  22.744  0.00  0.00    +0.000 N 
ATOM     22  C   UNL     1       0.435  14.996  21.433  0.00  0.00    +0.000 C 
ATOM     23  O   UNL     1       0.931  15.744  20.576  0.00  0.00    +0.000 OA
BRANCH  21  24
ATOM     24  C   UNL     1      -0.786  14.857  23.631  0.00  0.00    +0.000 C 
BRANCH  24  25
ATOM     25  C   UNL     1      -2.098  15.619  23.696  0.00  0.00    +0.000 A 
ATOM     26  C   UNL     1      -2.828  15.812  24.881  0.00  0.00    +0.000 A 
ATOM     27  C   UNL     1      -4.073  16.446  24.859  0.00  0.00    +0.000 A 
ATOM     28  C   UNL     1      -4.601  16.909  23.656  0.00  0.00    +0.000 A 
ATOM     29  C   UNL     1      -3.889  16.730  22.471  0.00  0.00    +0.000 A 
ATOM     30  C   UNL     1      -2.649  16.089  22.492  0.00  0.00    +0.000 A 
ENDBRANCH  24  25
ENDBRANCH  21  24
ENDBRANCH   1  22
TORSDOF 4
ENDMDL
MODEL 6
REMARK VINA RESULT:      -5.6      3.392      5.722
REMARK  Name = 
REMARK  5 active torsions:
REMARK  status: ('A' for Active; 'I' for Inactive)
REMARK    1  A    between atoms: C_1  and  N_2
REMARK    2  A    between atoms: N_2  and  C_3
REMARK    3  A    between atoms: C_3  and  C_4
REMARK    4  A    between atoms: C_10  and  C_12
REMARK    5  A    between atoms: C_18  and  C_19
REMARK                            x       y       z     vdW  Elec       q    Type
REMARK                         _______ _______ _______ _____ _____    ______ ____
ROOT
ATOM      1  C   UNL     1      -0.241  11.710  21.739  0.00  0.00    +0.000 A 
ATOM      2  N   UNL     1      -0.752  10.715  22.561  0.00  0.00    +0.000 NA
ATOM      3  C   UNL     1      -0.474   9.573  21.986  0.00  0.00    +0.000 A 
ATOM      4  N   UNL     1       0.369   9.787  20.947  0.00  0.00    +0.000 N 
ATOM      5  C   UNL     1       0.253  11.108  20.602  0.00  0.00    +0.000 A 
ATOM      6  C   UNL     1       0.482  11.426  19.219  0.00  0.00    +0.000 A 
ATOM      7  C   UNL     1      -0.070  10.460  18.420  0.00  0.00    +0.000 A 
ATOM      8  C   UNL     1       0.612   9.137  18.709  0.00  0.00    +0.000 A 
ATOM      9  C   UNL     1       1.286   8.375  17.755  0.00  0.00    +0.000 A 
ATOM     10  C   UNL     1       2.339   7.531  18.157  0.00  0.00    +0.000 A 
ATOM     11  C   UNL     1       2.726   7.435  19.500  0.00  0.00    +0.000 A 
ATOM     12  C   UNL     1       1.973   8.071  20.480  0.00  0.00    +0.000 A 
ATOM     13  C   UNL     1       0.906   8.876  20.064  0.00  0.00    +0.000 A 
ENDROOT
BRANCH   7  14
ATOM     14  C   UNL     1      -1.508  10.721  18.020  0.00  0.00    +0.000 A 
ATOM     15  C   UNL     1      -2.061  10.121  16.861  0.00  0.00    +0.000 A 
ATOM     16  C   UNL     1      -3.375  10.332  16.446  0.00  0.00    +0.000 A 
ATOM     17  C   UNL     1      -4.190  11.181  17.184  0.00  0.00    +0.000 A 
ATOM     18  C   UNL     1      -3.662  11.849  18.281  0.00  0.00    +0.000 A 
ATOM     19  C   UNL     1      -2.329  11.638  18.690  0.00  0.00    +0.000 A 
ENDBRANCH   7  14
BRANCH   1  22
ATOM     20  C   UNL     1      -1.548  15.077  22.813  0.00  0.00    +0.000 C 
ATOM     21  N   UNL     1      -1.512  13.753  22.230  0.00  0.00    +0.000 N 
ATOM     22  C   UNL     1      -0.268  13.144  22.073  0.00  0.00    +0.000 C 
ATOM     23  O   UNL     1       0.787  13.782  22.209  0.00  0.00    +0.000 OA
BRANCH  21  24
ATOM     24  C   UNL     1      -2.736  13.266  21.584  0.00  0.00    +0.000 C 
BRANCH  24  25
ATOM     25  C   UNL     1      -3.900  12.973  22.514  0.00  0.00    +0.000 A 
ATOM     26  C   UNL     1      -5.246  13.168  22.160  0.00  0.00    +0.000 A 
ATOM     27  C   UNL     1      -6.266  12.964  23.092  0.00  0.00    +0.000 A 
ATOM     28  C   UNL     1      -5.960  12.549  24.386  0.00  0.00    +0.000 A 
ATOM     29  C   UNL     1      -4.632  12.347  24.753  0.00  0.00    +0.000 A 
ATOM     30  C   UNL     1      -3.611  12.559  23.824  0.00  0.00    +0.000 A 
ENDBRANCH  24  25
ENDBRANCH  21  24
ENDBRANCH   1  22
TORSDOF 4
ENDMDL
MODEL 7
REMARK VINA RESULT:      -5.5      2.842      6.387
REMARK  Name = 
REMARK  5 active torsions:
REMARK  status: ('A' for Active; 'I' for Inactive)
REMARK    1  A    between atoms: C_1  and  N_2
REMARK    2  A    between atoms: N_2  and  C_3
REMARK    3  A    between atoms: C_3  and  C_4
REMARK    4  A    between atoms: C_10  and  C_12
REMARK    5  A    between atoms: C_18  and  C_19
REMARK                            x       y       z     vdW  Elec       q    Type
REMARK                         _______ _______ _______ _____ _____    ______ ____
ROOT
ATOM      1  C   UNL     1      -3.151  12.550  19.553  0.00  0.00    +0.000 A 
ATOM      2  N   UNL     1      -2.493  13.583  20.205  0.00  0.00    +0.000 NA
ATOM      3  C   UNL     1      -3.318  14.042  21.112  0.00  0.00    +0.000 A 
ATOM      4  N   UNL     1      -4.387  13.214  21.206  0.00  0.00    +0.000 N 
ATOM      5  C   UNL     1      -4.439  12.492  20.042  0.00  0.00    +0.000 A 
ATOM      6  C   UNL     1      -5.745  12.079  19.609  0.00  0.00    +0.000 A 
ATOM      7  C   UNL     1      -6.650  13.082  19.831  0.00  0.00    +0.000 A 
ATOM      8  C   UNL     1      -6.723  13.355  21.322  0.00  0.00    +0.000 A 
ATOM      9  C   UNL     1      -7.887  13.258  22.083  0.00  0.00    +0.000 A 
ATOM     10  C   UNL     1      -7.797  12.948  23.454  0.00  0.00    +0.000 A 
ATOM     11  C   UNL     1      -6.559  12.737  24.075  0.00  0.00    +0.000 A 
ATOM     12  C   UNL     1      -5.386  12.974  23.369  0.00  0.00    +0.000 A 
ATOM     13  C   UNL     1      -5.496  13.319  22.016  0.00  0.00    +0.000 A 
ENDROOT
BRANCH   7  14
ATOM     14  C   UNL     1      -6.810  14.053  18.679  0.00  0.00    +0.000 A 
ATOM     15  C   UNL     1      -6.727  15.452  18.889  0.00  0.00    +0.000 A 
ATOM     16  C   UNL     1      -6.872  16.387  17.864  0.00  0.00    +0.000 A 
ATOM     17  C   UNL     1      -7.126  15.942  16.573  0.00  0.00    +0.000 A 
ATOM     18  C   UNL     1      -7.293  14.584  16.341  0.00  0.00    +0.000 A 
ATOM     19  C   UNL     1      -7.154  13.644  17.383  0.00  0.00    +0.000 A 
ENDBRANCH   7  14
BRANCH   1  22
ATOM     20  C   UNL     1      -0.803  10.107  17.907  0.00  0.00    +0.000 C 
ATOM     21  N   UNL     1      -1.291  11.137  18.798  0.00  0.00    +0.000 N 
ATOM     22  C   UNL     1      -2.531  11.707  18.517  0.00  0.00    +0.000 C 
ATOM     23  O   UNL     1      -3.101  11.515  17.432  0.00  0.00    +0.000 OA
BRANCH  21  24
ATOM     24  C   UNL     1      -0.337  11.712  19.753  0.00  0.00    +0.000 C 
BRANCH  24  25
ATOM     25  C   UNL     1      -0.109  10.909  21.022  0.00  0.00    +0.000 A 
ATOM     26  C   UNL     1       0.889   9.930  21.155  0.00  0.00    +0.000 A 
ATOM     27  C   UNL     1       0.989   9.165  22.320  0.00  0.00    +0.000 A 
ATOM     28  C   UNL     1       0.102   9.375  23.373  0.00  0.00    +0.000 A 
ATOM     29  C   UNL     1      -0.892  10.344  23.260  0.00  0.00    +0.000 A 
ATOM     30  C   UNL     1      -0.997  11.103  22.093  0.00  0.00    +0.000 A 
ENDBRANCH  24  25
ENDBRANCH  21  24
ENDBRANCH   1  22
TORSDOF 4
ENDMDL
MODEL 8
REMARK VINA RESULT:      -5.5      2.569      4.319
REMARK  Name = 
REMARK  5 active torsions:
REMARK  status: ('A' for Active; 'I' for Inactive)
REMARK    1  A    between atoms: C_1  and  N_2
REMARK    2  A    between atoms: N_2  and  C_3
REMARK    3  A    between atoms: C_3  and  C_4
REMARK    4  A    between atoms: C_10  and  C_12
REMARK    5  A    between atoms: C_18  and  C_19
REMARK                            x       y       z     vdW  Elec       q    Type
REMARK                         _______ _______ _______ _____ _____    ______ ____
ROOT
ATOM      1  C   UNL     1      -1.336  13.414  23.023  0.00  0.00    +0.000 A 
ATOM      2  N   UNL     1      -1.320  12.176  23.650  0.00  0.00    +0.000 NA
ATOM      3  C   UNL     1      -1.505  11.278  22.716  0.00  0.00    +0.000 A 
ATOM      4  N   UNL     1      -1.428  11.873  21.501  0.00  0.00    +0.000 N 
ATOM      5  C   UNL     1      -1.646  13.213  21.696  0.00  0.00    +0.000 A 
ATOM      6  C   UNL     1      -2.261  13.921  20.607  0.00  0.00    +0.000 A 
ATOM      7  C   UNL     1      -3.235  13.146  20.036  0.00  0.00    +0.000 A 
ATOM      8  C   UNL     1      -2.595  11.893  19.469  0.00  0.00    +0.000 A 
ATOM      9  C   UNL     1      -2.662  11.513  18.129  0.00  0.00    +0.000 A 
ATOM     10  C   UNL     1      -1.628  10.735  17.574  0.00  0.00    +0.000 A 
ATOM     11  C   UNL     1      -0.528  10.329  18.342  0.00  0.00    +0.000 A 
ATOM     12  C   UNL     1      -0.517  10.571  19.709  0.00  0.00    +0.000 A 
ATOM     13  C   UNL     1      -1.573  11.314  20.250  0.00  0.00    +0.000 A 
ENDROOT
BRANCH   7  14
ATOM     14  C   UNL     1      -4.612  13.318  20.643  0.00  0.00    +0.000 A 
ATOM     15  C   UNL     1      -4.982  12.616  21.818  0.00  0.00    +0.000 A 
ATOM     16  C   UNL     1      -6.238  12.735  22.413  0.00  0.00    +0.000 A 
ATOM     17  C   UNL     1      -7.188  13.563  21.830  0.00  0.00    +0.000 A 
ATOM     18  C   UNL     1      -6.891  14.206  20.636  0.00  0.00    +0.000 A 
ATOM     19  C   UNL     1      -5.623  14.075  20.034  0.00  0.00    +0.000 A 
ENDBRANCH   7  14
BRANCH   1  22
ATOM     20  C   UNL     1      -1.656  16.233  25.502  0.00  0.00    +0.000 C 
ATOM     21  N   UNL     1      -2.023  15.137  24.632  0.00  0.00    +0.000 N 
ATOM     22  C   UNL     1      -1.074  14.687  23.715  0.00  0.00    +0.000 C 
ATOM     23  O   UNL     1      -0.039  15.332  23.485  0.00  0.00    +0.000 OA
BRANCH  21  24
ATOM     24  C   UNL     1      -3.442  14.770  24.569  0.00  0.00    +0.000 C 
BRANCH  24  25
ATOM     25  C   UNL     1      -4.322  15.681  23.731  0.00  0.00    +0.000 A 
ATOM     26  C   UNL     1      -3.886  16.320  22.558  0.00  0.00    +0.000 A 
ATOM     27  C   UNL     1      -4.718  17.215  21.881  0.00  0.00    +0.000 A 
ATOM     28  C   UNL     1      -6.000  17.476  22.357  0.00  0.00    +0.000 A 
ATOM     29  C   UNL     1      -6.451  16.849  23.516  0.00  0.00    +0.000 A 
ATOM     30  C   UNL     1      -5.617  15.960  24.198  0.00  0.00    +0.000 A 
ENDBRANCH  24  25
ENDBRANCH  21  24
ENDBRANCH   1  22
TORSDOF 4
ENDMDL
MODEL 9
REMARK VINA RESULT:      -5.5      3.226      5.223
REMARK  Name = 
REMARK  5 active torsions:
REMARK  status: ('A' for Active; 'I' for Inactive)
REMARK    1  A    between atoms: C_1  and  N_2
REMARK    2  A    between atoms: N_2  and  C_3
REMARK    3  A    between atoms: C_3  and  C_4
REMARK    4  A    between atoms: C_10  and  C_12
REMARK    5  A    between atoms: C_18  and  C_19
REMARK                            x       y       z     vdW  Elec       q    Type
REMARK                         _______ _______ _______ _____ _____    ______ ____
ROOT
ATOM      1  C   UNL     1       0.771  13.063  20.632  0.00  0.00    +0.000 A 
ATOM      2  N   UNL     1       1.234  11.848  21.117  0.00  0.00    +0.000 NA
ATOM      3  C   UNL     1       0.454  10.921  20.619  0.00  0.00    +0.000 A 
ATOM      4  N   UNL     1      -0.351  11.471  19.678  0.00  0.00    +0.000 N 
ATOM      5  C   UNL     1      -0.382  12.821  19.915  0.00  0.00    +0.000 A 
ATOM      6  C   UNL     1      -1.591  13.504  19.545  0.00  0.00    +0.000 A 
ATOM      7  C   UNL     1      -2.677  12.731  19.856  0.00  0.00    +0.000 A 
ATOM      8  C   UNL     1      -2.609  11.445  19.054  0.00  0.00    +0.000 A 
ATOM      9  C   UNL     1      -3.596  11.019  18.166  0.00  0.00    +0.000 A 
ATOM     10  C   UNL     1      -3.244  10.199  17.077  0.00  0.00    +0.000 A 
ATOM     11  C   UNL     1      -1.918   9.795  16.866  0.00  0.00    +0.000 A 
ATOM     12  C   UNL     1      -0.951  10.086  17.819  0.00  0.00    +0.000 A 
ATOM     13  C   UNL     1      -1.328  10.871  18.915  0.00  0.00    +0.000 A 
ENDROOT
BRANCH   7  14
ATOM     14  C   UNL     1      -3.232  12.955  21.248  0.00  0.00    +0.000 A 
ATOM     15  C   UNL     1      -4.251  13.912  21.481  0.00  0.00    +0.000 A 
ATOM     16  C   UNL     1      -4.791  14.160  22.742  0.00  0.00    +0.000 A 
ATOM     17  C   UNL     1      -4.306  13.455  23.836  0.00  0.00    +0.000 A 
ATOM     18  C   UNL     1      -3.254  12.566  23.662  0.00  0.00    +0.000 A 
ATOM     19  C   UNL     1      -2.706  12.326  22.386  0.00  0.00    +0.000 A 
ENDBRANCH   7  14
BRANCH   1  22
ATOM     20  C   UNL     1       1.970  16.132  22.458  0.00  0.00    +0.000 C 
ATOM     21  N   UNL     1       1.137  15.012  22.079  0.00  0.00    +0.000 N 
ATOM     22  C   UNL     1       1.432  14.353  20.887  0.00  0.00    +0.000 C 
ATOM     23  O   UNL     1       2.226  14.832  20.062  0.00  0.00    +0.000 OA
BRANCH  21  24
ATOM     24  C   UNL     1      -0.121  14.828  22.812  0.00  0.00    +0.000 C 
BRANCH  24  25
ATOM     25  C   UNL     1      -1.175  15.898  22.591  0.00  0.00    +0.000 A 
ATOM     26  C   UNL     1      -1.974  16.428  23.618  0.00  0.00    +0.000 A 
ATOM     27  C   UNL     1      -2.987  17.347  23.334  0.00  0.00    +0.000 A 
ATOM     28  C   UNL     1      -3.210  17.761  22.023  0.00  0.00    +0.000 A 
ATOM     29  C   UNL     1      -2.425  17.249  20.992  0.00  0.00    +0.000 A 
ATOM     30  C   UNL     1      -1.418  16.324  21.274  0.00  0.00    +0.000 A 
ENDBRANCH  24  25
ENDBRANCH  21  24
ENDBRANCH   1  22
TORSDOF 4
ENDMDL
