MODEL 1
REMARK VINA RESULT:      -8.9      0.000      0.000
REMARK  Name = 
REMARK  7 active torsions:
REMARK  status: ('A' for Active; 'I' for Inactive)
REMARK    1  A    between atoms: C_1  and  O_2
REMARK    2  A    between atoms: O_2  and  C_3
REMARK    3  A    between atoms: N_5  and  C_6
REMARK    4  A    between atoms: C_6  and  C_7
REMARK    5  A    between atoms: C_12  and  C_14
REMARK    6  A    between atoms: C_17  and  C_18
REMARK    7  A    between atoms: C_18  and  N_19
REMARK                            x       y       z     vdW  Elec       q    Type
REMARK                         _______ _______ _______ _____ _____    ______ ____
ROOT
ATOM      1  C   UNL     1       2.361   6.555  19.340  0.00  0.00    +0.000 A 
ATOM      2  C   UNL     1       2.399   7.144  18.072  0.00  0.00    +0.000 A 
ATOM      3  C   UNL     1       2.017   8.480  17.893  0.00  0.00    +0.000 A 
ATOM      4  C   UNL     1       1.517   9.236  18.962  0.00  0.00    +0.000 A 
ATOM      5  C   UNL     1       1.412   8.625  20.220  0.00  0.00    +0.000 A 
ATOM      6  C   UNL     1       1.838   7.301  20.407  0.00  0.00    +0.000 A 
ENDROOT
BRANCH   1  10
ATOM      7  C   UNL     1       3.998   3.190  19.237  0.00  0.00    +0.000 C 
ATOM      8  O   UNL     1       4.264   2.733  20.345  0.00  0.00    +0.000 OA
ATOM      9  N   UNL     1       3.842   4.539  18.982  0.00  0.00    +0.000 N 
ATOM     10  C   UNL     1       2.758   5.138  19.618  0.00  0.00    +0.000 C 
ATOM     11  O   UNL     1       2.079   4.572  20.478  0.00  0.00    +0.000 OA
BRANCH   7  13
ATOM     12  C   UNL     1       2.589   1.984  17.781  0.00  0.00    +0.000 C 
ATOM     13  O   UNL     1       3.916   2.421  18.109  0.00  0.00    +0.000 OA
ENDBRANCH   7  13
BRANCH   9  14
ATOM     14  C   UNL     1       4.529   5.121  17.839  0.00  0.00    +0.000 C 
BRANCH  14  15
ATOM     15  C   UNL     1       5.838   5.747  18.163  0.00  0.00    +0.000 A 
ATOM     16  C   UNL     1       6.607   6.730  17.575  0.00  0.00    +0.000 A 
ATOM     17  C   UNL     1       7.837   6.746  18.276  0.00  0.00    +0.000 A 
ATOM     18  C   UNL     1       7.735   5.785  19.254  0.00  0.00    +0.000 A 
ATOM     19  O   UNL     1       6.525   5.175  19.195  0.00  0.00    +0.000 OA
ENDBRANCH  14  15
ENDBRANCH   9  14
ENDBRANCH   1  10
BRANCH   4  20
ATOM     20  C   UNL     1       1.166  10.693  18.762  0.00  0.00    +0.000 C 
BRANCH  20  21
ATOM     21  N   UNL     1      -0.196  11.166  19.010  0.00  0.00    +0.000 N 
ATOM     22  C   UNL     1      -1.292  10.709  18.236  0.00  0.00    +0.000 C 
ATOM     23  O   UNL     1      -1.214   9.977  17.272  0.00  0.00    +0.000 OA
ATOM     24  C   UNL     1      -2.541  11.296  18.744  0.00  0.00    +0.000 A 
ATOM     25  C   UNL     1      -3.796  11.168  18.166  0.00  0.00    +0.000 A 
ATOM     26  C   UNL     1      -4.837  11.935  18.691  0.00  0.00    +0.000 A 
ATOM     27  C   UNL     1      -4.599  12.832  19.750  0.00  0.00    +0.000 A 
ATOM     28  C   UNL     1      -3.336  12.916  20.352  0.00  0.00    +0.000 A 
ATOM     29  C   UNL     1      -2.340  12.095  19.858  0.00  0.00    +0.000 A 
ATOM     30  S   UNL     1      -0.688  11.936  20.414  0.00  0.00    +0.000 S 
ATOM     31  O   UNL     1      -0.682  10.979  21.497  0.00  0.00    +0.000 OA
ATOM     32  O   UNL     1      -0.111  13.253  20.495  0.00  0.00    +0.000 OA
ENDBRANCH  20  21
ENDBRANCH   4  20
TORSDOF 6
ENDMDL
MODEL 2
REMARK VINA RESULT:      -8.8      1.147      2.040
REMARK  Name = 
REMARK  7 active torsions:
REMARK  status: ('A' for Active; 'I' for Inactive)
REMARK    1  A    between atoms: C_1  and  O_2
REMARK    2  A    between atoms: O_2  and  C_3
REMARK    3  A    between atoms: N_5  and  C_6
REMARK    4  A    between atoms: C_6  and  C_7
REMARK    5  A    between atoms: C_12  and  C_14
REMARK    6  A    between atoms: C_17  and  C_18
REMARK    7  A    between atoms: C_18  and  N_19
REMARK                            x       y       z     vdW  Elec       q    Type
REMARK                         _______ _______ _______ _____ _____    ______ ____
ROOT
ATOM      1  C   UNL     1       2.420   6.692  19.380  0.00  0.00    +0.000 A 
ATOM      2  C   UNL     1       2.497   7.379  18.164  0.00  0.00    +0.000 A 
ATOM      3  C   UNL     1       2.106   8.722  18.077  0.00  0.00    +0.000 A 
ATOM      4  C   UNL     1       1.559   9.387  19.182  0.00  0.00    +0.000 A 
ATOM      5  C   UNL     1       1.416   8.677  20.384  0.00  0.00    +0.000 A 
ATOM      6  C   UNL     1       1.849   7.347  20.482  0.00  0.00    +0.000 A 
ENDROOT
BRANCH   1  10
ATOM      7  C   UNL     1       4.024   3.330  19.006  0.00  0.00    +0.000 C 
ATOM      8  O   UNL     1       4.353   2.816  20.072  0.00  0.00    +0.000 OA
ATOM      9  N   UNL     1       3.863   4.691  18.831  0.00  0.00    +0.000 N 
ATOM     10  C   UNL     1       2.823   5.261  19.561  0.00  0.00    +0.000 C 
ATOM     11  O   UNL     1       2.192   4.653  20.429  0.00  0.00    +0.000 OA
BRANCH   7  13
ATOM     12  C   UNL     1       2.538   2.144  17.613  0.00  0.00    +0.000 C 
ATOM     13  O   UNL     1       3.871   2.621  17.848  0.00  0.00    +0.000 OA
ENDBRANCH   7  13
BRANCH   9  14
ATOM     14  C   UNL     1       4.485   5.329  17.681  0.00  0.00    +0.000 C 
BRANCH  14  15
ATOM     15  C   UNL     1       5.868   5.818  17.924  0.00  0.00    +0.000 A 
ATOM     16  C   UNL     1       6.842   5.527  18.856  0.00  0.00    +0.000 A 
ATOM     17  C   UNL     1       7.881   6.467  18.653  0.00  0.00    +0.000 A 
ATOM     18  C   UNL     1       7.483   7.261  17.604  0.00  0.00    +0.000 A 
ATOM     19  O   UNL     1       6.264   6.873  17.154  0.00  0.00    +0.000 OA
ENDBRANCH  14  15
ENDBRANCH   9  14
ENDBRANCH   1  10
BRANCH   4  20
ATOM     20  C   UNL     1       1.199  10.851  19.085  0.00  0.00    +0.000 C 
BRANCH  20  21
ATOM     21  N   UNL     1      -0.117  11.320  19.521  0.00  0.00    +0.000 N 
ATOM     22  C   UNL     1      -0.355  11.729  20.857  0.00  0.00    +0.000 C 
ATOM     23  O   UNL     1       0.445  11.657  21.765  0.00  0.00    +0.000 OA
ATOM     24  C   UNL     1      -1.738  12.209  20.993  0.00  0.00    +0.000 A 
ATOM     25  C   UNL     1      -2.360  12.579  22.178  0.00  0.00    +0.000 A 
ATOM     26  C   UNL     1      -3.729  12.846  22.140  0.00  0.00    +0.000 A 
ATOM     27  C   UNL     1      -4.451  12.706  20.940  0.00  0.00    +0.000 A 
ATOM     28  C   UNL     1      -3.800  12.375  19.743  0.00  0.00    +0.000 A 
ATOM     29  C   UNL     1      -2.432  12.184  19.794  0.00  0.00    +0.000 A 
ATOM     30  S   UNL     1      -1.338  11.807  18.481  0.00  0.00    +0.000 S 
ATOM     31  O   UNL     1      -0.952  13.055  17.863  0.00  0.00    +0.000 OA
ATOM     32  O   UNL     1      -1.868  10.678  17.762  0.00  0.00    +0.000 OA
ENDBRANCH  20  21
ENDBRANCH   4  20
TORSDOF 6
ENDMDL
MODEL 3
REMARK VINA RESULT:      -8.7      0.695      1.190
REMARK  Name = 
REMARK  7 active torsions:
REMARK  status: ('A' for Active; 'I' for Inactive)
REMARK    1  A    between atoms: C_1  and  O_2
REMARK    2  A    between atoms: O_2  and  C_3
REMARK    3  A    between atoms: N_5  and  C_6
REMARK    4  A    between atoms: C_6  and  C_7
REMARK    5  A    between atoms: C_12  and  C_14
REMARK    6  A    between atoms: C_17  and  C_18
REMARK    7  A    between atoms: C_18  and  N_19
REMARK                            x       y       z     vdW  Elec       q    Type
REMARK                         _______ _______ _______ _____ _____    ______ ____
ROOT
ATOM      1  C   UNL     1       2.254   6.783  19.388  0.00  0.00    +0.000 A 
ATOM      2  C   UNL     1       1.790   7.599  20.425  0.00  0.00    +0.000 A 
ATOM      3  C   UNL     1       1.373   8.912  20.169  0.00  0.00    +0.000 A 
ATOM      4  C   UNL     1       1.480   9.466  18.886  0.00  0.00    +0.000 A 
ATOM      5  C   UNL     1       2.010   8.671  17.859  0.00  0.00    +0.000 A 
ATOM      6  C   UNL     1       2.385   7.342  18.108  0.00  0.00    +0.000 A 
ENDROOT
BRANCH   1  10
ATOM      7  C   UNL     1       3.998   3.490  19.039  0.00  0.00    +0.000 C 
ATOM      8  O   UNL     1       4.329   2.988  20.110  0.00  0.00    +0.000 OA
ATOM      9  N   UNL     1       3.785   4.843  18.862  0.00  0.00    +0.000 N 
ATOM     10  C   UNL     1       2.711   5.370  19.574  0.00  0.00    +0.000 C 
ATOM     11  O   UNL     1       2.090   4.736  20.431  0.00  0.00    +0.000 OA
BRANCH   7  13
ATOM     12  C   UNL     1       2.625   2.132  17.687  0.00  0.00    +0.000 C 
ATOM     13  O   UNL     1       3.893   2.777  17.878  0.00  0.00    +0.000 OA
ENDBRANCH   7  13
BRANCH   9  14
ATOM     14  C   UNL     1       4.400   5.508  17.723  0.00  0.00    +0.000 C 
BRANCH  14  15
ATOM     15  C   UNL     1       5.811   5.921  17.942  0.00  0.00    +0.000 A 
ATOM     16  C   UNL     1       6.782   5.582  18.863  0.00  0.00    +0.000 A 
ATOM     17  C   UNL     1       7.868   6.462  18.638  0.00  0.00    +0.000 A 
ATOM     18  C   UNL     1       7.499   7.270  17.588  0.00  0.00    +0.000 A 
ATOM     19  O   UNL     1       6.253   6.947  17.158  0.00  0.00    +0.000 OA
ENDBRANCH  14  15
ENDBRANCH   9  14
ENDBRANCH   1  10
BRANCH   4  20
ATOM     20  C   UNL     1       0.969  10.862  18.617  0.00  0.00    +0.000 C 
BRANCH  20  21
ATOM     21  N   UNL     1      -0.454  11.169  18.757  0.00  0.00    +0.000 N 
ATOM     22  C   UNL     1      -1.437  10.502  17.983  0.00  0.00    +0.000 C 
ATOM     23  O   UNL     1      -1.211   9.703  17.099  0.00  0.00    +0.000 OA
ATOM     24  C   UNL     1      -2.778  10.960  18.376  0.00  0.00    +0.000 A 
ATOM     25  C   UNL     1      -3.971  10.613  17.759  0.00  0.00    +0.000 A 
ATOM     26  C   UNL     1      -5.130  11.278  18.161  0.00  0.00    +0.000 A 
ATOM     27  C   UNL     1      -5.071  12.290  19.138  0.00  0.00    +0.000 A 
ATOM     28  C   UNL     1      -3.864  12.597  19.784  0.00  0.00    +0.000 A 
ATOM     29  C   UNL     1      -2.745  11.875  19.416  0.00  0.00    +0.000 A 
ATOM     30  S   UNL     1      -1.120  11.990  20.058  0.00  0.00    +0.000 S 
ATOM     31  O   UNL     1      -1.051  11.144  21.226  0.00  0.00    +0.000 OA
ATOM     32  O   UNL     1      -0.724  13.374  20.035  0.00  0.00    +0.000 OA
ENDBRANCH  20  21
ENDBRANCH   4  20
TORSDOF 6
ENDMDL
MODEL 4
REMARK VINA RESULT:      -8.7      1.158      1.429
REMARK  Name = 
REMARK  7 active torsions:
REMARK  status: ('A' for Active; 'I' for Inactive)
REMARK    1  A    between atoms: C_1  and  O_2
REMARK    2  A    between atoms: O_2  and  C_3
REMARK    3  A    between atoms: N_5  and  C_6
REMARK    4  A    between atoms: C_6  and  C_7
REMARK    5  A    between atoms: C_12  and  C_14
REMARK    6  A    between atoms: C_17  and  C_18
REMARK    7  A    between atoms: C_18  and  N_19
REMARK                            x       y       z     vdW  Elec       q    Type
REMARK                         _______ _______ _______ _____ _____    ______ ____
ROOT
ATOM      1  C   UNL     1       2.537   6.720  19.291  0.00  0.00    +0.000 A 
ATOM      2  C   UNL     1       2.617   7.325  18.033  0.00  0.00    +0.000 A 
ATOM      3  C   UNL     1       2.135   8.626  17.835  0.00  0.00    +0.000 A 
ATOM      4  C   UNL     1       1.494   9.323  18.868  0.00  0.00    +0.000 A 
ATOM      5  C   UNL     1       1.351   8.689  20.111  0.00  0.00    +0.000 A 
ATOM      6  C   UNL     1       1.874   7.405  20.321  0.00  0.00    +0.000 A 
ENDROOT
BRANCH   1  10
ATOM      7  C   UNL     1       3.966   3.271  19.012  0.00  0.00    +0.000 C 
ATOM      8  O   UNL     1       4.731   2.975  19.927  0.00  0.00    +0.000 OA
ATOM      9  N   UNL     1       3.694   4.571  18.633  0.00  0.00    +0.000 N 
ATOM     10  C   UNL     1       3.034   5.339  19.589  0.00  0.00    +0.000 C 
ATOM     11  O   UNL     1       2.849   4.963  20.750  0.00  0.00    +0.000 OA
BRANCH   7  13
ATOM     12  C   UNL     1       2.022   2.013  18.572  0.00  0.00    +0.000 C 
ATOM     13  O   UNL     1       3.369   2.343  18.205  0.00  0.00    +0.000 OA
ENDBRANCH   7  13
BRANCH   9  14
ATOM     14  C   UNL     1       3.752   4.917  17.221  0.00  0.00    +0.000 C 
BRANCH  14  15
ATOM     15  C   UNL     1       5.091   4.743  16.601  0.00  0.00    +0.000 A 
ATOM     16  C   UNL     1       6.355   5.216  16.889  0.00  0.00    +0.000 A 
ATOM     17  C   UNL     1       7.182   4.825  15.809  0.00  0.00    +0.000 A 
ATOM     18  C   UNL     1       6.377   4.127  14.939  0.00  0.00    +0.000 A 
ATOM     19  O   UNL     1       5.107   4.071  15.412  0.00  0.00    +0.000 OA
ENDBRANCH  14  15
ENDBRANCH   9  14
ENDBRANCH   1  10
BRANCH   4  20
ATOM     20  C   UNL     1       1.034  10.746  18.652  0.00  0.00    +0.000 C 
BRANCH  20  21
ATOM     21  N   UNL     1      -0.377  11.098  18.806  0.00  0.00    +0.000 N 
ATOM     22  C   UNL     1      -1.384  10.494  18.012  0.00  0.00    +0.000 C 
ATOM     23  O   UNL     1      -1.187   9.719  17.101  0.00  0.00    +0.000 OA
ATOM     24  C   UNL     1      -2.707  10.986  18.424  0.00  0.00    +0.000 A 
ATOM     25  C   UNL     1      -3.913  10.704  17.798  0.00  0.00    +0.000 A 
ATOM     26  C   UNL     1      -5.047  11.395  18.226  0.00  0.00    +0.000 A 
ATOM     27  C   UNL     1      -4.950  12.370  19.237  0.00  0.00    +0.000 A 
ATOM     28  C   UNL     1      -3.733  12.611  19.890  0.00  0.00    +0.000 A 
ATOM     29  C   UNL     1      -2.640  11.863  19.495  0.00  0.00    +0.000 A 
ATOM     30  S   UNL     1      -1.012  11.897  20.136  0.00  0.00    +0.000 S 
ATOM     31  O   UNL     1      -0.972  11.008  21.275  0.00  0.00    +0.000 OA
ATOM     32  O   UNL     1      -0.566  13.265  20.161  0.00  0.00    +0.000 OA
ENDBRANCH  20  21
ENDBRANCH   4  20
TORSDOF 6
ENDMDL
MODEL 5
REMARK VINA RESULT:      -8.6      1.448      2.302
REMARK  Name = 
REMARK  7 active torsions:
REMARK  status: ('A' for Active; 'I' for Inactive)
REMARK    1  A    between atoms: C_1  and  O_2
REMARK    2  A    between atoms: O_2  and  C_3
REMARK    3  A    between atoms: N_5  and  C_6
REMARK    4  A    between atoms: C_6  and  C_7
REMARK    5  A    between atoms: C_12  and  C_14
REMARK    6  A    between atoms: C_17  and  C_18
REMARK    7  A    between atoms: C_18  and  N_19
REMARK                            x       y       z     vdW  Elec       q    Type
REMARK                         _______ _______ _______ _____ _____    ______ ____
ROOT
ATOM      1  C   UNL     1       2.430   6.498  19.467  0.00  0.00    +0.000 A 
ATOM      2  C   UNL     1       2.563   7.100  18.212  0.00  0.00    +0.000 A 
ATOM      3  C   UNL     1       2.183   8.434  18.016  0.00  0.00    +0.000 A 
ATOM      4  C   UNL     1       1.591   9.175  19.048  0.00  0.00    +0.000 A 
ATOM      5  C   UNL     1       1.392   8.549  20.288  0.00  0.00    +0.000 A 
ATOM      6  C   UNL     1       1.815   7.228  20.496  0.00  0.00    +0.000 A 
ENDROOT
BRANCH   1  10
ATOM      7  C   UNL     1       3.602   2.954  19.185  0.00  0.00    +0.000 C 
ATOM      8  O   UNL     1       4.330   2.597  20.107  0.00  0.00    +0.000 OA
ATOM      9  N   UNL     1       3.432   4.273  18.810  0.00  0.00    +0.000 N 
ATOM     10  C   UNL     1       2.818   5.082  19.763  0.00  0.00    +0.000 C 
ATOM     11  O   UNL     1       2.590   4.715  20.918  0.00  0.00    +0.000 OA
BRANCH   7  13
ATOM     12  C   UNL     1       1.582   1.828  18.726  0.00  0.00    +0.000 C 
ATOM     13  O   UNL     1       2.948   2.078  18.364  0.00  0.00    +0.000 OA
ENDBRANCH   7  13
BRANCH   9  14
ATOM     14  C   UNL     1       3.534   4.621  17.402  0.00  0.00    +0.000 C 
BRANCH  14  15
ATOM     15  C   UNL     1       4.923   4.629  16.870  0.00  0.00    +0.000 A 
ATOM     16  C   UNL     1       5.489   4.310  15.653  0.00  0.00    +0.000 A 
ATOM     17  C   UNL     1       6.892   4.360  15.842  0.00  0.00    +0.000 A 
ATOM     18  C   UNL     1       7.091   4.719  17.154  0.00  0.00    +0.000 A 
ATOM     19  O   UNL     1       5.903   4.886  17.785  0.00  0.00    +0.000 OA
ENDBRANCH  14  15
ENDBRANCH   9  14
ENDBRANCH   1  10
BRANCH   4  20
ATOM     20  C   UNL     1       1.242  10.630  18.835  0.00  0.00    +0.000 C 
BRANCH  20  21
ATOM     21  N   UNL     1       0.039  11.198  19.444  0.00  0.00    +0.000 N 
ATOM     22  C   UNL     1       0.044  11.701  20.769  0.00  0.00    +0.000 C 
ATOM     23  O   UNL     1       0.979  11.639  21.539  0.00  0.00    +0.000 OA
ATOM     24  C   UNL     1      -1.274  12.267  21.093  0.00  0.00    +0.000 A 
ATOM     25  C   UNL     1      -1.673  12.744  22.334  0.00  0.00    +0.000 A 
ATOM     26  C   UNL     1      -3.016  13.086  22.500  0.00  0.00    +0.000 A 
ATOM     27  C   UNL     1      -3.931  12.914  21.444  0.00  0.00    +0.000 A 
ATOM     28  C   UNL     1      -3.503  12.474  20.184  0.00  0.00    +0.000 A 
ATOM     29  C   UNL     1      -2.156  12.209  20.027  0.00  0.00    +0.000 A 
ATOM     30  S   UNL     1      -1.312  11.690  18.583  0.00  0.00    +0.000 S 
ATOM     31  O   UNL     1      -0.976  12.874  17.826  0.00  0.00    +0.000 OA
ATOM     32  O   UNL     1      -2.006  10.552  18.040  0.00  0.00    +0.000 OA
ENDBRANCH  20  21
ENDBRANCH   4  20
TORSDOF 6
ENDMDL
MODEL 6
REMARK VINA RESULT:      -8.5      1.241      2.302
REMARK  Name = 
REMARK  7 active torsions:
REMARK  status: ('A' for Active; 'I' for Inactive)
REMARK    1  A    between atoms: C_1  and  O_2
REMARK    2  A    between atoms: O_2  and  C_3
REMARK    3  A    between atoms: N_5  and  C_6
REMARK    4  A    between atoms: C_6  and  C_7
REMARK    5  A    between atoms: C_12  and  C_14
REMARK    6  A    between atoms: C_17  and  C_18
REMARK    7  A    between atoms: C_18  and  N_19
REMARK                            x       y       z     vdW  Elec       q    Type
REMARK                         _______ _______ _______ _____ _____    ______ ____
ROOT
ATOM      1  C   UNL     1       2.323   6.477  19.480  0.00  0.00    +0.000 A 
ATOM      2  C   UNL     1       1.859   7.316  20.498  0.00  0.00    +0.000 A 
ATOM      3  C   UNL     1       1.514   8.646  20.225  0.00  0.00    +0.000 A 
ATOM      4  C   UNL     1       1.695   9.191  18.946  0.00  0.00    +0.000 A 
ATOM      5  C   UNL     1       2.227   8.369  17.941  0.00  0.00    +0.000 A 
ATOM      6  C   UNL     1       2.529   7.025  18.205  0.00  0.00    +0.000 A 
ENDROOT
BRANCH   1  10
ATOM      7  C   UNL     1       3.933   3.108  19.209  0.00  0.00    +0.000 C 
ATOM      8  O   UNL     1       4.188   2.591  20.293  0.00  0.00    +0.000 OA
ATOM      9  N   UNL     1       3.791   4.470  19.025  0.00  0.00    +0.000 N 
ATOM     10  C   UNL     1       2.707   5.044  19.685  0.00  0.00    +0.000 C 
ATOM     11  O   UNL     1       2.016   4.438  20.508  0.00  0.00    +0.000 OA
BRANCH   7  13
ATOM     12  C   UNL     1       2.523   2.020  17.666  0.00  0.00    +0.000 C 
ATOM     13  O   UNL     1       3.854   2.401  18.042  0.00  0.00    +0.000 OA
ENDBRANCH   7  13
BRANCH   9  14
ATOM     14  C   UNL     1       4.490   5.106  17.920  0.00  0.00    +0.000 C 
BRANCH  14  15
ATOM     15  C   UNL     1       5.816   5.674  18.279  0.00  0.00    +0.000 A 
ATOM     16  C   UNL     1       6.662   6.591  17.690  0.00  0.00    +0.000 A 
ATOM     17  C   UNL     1       7.860   6.570  18.443  0.00  0.00    +0.000 A 
ATOM     18  C   UNL     1       7.665   5.654  19.450  0.00  0.00    +0.000 A 
ATOM     19  O   UNL     1       6.428   5.107  19.359  0.00  0.00    +0.000 OA
ENDBRANCH  14  15
ENDBRANCH   9  14
ENDBRANCH   1  10
BRANCH   4  20
ATOM     20  C   UNL     1       1.261  10.609  18.656  0.00  0.00    +0.000 C 
BRANCH  20  21
ATOM     21  N   UNL     1       0.184  11.225  19.432  0.00  0.00    +0.000 N 
ATOM     22  C   UNL     1       0.437  11.882  20.662  0.00  0.00    +0.000 C 
ATOM     23  O   UNL     1       1.510  11.929  21.224  0.00  0.00    +0.000 OA
ATOM     24  C   UNL     1      -0.810  12.460  21.185  0.00  0.00    +0.000 A 
ATOM     25  C   UNL     1      -0.969  13.075  22.419  0.00  0.00    +0.000 A 
ATOM     26  C   UNL     1      -2.263  13.411  22.818  0.00  0.00    +0.000 A 
ATOM     27  C   UNL     1      -3.366  13.100  22.000  0.00  0.00    +0.000 A 
ATOM     28  C   UNL     1      -3.184  12.520  20.736  0.00  0.00    +0.000 A 
ATOM     29  C   UNL     1      -1.887  12.261  20.336  0.00  0.00    +0.000 A 
ATOM     30  S   UNL     1      -1.332  11.588  18.818  0.00  0.00    +0.000 S 
ATOM     31  O   UNL     1      -1.205  12.679  17.878  0.00  0.00    +0.000 OA
ATOM     32  O   UNL     1      -2.074  10.381  18.562  0.00  0.00    +0.000 OA
ENDBRANCH  20  21
ENDBRANCH   4  20
TORSDOF 6
ENDMDL
MODEL 7
REMARK VINA RESULT:      -8.5      0.977      1.457
REMARK  Name = 
REMARK  7 active torsions:
REMARK  status: ('A' for Active; 'I' for Inactive)
REMARK    1  A    between atoms: C_1  and  O_2
REMARK    2  A    between atoms: O_2  and  C_3
REMARK    3  A    between atoms: N_5  and  C_6
REMARK    4  A    between atoms: C_6  and  C_7
REMARK    5  A    between atoms: C_12  and  C_14
REMARK    6  A    between atoms: C_17  and  C_18
REMARK    7  A    between atoms: C_18  and  N_19
REMARK                            x       y       z     vdW  Elec       q    Type
REMARK                         _______ _______ _______ _____ _____    ______ ____
ROOT
ATOM      1  C   UNL     1       2.285   6.834  19.513  0.00  0.00    +0.000 A 
ATOM      2  C   UNL     1       1.648   7.614  20.484  0.00  0.00    +0.000 A 
ATOM      3  C   UNL     1       1.219   8.914  20.187  0.00  0.00    +0.000 A 
ATOM      4  C   UNL     1       1.482   9.494  18.939  0.00  0.00    +0.000 A 
ATOM      5  C   UNL     1       2.183   8.737  17.988  0.00  0.00    +0.000 A 
ATOM      6  C   UNL     1       2.573   7.420  18.271  0.00  0.00    +0.000 A 
ENDROOT
BRANCH   1  10
ATOM      7  C   UNL     1       3.712   3.401  19.077  0.00  0.00    +0.000 C 
ATOM      8  O   UNL     1       4.446   3.048  19.996  0.00  0.00    +0.000 OA
ATOM      9  N   UNL     1       3.456   4.722  18.766  0.00  0.00    +0.000 N 
ATOM     10  C   UNL     1       2.768   5.436  19.745  0.00  0.00    +0.000 C 
ATOM     11  O   UNL     1       2.546   4.994  20.875  0.00  0.00    +0.000 OA
BRANCH   7  13
ATOM     12  C   UNL     1       1.826   2.080  18.573  0.00  0.00    +0.000 C 
ATOM     13  O   UNL     1       3.138   2.525  18.198  0.00  0.00    +0.000 OA
ENDBRANCH   7  13
BRANCH   9  14
ATOM     14  C   UNL     1       3.558   5.150  17.379  0.00  0.00    +0.000 C 
BRANCH  14  15
ATOM     15  C   UNL     1       4.930   5.072  16.813  0.00  0.00    +0.000 A 
ATOM     16  C   UNL     1       5.500   4.385  15.761  0.00  0.00    +0.000 A 
ATOM     17  C   UNL     1       6.896   4.605  15.852  0.00  0.00    +0.000 A 
ATOM     18  C   UNL     1       7.087   5.422  16.941  0.00  0.00    +0.000 A 
ATOM     19  O   UNL     1       5.901   5.712  17.529  0.00  0.00    +0.000 OA
ENDBRANCH  14  15
ENDBRANCH   9  14
ENDBRANCH   1  10
BRANCH   4  20
ATOM     20  C   UNL     1       0.959  10.874  18.617  0.00  0.00    +0.000 C 
BRANCH  20  21
ATOM     21  N   UNL     1      -0.469  11.170  18.738  0.00  0.00    +0.000 N 
ATOM     22  C   UNL     1      -1.438  10.477  17.969  0.00  0.00    +0.000 C 
ATOM     23  O   UNL     1      -1.196   9.662  17.105  0.00  0.00    +0.000 OA
ATOM     24  C   UNL     1      -2.786  10.931  18.340  0.00  0.00    +0.000 A 
ATOM     25  C   UNL     1      -3.971  10.559  17.720  0.00  0.00    +0.000 A 
ATOM     26  C   UNL     1      -5.140  11.222  18.097  0.00  0.00    +0.000 A 
ATOM     27  C   UNL     1      -5.099  12.255  19.052  0.00  0.00    +0.000 A 
ATOM     28  C   UNL     1      -3.902  12.587  19.702  0.00  0.00    +0.000 A 
ATOM     29  C   UNL     1      -2.772  11.868  19.360  0.00  0.00    +0.000 A 
ATOM     30  S   UNL     1      -1.154  12.012  20.014  0.00  0.00    +0.000 S 
ATOM     31  O   UNL     1      -1.089  11.192  21.202  0.00  0.00    +0.000 OA
ATOM     32  O   UNL     1      -0.771  13.399  19.966  0.00  0.00    +0.000 OA
ENDBRANCH  20  21
ENDBRANCH   4  20
TORSDOF 6
ENDMDL
MODEL 8
REMARK VINA RESULT:      -8.5      0.881      1.060
REMARK  Name = 
REMARK  7 active torsions:
REMARK  status: ('A' for Active; 'I' for Inactive)
REMARK    1  A    between atoms: C_1  and  O_2
REMARK    2  A    between atoms: O_2  and  C_3
REMARK    3  A    between atoms: N_5  and  C_6
REMARK    4  A    between atoms: C_6  and  C_7
REMARK    5  A    between atoms: C_12  and  C_14
REMARK    6  A    between atoms: C_17  and  C_18
REMARK    7  A    between atoms: C_18  and  N_19
REMARK                            x       y       z     vdW  Elec       q    Type
REMARK                         _______ _______ _______ _____ _____    ______ ____
ROOT
ATOM      1  C   UNL     1       2.315   7.010  19.217  0.00  0.00    +0.000 A 
ATOM      2  C   UNL     1       2.426   7.637  17.971  0.00  0.00    +0.000 A 
ATOM      3  C   UNL     1       2.085   8.988  17.818  0.00  0.00    +0.000 A 
ATOM      4  C   UNL     1       1.555   9.723  18.887  0.00  0.00    +0.000 A 
ATOM      5  C   UNL     1       1.378   9.076  20.119  0.00  0.00    +0.000 A 
ATOM      6  C   UNL     1       1.761   7.737  20.282  0.00  0.00    +0.000 A 
ENDROOT
BRANCH   1  10
ATOM      7  C   UNL     1       3.819   3.587  19.032  0.00  0.00    +0.000 C 
ATOM      8  O   UNL     1       4.092   3.105  20.128  0.00  0.00    +0.000 OA
ATOM      9  N   UNL     1       3.710   4.945  18.799  0.00  0.00    +0.000 N 
ATOM     10  C   UNL     1       2.663   5.576  19.467  0.00  0.00    +0.000 C 
ATOM     11  O   UNL     1       1.982   5.023  20.334  0.00  0.00    +0.000 OA
BRANCH   7  13
ATOM     12  C   UNL     1       2.384   2.258  17.717  0.00  0.00    +0.000 C 
ATOM     13  O   UNL     1       3.684   2.838  17.896  0.00  0.00    +0.000 OA
ENDBRANCH   7  13
BRANCH   9  14
ATOM     14  C   UNL     1       4.393   5.517  17.649  0.00  0.00    +0.000 C 
BRANCH  14  15
ATOM     15  C   UNL     1       5.801   5.917  17.908  0.00  0.00    +0.000 A 
ATOM     16  C   UNL     1       6.753   5.543  18.834  0.00  0.00    +0.000 A 
ATOM     17  C   UNL     1       7.846   6.425  18.660  0.00  0.00    +0.000 A 
ATOM     18  C   UNL     1       7.500   7.270  17.632  0.00  0.00    +0.000 A 
ATOM     19  O   UNL     1       6.262   6.968  17.168  0.00  0.00    +0.000 OA
ENDBRANCH  14  15
ENDBRANCH   9  14
ENDBRANCH   1  10
BRANCH   4  20
ATOM     20  C   UNL     1       1.250  11.194  18.719  0.00  0.00    +0.000 C 
BRANCH  20  21
ATOM     21  N   UNL     1       0.016  11.760  19.265  0.00  0.00    +0.000 N 
ATOM     22  C   UNL     1      -1.258  11.358  18.791  0.00  0.00    +0.000 C 
ATOM     23  O   UNL     1      -1.455  10.601  17.864  0.00  0.00    +0.000 OA
ATOM     24  C   UNL     1      -2.313  12.037  19.559  0.00  0.00    +0.000 A 
ATOM     25  C   UNL     1      -3.675  11.978  19.301  0.00  0.00    +0.000 A 
ATOM     26  C   UNL     1      -4.514  12.823  20.029  0.00  0.00    +0.000 A 
ATOM     27  C   UNL     1      -3.978  13.726  20.967  0.00  0.00    +0.000 A 
ATOM     28  C   UNL     1      -2.604  13.741  21.248  0.00  0.00    +0.000 A 
ATOM     29  C   UNL     1      -1.805  12.845  20.563  0.00  0.00    +0.000 A 
ATOM     30  S   UNL     1      -0.079  12.592  20.716  0.00  0.00    +0.000 S 
ATOM     31  O   UNL     1       0.130  11.661  21.801  0.00  0.00    +0.000 OA
ATOM     32  O   UNL     1       0.575  13.869  20.608  0.00  0.00    +0.000 OA
ENDBRANCH  20  21
ENDBRANCH   4  20
TORSDOF 6
ENDMDL
MODEL 9
REMARK VINA RESULT:      -8.4      1.622      2.494
REMARK  Name = 
REMARK  7 active torsions:
REMARK  status: ('A' for Active; 'I' for Inactive)
REMARK    1  A    between atoms: C_1  and  O_2
REMARK    2  A    between atoms: O_2  and  C_3
REMARK    3  A    between atoms: N_5  and  C_6
REMARK    4  A    between atoms: C_6  and  C_7
REMARK    5  A    between atoms: C_12  and  C_14
REMARK    6  A    between atoms: C_17  and  C_18
REMARK    7  A    between atoms: C_18  and  N_19
REMARK                            x       y       z     vdW  Elec       q    Type
REMARK                         _______ _______ _______ _____ _____    ______ ____
ROOT
ATOM      1  C   UNL     1       2.111   6.435  19.448  0.00  0.00    +0.000 A 
ATOM      2  C   UNL     1       2.188   7.004  18.172  0.00  0.00    +0.000 A 
ATOM      3  C   UNL     1       1.943   8.371  17.984  0.00  0.00    +0.000 A 
ATOM      4  C   UNL     1       1.542   9.185  19.052  0.00  0.00    +0.000 A 
ATOM      5  C   UNL     1       1.396   8.600  20.318  0.00  0.00    +0.000 A 
ATOM      6  C   UNL     1       1.686   7.242  20.514  0.00  0.00    +0.000 A 
ENDROOT
BRANCH   1  10
ATOM      7  C   UNL     1       3.724   3.094  19.952  0.00  0.00    +0.000 C 
ATOM      8  O   UNL     1       3.303   2.483  20.930  0.00  0.00    +0.000 OA
ATOM      9  N   UNL     1       3.654   4.468  19.820  0.00  0.00    +0.000 N 
ATOM     10  C   UNL     1       2.364   4.987  19.736  0.00  0.00    +0.000 C 
ATOM     11  O   UNL     1       1.349   4.315  19.932  0.00  0.00    +0.000 OA
BRANCH   7  13
ATOM     12  C   UNL     1       3.596   1.601  18.133  0.00  0.00    +0.000 C 
ATOM     13  O   UNL     1       4.395   2.493  18.923  0.00  0.00    +0.000 OA
ENDBRANCH   7  13
BRANCH   9  14
ATOM     14  C   UNL     1       4.845   5.195  19.408  0.00  0.00    +0.000 C 
BRANCH  14  15
ATOM     15  C   UNL     1       5.228   4.990  17.986  0.00  0.00    +0.000 A 
ATOM     16  C   UNL     1       4.529   4.950  16.797  0.00  0.00    +0.000 A 
ATOM     17  C   UNL     1       5.453   4.539  15.806  0.00  0.00    +0.000 A 
ATOM     18  C   UNL     1       6.657   4.368  16.449  0.00  0.00    +0.000 A 
ATOM     19  O   UNL     1       6.530   4.641  17.771  0.00  0.00    +0.000 OA
ENDBRANCH  14  15
ENDBRANCH   9  14
ENDBRANCH   1  10
BRANCH   4  20
ATOM     20  C   UNL     1       1.340  10.668  18.841  0.00  0.00    +0.000 C 
BRANCH  20  21
ATOM     21  N   UNL     1       0.267  11.375  19.541  0.00  0.00    +0.000 N 
ATOM     22  C   UNL     1       0.498  12.046  20.768  0.00  0.00    +0.000 C 
ATOM     23  O   UNL     1       1.540  12.036  21.388  0.00  0.00    +0.000 OA
ATOM     24  C   UNL     1      -0.734  12.719  21.208  0.00  0.00    +0.000 A 
ATOM     25  C   UNL     1      -0.917  13.375  22.417  0.00  0.00    +0.000 A 
ATOM     26  C   UNL     1      -2.205  13.807  22.736  0.00  0.00    +0.000 A 
ATOM     27  C   UNL     1      -3.280  13.548  21.866  0.00  0.00    +0.000 A 
ATOM     28  C   UNL     1      -3.071  12.925  20.627  0.00  0.00    +0.000 A 
ATOM     29  C   UNL     1      -1.774  12.569  20.306  0.00  0.00    +0.000 A 
ATOM     30  S   UNL     1      -1.186  11.822  18.836  0.00  0.00    +0.000 S 
ATOM     31  O   UNL     1      -0.935  12.876  17.881  0.00  0.00    +0.000 OA
ATOM     32  O   UNL     1      -1.993  10.660  18.567  0.00  0.00    +0.000 OA
ENDBRANCH  20  21
ENDBRANCH   4  20
TORSDOF 6
ENDMDL
