MODEL 1
REMARK VINA RESULT:      -7.9      0.000      0.000
REMARK  Name = 
REMARK  9 active torsions:
REMARK  status: ('A' for Active; 'I' for Inactive)
REMARK    1  A    between atoms: C_1  and  O_2
REMARK    2  A    between atoms: O_2  and  C_3
REMARK    3  A    between atoms: C_3  and  C_5
REMARK    4  A    between atoms: C_8  and  C_9
REMARK    5  A    between atoms: C_12  and  N_13
REMARK    6  A    between atoms: C_14  and  C_16
REMARK    7  A    between atoms: C_19  and  C_20
REMARK    8  A    between atoms: C_28  and  O_29
REMARK    9  A    between atoms: O_29  and  C_30
REMARK                            x       y       z     vdW  Elec       q    Type
REMARK                         _______ _______ _______ _____ _____    ______ ____
ROOT
ATOM      1  C   UNL     1       2.935   6.868  18.485  0.00  0.00    +0.000 A 
ATOM      2  C   UNL     1       2.447   6.674  19.777  0.00  0.00    +0.000 A 
ATOM      3  C   UNL     1       1.631   7.644  20.373  0.00  0.00    +0.000 A 
ATOM      4  C   UNL     1       1.285   8.816  19.705  0.00  0.00    +0.000 A 
ATOM      5  C   UNL     1       1.745   9.003  18.405  0.00  0.00    +0.000 A 
ATOM      6  C   UNL     1       2.576   8.039  17.808  0.00  0.00    +0.000 A 
ENDROOT
BRANCH   1  10
ATOM      7  C   UNL     1       5.643   5.079  16.581  0.00  0.00    +0.000 A 
ATOM      8  S   UNL     1       4.592   3.714  16.765  0.00  0.00    +0.000 S 
ATOM      9  C   UNL     1       3.461   4.608  17.644  0.00  0.00    +0.000 A 
ATOM     10  C   UNL     1       3.843   5.920  17.842  0.00  0.00    +0.000 A 
ATOM     11  C   UNL     1       5.118   6.198  17.213  0.00  0.00    +0.000 A 
BRANCH   7  12
ATOM     12  C   UNL     1       6.870   4.849  15.843  0.00  0.00    +0.000 C 
ATOM     13  O   UNL     1       7.925   4.428  16.278  0.00  0.00    +0.000 OA
BRANCH  12  15
ATOM     14  C   UNL     1       6.493   4.149  13.616  0.00  0.00    +0.000 C 
ATOM     15  O   UNL     1       6.696   5.221  14.529  0.00  0.00    +0.000 OA
ENDBRANCH  12  15
ENDBRANCH   7  12
BRANCH  11  16
ATOM     16  O   UNL     1       5.640   7.455  17.324  0.00  0.00    +0.000 OA
ATOM     17  C   UNL     1       7.030   7.582  17.561  0.00  0.00    +0.000 C 
ENDBRANCH  11  16
ENDBRANCH   1  10
BRANCH   4  18
ATOM     18  N   UNL     1       0.471   9.806  20.325  0.00  0.00    +0.000 N 
ATOM     19  C   UNL     1       0.653  10.246  21.632  0.00  0.00    +0.000 C 
ATOM     20  O   UNL     1       1.525   9.886  22.403  0.00  0.00    +0.000 OA
ATOM     21  H   UNL     1      -0.211  10.268  19.732  0.00  0.00    +0.000 HD
BRANCH  19  22
ATOM     22  C   UNL     1      -0.267  11.284  22.145  0.00  0.00    +0.000 A 
ATOM     23  C   UNL     1      -0.275  12.608  21.721  0.00  0.00    +0.000 A 
ATOM     24  C   UNL     1      -1.294  13.457  22.169  0.00  0.00    +0.000 A 
ATOM     25  C   UNL     1      -2.275  12.968  23.042  0.00  0.00    +0.000 A 
ATOM     26  N   UNL     1      -2.253  11.680  23.482  0.00  0.00    +0.000 NA
ATOM     27  C   UNL     1      -1.270  10.872  23.017  0.00  0.00    +0.000 A 
BRANCH  25  28
ATOM     28  C   UNL     1      -3.418  13.864  23.501  0.00  0.00    +0.000 C 
ATOM     29  F   UNL     1      -4.545  13.165  23.831  0.00  0.00    +0.000 F 
ATOM     30  F   UNL     1      -3.112  14.598  24.610  0.00  0.00    +0.000 F 
ATOM     31  F   UNL     1      -3.812  14.758  22.550  0.00  0.00    +0.000 F 
ENDBRANCH  25  28
ENDBRANCH  19  22
ENDBRANCH   4  18
TORSDOF 7
ENDMDL
MODEL 2
REMARK VINA RESULT:      -7.9      0.768      1.296
REMARK  Name = 
REMARK  9 active torsions:
REMARK  status: ('A' for Active; 'I' for Inactive)
REMARK    1  A    between atoms: C_1  and  O_2
REMARK    2  A    between atoms: O_2  and  C_3
REMARK    3  A    between atoms: C_3  and  C_5
REMARK    4  A    between atoms: C_8  and  C_9
REMARK    5  A    between atoms: C_12  and  N_13
REMARK    6  A    between atoms: C_14  and  C_16
REMARK    7  A    between atoms: C_19  and  C_20
REMARK    8  A    between atoms: C_28  and  O_29
REMARK    9  A    between atoms: O_29  and  C_30
REMARK                            x       y       z     vdW  Elec       q    Type
REMARK                         _______ _______ _______ _____ _____    ______ ____
ROOT
ATOM      1  C   UNL     1       2.987   6.897  18.475  0.00  0.00    +0.000 A 
ATOM      2  C   UNL     1       2.469   8.023  17.836  0.00  0.00    +0.000 A 
ATOM      3  C   UNL     1       1.574   8.863  18.510  0.00  0.00    +0.000 A 
ATOM      4  C   UNL     1       1.180   8.608  19.821  0.00  0.00    +0.000 A 
ATOM      5  C   UNL     1       1.715   7.501  20.473  0.00  0.00    +0.000 A 
ATOM      6  C   UNL     1       2.602   6.646  19.797  0.00  0.00    +0.000 A 
ENDROOT
BRANCH   1  10
ATOM      7  C   UNL     1       5.641   5.110  16.493  0.00  0.00    +0.000 A 
ATOM      8  S   UNL     1       4.567   3.760  16.654  0.00  0.00    +0.000 S 
ATOM      9  C   UNL     1       3.462   4.651  17.568  0.00  0.00    +0.000 A 
ATOM     10  C   UNL     1       3.871   5.950  17.796  0.00  0.00    +0.000 A 
ATOM     11  C   UNL     1       5.144   6.221  17.161  0.00  0.00    +0.000 A 
BRANCH   7  12
ATOM     12  C   UNL     1       6.856   4.878  15.735  0.00  0.00    +0.000 C 
ATOM     13  O   UNL     1       7.918   4.456  16.154  0.00  0.00    +0.000 OA
BRANCH  12  15
ATOM     14  C   UNL     1       6.485   4.171  13.510  0.00  0.00    +0.000 C 
ATOM     15  O   UNL     1       6.660   5.246  14.424  0.00  0.00    +0.000 OA
ENDBRANCH  12  15
ENDBRANCH   7  12
BRANCH  11  16
ATOM     16  O   UNL     1       5.690   7.465  17.299  0.00  0.00    +0.000 OA
ATOM     17  C   UNL     1       7.076   7.559  17.575  0.00  0.00    +0.000 C 
ENDBRANCH  11  16
ENDBRANCH   1  10
BRANCH   4  18
ATOM     18  N   UNL     1       0.255   9.456  20.493  0.00  0.00    +0.000 N 
ATOM     19  C   UNL     1       0.459  10.819  20.687  0.00  0.00    +0.000 C 
ATOM     20  O   UNL     1       1.412  11.472  20.295  0.00  0.00    +0.000 OA
ATOM     21  H   UNL     1      -0.634   9.042  20.752  0.00  0.00    +0.000 HD
BRANCH  19  22
ATOM     22  C   UNL     1      -0.589  11.578  21.401  0.00  0.00    +0.000 A 
ATOM     23  C   UNL     1      -1.353  12.590  20.831  0.00  0.00    +0.000 A 
ATOM     24  C   UNL     1      -2.418  13.129  21.564  0.00  0.00    +0.000 A 
ATOM     25  C   UNL     1      -2.686  12.655  22.855  0.00  0.00    +0.000 A 
ATOM     26  N   UNL     1      -1.921  11.684  23.427  0.00  0.00    +0.000 NA
ATOM     27  C   UNL     1      -0.911  11.164  22.690  0.00  0.00    +0.000 A 
BRANCH  25  28
ATOM     28  C   UNL     1      -3.870  13.194  23.647  0.00  0.00    +0.000 C 
ATOM     29  F   UNL     1      -4.857  13.707  22.851  0.00  0.00    +0.000 F 
ATOM     30  F   UNL     1      -4.482  12.243  24.411  0.00  0.00    +0.000 F 
ATOM     31  F   UNL     1      -3.530  14.204  24.497  0.00  0.00    +0.000 F 
ENDBRANCH  25  28
ENDBRANCH  19  22
ENDBRANCH   4  18
TORSDOF 7
ENDMDL
MODEL 3
REMARK VINA RESULT:      -7.8      0.779      1.261
REMARK  Name = 
REMARK  9 active torsions:
REMARK  status: ('A' for Active; 'I' for Inactive)
REMARK    1  A    between atoms: C_1  and  O_2
REMARK    2  A    between atoms: O_2  and  C_3
REMARK    3  A    between atoms: C_3  and  C_5
REMARK    4  A    between atoms: C_8  and  C_9
REMARK    5  A    between atoms: C_12  and  N_13
REMARK    6  A    between atoms: C_14  and  C_16
REMARK    7  A    between atoms: C_19  and  C_20
REMARK    8  A    between atoms: C_28  and  O_29
REMARK    9  A    between atoms: O_29  and  C_30
REMARK                            x       y       z     vdW  Elec       q    Type
REMARK                         _______ _______ _______ _____ _____    ______ ____
ROOT
ATOM      1  C   UNL     1       2.958   6.925  18.435  0.00  0.00    +0.000 A 
ATOM      2  C   UNL     1       2.456   6.758  19.725  0.00  0.00    +0.000 A 
ATOM      3  C   UNL     1       1.641   7.744  20.295  0.00  0.00    +0.000 A 
ATOM      4  C   UNL     1       1.310   8.906  19.604  0.00  0.00    +0.000 A 
ATOM      5  C   UNL     1       1.786   9.067  18.306  0.00  0.00    +0.000 A 
ATOM      6  C   UNL     1       2.615   8.087  17.734  0.00  0.00    +0.000 A 
ENDROOT
BRANCH   1  10
ATOM      7  C   UNL     1       5.674   5.084  16.592  0.00  0.00    +0.000 A 
ATOM      8  S   UNL     1       4.608   3.731  16.784  0.00  0.00    +0.000 S 
ATOM      9  C   UNL     1       3.474   4.649  17.634  0.00  0.00    +0.000 A 
ATOM     10  C   UNL     1       3.866   5.960  17.817  0.00  0.00    +0.000 A 
ATOM     11  C   UNL     1       5.151   6.217  17.201  0.00  0.00    +0.000 A 
BRANCH   7  12
ATOM     12  C   UNL     1       6.908   4.832  15.873  0.00  0.00    +0.000 C 
ATOM     13  O   UNL     1       7.945   4.382  16.323  0.00  0.00    +0.000 OA
BRANCH  12  15
ATOM     14  C   UNL     1       6.474   4.168  13.646  0.00  0.00    +0.000 C 
ATOM     15  O   UNL     1       6.765   5.218  14.560  0.00  0.00    +0.000 OA
ENDBRANCH  12  15
ENDBRANCH   7  12
BRANCH  11  16
ATOM     16  O   UNL     1       5.683   7.470  17.300  0.00  0.00    +0.000 OA
ATOM     17  C   UNL     1       7.074   7.589  17.538  0.00  0.00    +0.000 C 
ENDBRANCH  11  16
ENDBRANCH   1  10
BRANCH   4  18
ATOM     18  N   UNL     1       0.498   9.913  20.197  0.00  0.00    +0.000 N 
ATOM     19  C   UNL     1       0.614  10.315  21.525  0.00  0.00    +0.000 C 
ATOM     20  O   UNL     1       1.422   9.901  22.339  0.00  0.00    +0.000 OA
ATOM     21  H   UNL     1      -0.127  10.416  19.576  0.00  0.00    +0.000 HD
BRANCH  19  22
ATOM     22  C   UNL     1      -0.296  11.375  22.007  0.00  0.00    +0.000 A 
ATOM     23  C   UNL     1      -1.344  11.169  22.896  0.00  0.00    +0.000 A 
ATOM     24  C   UNL     1      -2.038  12.278  23.395  0.00  0.00    +0.000 A 
ATOM     25  C   UNL     1      -1.679  13.568  22.983  0.00  0.00    +0.000 A 
ATOM     26  N   UNL     1      -0.672  13.772  22.089  0.00  0.00    +0.000 NA
ATOM     27  C   UNL     1      -0.001  12.684  21.638  0.00  0.00    +0.000 A 
BRANCH  25  28
ATOM     28  C   UNL     1      -2.389  14.789  23.553  0.00  0.00    +0.000 C 
ATOM     29  F   UNL     1      -2.644  15.747  22.612  0.00  0.00    +0.000 F 
ATOM     30  F   UNL     1      -3.603  14.493  24.103  0.00  0.00    +0.000 F 
ATOM     31  F   UNL     1      -1.673  15.419  24.527  0.00  0.00    +0.000 F 
ENDBRANCH  25  28
ENDBRANCH  19  22
ENDBRANCH   4  18
TORSDOF 7
ENDMDL
MODEL 4
REMARK VINA RESULT:      -7.8      1.225      1.262
REMARK  Name = 
REMARK  9 active torsions:
REMARK  status: ('A' for Active; 'I' for Inactive)
REMARK    1  A    between atoms: C_1  and  O_2
REMARK    2  A    between atoms: O_2  and  C_3
REMARK    3  A    between atoms: C_3  and  C_5
REMARK    4  A    between atoms: C_8  and  C_9
REMARK    5  A    between atoms: C_12  and  N_13
REMARK    6  A    between atoms: C_14  and  C_16
REMARK    7  A    between atoms: C_19  and  C_20
REMARK    8  A    between atoms: C_28  and  O_29
REMARK    9  A    between atoms: O_29  and  C_30
REMARK                            x       y       z     vdW  Elec       q    Type
REMARK                         _______ _______ _______ _____ _____    ______ ____
ROOT
ATOM      1  C   UNL     1       3.170   6.635  18.204  0.00  0.00    +0.000 A 
ATOM      2  C   UNL     1       2.735   6.358  19.500  0.00  0.00    +0.000 A 
ATOM      3  C   UNL     1       2.007   7.316  20.216  0.00  0.00    +0.000 A 
ATOM      4  C   UNL     1       1.697   8.557  19.668  0.00  0.00    +0.000 A 
ATOM      5  C   UNL     1       2.104   8.830  18.365  0.00  0.00    +0.000 A 
ATOM      6  C   UNL     1       2.847   7.878  17.646  0.00  0.00    +0.000 A 
ENDROOT
BRANCH   1  10
ATOM      7  C   UNL     1       5.579   4.880  15.907  0.00  0.00    +0.000 A 
ATOM      8  S   UNL     1       4.624   3.488  16.298  0.00  0.00    +0.000 S 
ATOM      9  C   UNL     1       3.626   4.371  17.335  0.00  0.00    +0.000 A 
ATOM     10  C   UNL     1       3.990   5.699  17.437  0.00  0.00    +0.000 A 
ATOM     11  C   UNL     1       5.129   5.999  16.595  0.00  0.00    +0.000 A 
BRANCH   7  12
ATOM     12  C   UNL     1       6.672   4.668  14.977  0.00  0.00    +0.000 C 
ATOM     13  O   UNL     1       7.696   5.318  14.882  0.00  0.00    +0.000 OA
BRANCH  12  15
ATOM     14  C   UNL     1       6.643   3.825  12.769  0.00  0.00    +0.000 C 
ATOM     15  O   UNL     1       6.374   3.610  14.148  0.00  0.00    +0.000 OA
ENDBRANCH  12  15
ENDBRANCH   7  12
BRANCH  11  16
ATOM     16  O   UNL     1       5.618   7.274  16.588  0.00  0.00    +0.000 OA
ATOM     17  C   UNL     1       6.756   7.557  17.381  0.00  0.00    +0.000 C 
ENDBRANCH  11  16
ENDBRANCH   1  10
BRANCH   4  18
ATOM     18  N   UNL     1       0.973   9.533  20.410  0.00  0.00    +0.000 N 
ATOM     19  C   UNL     1      -0.148  10.198  19.921  0.00  0.00    +0.000 C 
ATOM     20  O   UNL     1      -0.677  10.026  18.836  0.00  0.00    +0.000 OA
ATOM     21  H   UNL     1       1.250   9.665  21.376  0.00  0.00    +0.000 HD
BRANCH  19  22
ATOM     22  C   UNL     1      -0.803  11.186  20.804  0.00  0.00    +0.000 A 
ATOM     23  C   UNL     1      -1.743  12.119  20.381  0.00  0.00    +0.000 A 
ATOM     24  C   UNL     1      -2.404  12.897  21.338  0.00  0.00    +0.000 A 
ATOM     25  C   UNL     1      -2.100  12.737  22.697  0.00  0.00    +0.000 A 
ATOM     26  N   UNL     1      -1.160  11.845  23.113  0.00  0.00    +0.000 NA
ATOM     27  C   UNL     1      -0.550  11.088  22.169  0.00  0.00    +0.000 A 
BRANCH  25  28
ATOM     28  C   UNL     1      -2.844  13.540  23.756  0.00  0.00    +0.000 C 
ATOM     29  F   UNL     1      -3.571  12.757  24.608  0.00  0.00    +0.000 F 
ATOM     30  F   UNL     1      -2.014  14.269  24.557  0.00  0.00    +0.000 F 
ATOM     31  F   UNL     1      -3.736  14.425  23.228  0.00  0.00    +0.000 F 
ENDBRANCH  25  28
ENDBRANCH  19  22
ENDBRANCH   4  18
TORSDOF 7
ENDMDL
MODEL 5
REMARK VINA RESULT:      -7.7      1.545      1.800
REMARK  Name = 
REMARK  9 active torsions:
REMARK  status: ('A' for Active; 'I' for Inactive)
REMARK    1  A    between atoms: C_1  and  O_2
REMARK    2  A    between atoms: O_2  and  C_3
REMARK    3  A    between atoms: C_3  and  C_5
REMARK    4  A    between atoms: C_8  and  C_9
REMARK    5  A    between atoms: C_12  and  N_13
REMARK    6  A    between atoms: C_14  and  C_16
REMARK    7  A    between atoms: C_19  and  C_20
REMARK    8  A    between atoms: C_28  and  O_29
REMARK    9  A    between atoms: O_29  and  C_30
REMARK                            x       y       z     vdW  Elec       q    Type
REMARK                         _______ _______ _______ _____ _____    ______ ____
ROOT
ATOM      1  C   UNL     1       3.064   7.176  18.323  0.00  0.00    +0.000 A 
ATOM      2  C   UNL     1       2.697   8.302  17.586  0.00  0.00    +0.000 A 
ATOM      3  C   UNL     1       1.825   9.249  18.139  0.00  0.00    +0.000 A 
ATOM      4  C   UNL     1       1.304   9.101  19.422  0.00  0.00    +0.000 A 
ATOM      5  C   UNL     1       1.688   7.994  20.172  0.00  0.00    +0.000 A 
ATOM      6  C   UNL     1       2.552   7.033  19.618  0.00  0.00    +0.000 A 
ENDROOT
BRANCH   1  10
ATOM      7  C   UNL     1       5.692   5.072  16.642  0.00  0.00    +0.000 A 
ATOM      8  S   UNL     1       4.522   3.811  16.841  0.00  0.00    +0.000 S 
ATOM      9  C   UNL     1       3.433   4.840  17.619  0.00  0.00    +0.000 A 
ATOM     10  C   UNL     1       3.916   6.124  17.771  0.00  0.00    +0.000 A 
ATOM     11  C   UNL     1       5.237   6.263  17.193  0.00  0.00    +0.000 A 
BRANCH   7  12
ATOM     12  C   UNL     1       6.927   4.704  15.976  0.00  0.00    +0.000 C 
ATOM     13  O   UNL     1       7.889   4.142  16.465  0.00  0.00    +0.000 OA
BRANCH  12  15
ATOM     14  C   UNL     1       6.514   4.127  13.721  0.00  0.00    +0.000 C 
ATOM     15  O   UNL     1       6.888   5.122  14.665  0.00  0.00    +0.000 OA
ENDBRANCH  12  15
ENDBRANCH   7  12
BRANCH  11  16
ATOM     16  O   UNL     1       5.858   7.476  17.268  0.00  0.00    +0.000 OA
ATOM     17  C   UNL     1       7.236   7.502  17.594  0.00  0.00    +0.000 C 
ENDBRANCH  11  16
ENDBRANCH   1  10
BRANCH   4  18
ATOM     18  N   UNL     1       0.404  10.058  19.969  0.00  0.00    +0.000 N 
ATOM     19  C   UNL     1      -0.742  10.501  19.314  0.00  0.00    +0.000 C 
ATOM     20  O   UNL     1      -1.147  10.125  18.227  0.00  0.00    +0.000 OA
ATOM     21  H   UNL     1       0.575  10.347  20.926  0.00  0.00    +0.000 HD
BRANCH  19  22
ATOM     22  C   UNL     1      -1.588  11.498  20.004  0.00  0.00    +0.000 A 
ATOM     23  C   UNL     1      -2.715  12.092  19.449  0.00  0.00    +0.000 A 
ATOM     24  C   UNL     1      -3.521  12.904  20.256  0.00  0.00    +0.000 A 
ATOM     25  C   UNL     1      -3.174  13.116  21.597  0.00  0.00    +0.000 A 
ATOM     26  N   UNL     1      -2.054  12.559  22.136  0.00  0.00    +0.000 NA
ATOM     27  C   UNL     1      -1.304  11.760  21.341  0.00  0.00    +0.000 A 
BRANCH  25  28
ATOM     28  C   UNL     1      -4.064  13.957  22.503  0.00  0.00    +0.000 C 
ATOM     29  F   UNL     1      -5.062  13.232  23.093  0.00  0.00    +0.000 F 
ATOM     30  F   UNL     1      -3.384  14.537  23.534  0.00  0.00    +0.000 F 
ATOM     31  F   UNL     1      -4.693  14.971  21.844  0.00  0.00    +0.000 F 
ENDBRANCH  25  28
ENDBRANCH  19  22
ENDBRANCH   4  18
TORSDOF 7
ENDMDL
MODEL 6
REMARK VINA RESULT:      -7.7      0.915      1.481
REMARK  Name = 
REMARK  9 active torsions:
REMARK  status: ('A' for Active; 'I' for Inactive)
REMARK    1  A    between atoms: C_1  and  O_2
REMARK    2  A    between atoms: O_2  and  C_3
REMARK    3  A    between atoms: C_3  and  C_5
REMARK    4  A    between atoms: C_8  and  C_9
REMARK    5  A    between atoms: C_12  and  N_13
REMARK    6  A    between atoms: C_14  and  C_16
REMARK    7  A    between atoms: C_19  and  C_20
REMARK    8  A    between atoms: C_28  and  O_29
REMARK    9  A    between atoms: O_29  and  C_30
REMARK                            x       y       z     vdW  Elec       q    Type
REMARK                         _______ _______ _______ _____ _____    ______ ____
ROOT
ATOM      1  C   UNL     1       2.968   7.006  18.466  0.00  0.00    +0.000 A 
ATOM      2  C   UNL     1       2.650   8.134  17.710  0.00  0.00    +0.000 A 
ATOM      3  C   UNL     1       1.789   9.108  18.231  0.00  0.00    +0.000 A 
ATOM      4  C   UNL     1       1.232   8.986  19.501  0.00  0.00    +0.000 A 
ATOM      5  C   UNL     1       1.567   7.877  20.271  0.00  0.00    +0.000 A 
ATOM      6  C   UNL     1       2.419   6.889  19.749  0.00  0.00    +0.000 A 
ENDROOT
BRANCH   1  10
ATOM      7  C   UNL     1       5.512   4.814  16.767  0.00  0.00    +0.000 A 
ATOM      8  S   UNL     1       4.415   3.547  17.205  0.00  0.00    +0.000 S 
ATOM      9  C   UNL     1       3.362   4.620  17.974  0.00  0.00    +0.000 A 
ATOM     10  C   UNL     1       3.807   5.927  17.947  0.00  0.00    +0.000 A 
ATOM     11  C   UNL     1       5.062   6.042  17.234  0.00  0.00    +0.000 A 
BRANCH   7  12
ATOM     12  C   UNL     1       6.694   4.414  16.028  0.00  0.00    +0.000 C 
ATOM     13  O   UNL     1       7.841   4.383  16.433  0.00  0.00    +0.000 OA
BRANCH  12  15
ATOM     14  C   UNL     1       7.063   4.781  13.723  0.00  0.00    +0.000 C 
ATOM     15  O   UNL     1       6.345   4.091  14.737  0.00  0.00    +0.000 OA
ENDBRANCH  12  15
ENDBRANCH   7  12
BRANCH  11  16
ATOM     16  O   UNL     1       5.640   7.274  17.125  0.00  0.00    +0.000 OA
ATOM     17  C   UNL     1       6.966   7.434  17.594  0.00  0.00    +0.000 C 
ENDBRANCH  11  16
ENDBRANCH   1  10
BRANCH   4  18
ATOM     18  N   UNL     1       0.342   9.971  20.015  0.00  0.00    +0.000 N 
ATOM     19  C   UNL     1       0.468  10.539  21.279  0.00  0.00    +0.000 C 
ATOM     20  O   UNL     1       1.346  10.309  22.093  0.00  0.00    +0.000 OA
ATOM     21  H   UNL     1      -0.356  10.331  19.373  0.00  0.00    +0.000 HD
BRANCH  19  22
ATOM     22  C   UNL     1      -0.528  11.555  21.682  0.00  0.00    +0.000 A 
ATOM     23  C   UNL     1      -1.192  11.565  22.903  0.00  0.00    +0.000 A 
ATOM     24  C   UNL     1      -1.997  12.664  23.227  0.00  0.00    +0.000 A 
ATOM     25  C   UNL     1      -2.133  13.721  22.317  0.00  0.00    +0.000 A 
ATOM     26  N   UNL     1      -1.508  13.700  21.108  0.00  0.00    +0.000 NA
ATOM     27  C   UNL     1      -0.717  12.637  20.827  0.00  0.00    +0.000 A 
BRANCH  25  28
ATOM     28  C   UNL     1      -2.966  14.946  22.673  0.00  0.00    +0.000 C 
ATOM     29  F   UNL     1      -3.561  14.850  23.900  0.00  0.00    +0.000 F 
ATOM     30  F   UNL     1      -2.233  16.096  22.717  0.00  0.00    +0.000 F 
ATOM     31  F   UNL     1      -3.982  15.176  21.794  0.00  0.00    +0.000 F 
ENDBRANCH  25  28
ENDBRANCH  19  22
ENDBRANCH   4  18
TORSDOF 7
ENDMDL
MODEL 7
REMARK VINA RESULT:      -7.7      0.502      1.033
REMARK  Name = 
REMARK  9 active torsions:
REMARK  status: ('A' for Active; 'I' for Inactive)
REMARK    1  A    between atoms: C_1  and  O_2
REMARK    2  A    between atoms: O_2  and  C_3
REMARK    3  A    between atoms: C_3  and  C_5
REMARK    4  A    between atoms: C_8  and  C_9
REMARK    5  A    between atoms: C_12  and  N_13
REMARK    6  A    between atoms: C_14  and  C_16
REMARK    7  A    between atoms: C_19  and  C_20
REMARK    8  A    between atoms: C_28  and  O_29
REMARK    9  A    between atoms: O_29  and  C_30
REMARK                            x       y       z     vdW  Elec       q    Type
REMARK                         _______ _______ _______ _____ _____    ______ ____
ROOT
ATOM      1  C   UNL     1       3.021   6.919  18.382  0.00  0.00    +0.000 A 
ATOM      2  C   UNL     1       2.531   6.700  19.669  0.00  0.00    +0.000 A 
ATOM      3  C   UNL     1       1.689   7.644  20.270  0.00  0.00    +0.000 A 
ATOM      4  C   UNL     1       1.316   8.813  19.613  0.00  0.00    +0.000 A 
ATOM      5  C   UNL     1       1.779   9.025  18.317  0.00  0.00    +0.000 A 
ATOM      6  C   UNL     1       2.636   8.088  17.714  0.00  0.00    +0.000 A 
ENDROOT
BRANCH   1  10
ATOM      7  C   UNL     1       5.796   5.217  16.495  0.00  0.00    +0.000 A 
ATOM      8  S   UNL     1       4.756   3.837  16.610  0.00  0.00    +0.000 S 
ATOM      9  C   UNL     1       3.593   4.692  17.486  0.00  0.00    +0.000 A 
ATOM     10  C   UNL     1       3.956   6.001  17.734  0.00  0.00    +0.000 A 
ATOM     11  C   UNL     1       5.243   6.311  17.148  0.00  0.00    +0.000 A 
BRANCH   7  12
ATOM     12  C   UNL     1       7.045   5.023  15.782  0.00  0.00    +0.000 C 
ATOM     13  O   UNL     1       7.353   5.476  14.696  0.00  0.00    +0.000 OA
BRANCH  12  15
ATOM     14  C   UNL     1       7.945   4.476  17.899  0.00  0.00    +0.000 C 
ATOM     15  O   UNL     1       7.866   4.190  16.508  0.00  0.00    +0.000 OA
ENDBRANCH  12  15
ENDBRANCH   7  12
BRANCH  11  16
ATOM     16  O   UNL     1       5.748   7.569  17.311  0.00  0.00    +0.000 OA
ATOM     17  C   UNL     1       7.131   7.703  17.584  0.00  0.00    +0.000 C 
ENDBRANCH  11  16
ENDBRANCH   1  10
BRANCH   4  18
ATOM     18  N   UNL     1       0.475   9.777  20.238  0.00  0.00    +0.000 N 
ATOM     19  C   UNL     1       0.666  10.240  21.536  0.00  0.00    +0.000 C 
ATOM     20  O   UNL     1       1.568   9.926  22.293  0.00  0.00    +0.000 OA
ATOM     21  H   UNL     1      -0.237  10.202  19.655  0.00  0.00    +0.000 HD
BRANCH  19  22
ATOM     22  C   UNL     1      -0.286  11.245  22.056  0.00  0.00    +0.000 A 
ATOM     23  C   UNL     1      -0.389  12.549  21.584  0.00  0.00    +0.000 A 
ATOM     24  C   UNL     1      -1.432  13.358  22.052  0.00  0.00    +0.000 A 
ATOM     25  C   UNL     1      -2.340  12.851  22.992  0.00  0.00    +0.000 A 
ATOM     26  N   UNL     1      -2.224  11.584  23.477  0.00  0.00    +0.000 NA
ATOM     27  C   UNL     1      -1.220  10.814  22.993  0.00  0.00    +0.000 A 
BRANCH  25  28
ATOM     28  C   UNL     1      -3.509  13.700  23.474  0.00  0.00    +0.000 C 
ATOM     29  F   UNL     1      -4.460  12.974  24.134  0.00  0.00    +0.000 F 
ATOM     30  F   UNL     1      -3.134  14.680  24.346  0.00  0.00    +0.000 F 
ATOM     31  F   UNL     1      -4.170  14.326  22.460  0.00  0.00    +0.000 F 
ENDBRANCH  25  28
ENDBRANCH  19  22
ENDBRANCH   4  18
TORSDOF 7
ENDMDL
MODEL 8
REMARK VINA RESULT:      -7.7      0.597      1.410
REMARK  Name = 
REMARK  9 active torsions:
REMARK  status: ('A' for Active; 'I' for Inactive)
REMARK    1  A    between atoms: C_1  and  O_2
REMARK    2  A    between atoms: O_2  and  C_3
REMARK    3  A    between atoms: C_3  and  C_5
REMARK    4  A    between atoms: C_8  and  C_9
REMARK    5  A    between atoms: C_12  and  N_13
REMARK    6  A    between atoms: C_14  and  C_16
REMARK    7  A    between atoms: C_19  and  C_20
REMARK    8  A    between atoms: C_28  and  O_29
REMARK    9  A    between atoms: O_29  and  C_30
REMARK                            x       y       z     vdW  Elec       q    Type
REMARK                         _______ _______ _______ _____ _____    ______ ____
ROOT
ATOM      1  C   UNL     1       3.056   6.927  18.321  0.00  0.00    +0.000 A 
ATOM      2  C   UNL     1       2.736   8.111  17.658  0.00  0.00    +0.000 A 
ATOM      3  C   UNL     1       1.897   9.052  18.268  0.00  0.00    +0.000 A 
ATOM      4  C   UNL     1       1.364   8.841  19.537  0.00  0.00    +0.000 A 
ATOM      5  C   UNL     1       1.702   7.674  20.215  0.00  0.00    +0.000 A 
ATOM      6  C   UNL     1       2.532   6.719  19.603  0.00  0.00    +0.000 A 
ENDROOT
BRANCH   1  10
ATOM      7  C   UNL     1       5.492   4.838  16.354  0.00  0.00    +0.000 A 
ATOM      8  S   UNL     1       4.470   3.534  16.859  0.00  0.00    +0.000 S 
ATOM      9  C   UNL     1       3.464   4.563  17.742  0.00  0.00    +0.000 A 
ATOM     10  C   UNL     1       3.872   5.882  17.705  0.00  0.00    +0.000 A 
ATOM     11  C   UNL     1       5.055   6.044  16.886  0.00  0.00    +0.000 A 
BRANCH   7  12
ATOM     12  C   UNL     1       6.613   4.485  15.504  0.00  0.00    +0.000 C 
ATOM     13  O   UNL     1       6.569   4.040  14.373  0.00  0.00    +0.000 OA
BRANCH  12  15
ATOM     14  C   UNL     1       7.752   4.390  17.573  0.00  0.00    +0.000 C 
ATOM     15  O   UNL     1       7.791   4.692  16.185  0.00  0.00    +0.000 OA
ENDBRANCH  12  15
ENDBRANCH   7  12
BRANCH  11  16
ATOM     16  O   UNL     1       5.590   7.294  16.754  0.00  0.00    +0.000 OA
ATOM     17  C   UNL     1       6.761   7.600  17.489  0.00  0.00    +0.000 C 
ENDBRANCH  11  16
ENDBRANCH   1  10
BRANCH   4  18
ATOM     18  N   UNL     1       0.497   9.794  20.142  0.00  0.00    +0.000 N 
ATOM     19  C   UNL     1       0.655  10.265  21.442  0.00  0.00    +0.000 C 
ATOM     20  O   UNL     1       1.547   9.966  22.218  0.00  0.00    +0.000 OA
ATOM     21  H   UNL     1      -0.210  10.208  19.544  0.00  0.00    +0.000 HD
BRANCH  19  22
ATOM     22  C   UNL     1      -0.321  11.257  21.940  0.00  0.00    +0.000 A 
ATOM     23  C   UNL     1      -0.535  12.506  21.367  0.00  0.00    +0.000 A 
ATOM     24  C   UNL     1      -1.593  13.293  21.836  0.00  0.00    +0.000 A 
ATOM     25  C   UNL     1      -2.405  12.823  22.877  0.00  0.00    +0.000 A 
ATOM     26  N   UNL     1      -2.179  11.613  23.460  0.00  0.00    +0.000 NA
ATOM     27  C   UNL     1      -1.164  10.860  22.974  0.00  0.00    +0.000 A 
BRANCH  25  28
ATOM     28  C   UNL     1      -3.590  13.645  23.366  0.00  0.00    +0.000 C 
ATOM     29  F   UNL     1      -4.578  13.768  22.429  0.00  0.00    +0.000 F 
ATOM     30  F   UNL     1      -4.199  13.107  24.463  0.00  0.00    +0.000 F 
ATOM     31  F   UNL     1      -3.252  14.921  23.707  0.00  0.00    +0.000 F 
ENDBRANCH  25  28
ENDBRANCH  19  22
ENDBRANCH   4  18
TORSDOF 7
ENDMDL
MODEL 9
REMARK VINA RESULT:      -7.7      1.262      1.825
REMARK  Name = 
REMARK  9 active torsions:
REMARK  status: ('A' for Active; 'I' for Inactive)
REMARK    1  A    between atoms: C_1  and  O_2
REMARK    2  A    between atoms: O_2  and  C_3
REMARK    3  A    between atoms: C_3  and  C_5
REMARK    4  A    between atoms: C_8  and  C_9
REMARK    5  A    between atoms: C_12  and  N_13
REMARK    6  A    between atoms: C_14  and  C_16
REMARK    7  A    between atoms: C_19  and  C_20
REMARK    8  A    between atoms: C_28  and  O_29
REMARK    9  A    between atoms: O_29  and  C_30
REMARK                            x       y       z     vdW  Elec       q    Type
REMARK                         _______ _______ _______ _____ _____    ______ ____
ROOT
ATOM      1  C   UNL     1       3.363   6.580  18.151  0.00  0.00    +0.000 A 
ATOM      2  C   UNL     1       2.972   7.840  17.697  0.00  0.00    +0.000 A 
ATOM      3  C   UNL     1       2.166   8.656  18.501  0.00  0.00    +0.000 A 
ATOM      4  C   UNL     1       1.737   8.245  19.760  0.00  0.00    +0.000 A 
ATOM      5  C   UNL     1       2.146   7.001  20.230  0.00  0.00    +0.000 A 
ATOM      6  C   UNL     1       2.943   6.171  19.422  0.00  0.00    +0.000 A 
ENDROOT
BRANCH   1  10
ATOM      7  C   UNL     1       5.685   4.874  15.731  0.00  0.00    +0.000 A 
ATOM      8  S   UNL     1       4.709   3.487  16.084  0.00  0.00    +0.000 S 
ATOM      9  C   UNL     1       3.753   4.345  17.179  0.00  0.00    +0.000 A 
ATOM     10  C   UNL     1       4.146   5.660  17.328  0.00  0.00    +0.000 A 
ATOM     11  C   UNL     1       5.274   5.973  16.474  0.00  0.00    +0.000 A 
BRANCH   7  12
ATOM     12  C   UNL     1       6.753   4.680  14.768  0.00  0.00    +0.000 C 
ATOM     13  O   UNL     1       7.769   5.340  14.650  0.00  0.00    +0.000 OA
BRANCH  12  15
ATOM     14  C   UNL     1       6.713   3.837  12.560  0.00  0.00    +0.000 C 
ATOM     15  O   UNL     1       6.443   3.626  13.940  0.00  0.00    +0.000 OA
ENDBRANCH  12  15
ENDBRANCH   7  12
BRANCH  11  16
ATOM     16  O   UNL     1       5.788   7.237  16.510  0.00  0.00    +0.000 OA
ATOM     17  C   UNL     1       6.925   7.473  17.320  0.00  0.00    +0.000 C 
ENDBRANCH  11  16
ENDBRANCH   1  10
BRANCH   4  18
ATOM     18  N   UNL     1       0.902   9.074  20.563  0.00  0.00    +0.000 N 
ATOM     19  C   UNL     1       0.039  10.033  20.043  0.00  0.00    +0.000 C 
ATOM     20  O   UNL     1      -0.149  10.276  18.863  0.00  0.00    +0.000 OA
ATOM     21  H   UNL     1       0.884   8.871  21.556  0.00  0.00    +0.000 HD
BRANCH  19  22
ATOM     22  C   UNL     1      -0.772  10.820  20.996  0.00  0.00    +0.000 A 
ATOM     23  C   UNL     1      -0.746  10.653  22.376  0.00  0.00    +0.000 A 
ATOM     24  C   UNL     1      -1.443  11.562  23.181  0.00  0.00    +0.000 A 
ATOM     25  C   UNL     1      -2.163  12.609  22.590  0.00  0.00    +0.000 A 
ATOM     26  N   UNL     1      -2.214  12.758  21.237  0.00  0.00    +0.000 NA
ATOM     27  C   UNL     1      -1.513  11.879  20.480  0.00  0.00    +0.000 A 
BRANCH  25  28
ATOM     28  C   UNL     1      -2.886  13.635  23.452  0.00  0.00    +0.000 C 
ATOM     29  F   UNL     1      -2.039  14.363  24.240  0.00  0.00    +0.000 F 
ATOM     30  F   UNL     1      -3.579  14.555  22.721  0.00  0.00    +0.000 F 
ATOM     31  F   UNL     1      -3.786  13.075  24.309  0.00  0.00    +0.000 F 
ENDBRANCH  25  28
ENDBRANCH  19  22
ENDBRANCH   4  18
TORSDOF 7
ENDMDL
