MODEL 1
REMARK VINA RESULT:      -7.5      0.000      0.000
REMARK  Name = 
REMARK  5 active torsions:
REMARK  status: ('A' for Active; 'I' for Inactive)
REMARK    1  A    between atoms: C_1  and  O_2
REMARK    2  A    between atoms: O_2  and  C_3
REMARK    3  A    between atoms: C_3  and  C_5
REMARK    4  A    between atoms: C_5  and  N_6
REMARK    5  A    between atoms: N_14  and  C_15
REMARK                            x       y       z     vdW  Elec       q    Type
REMARK                         _______ _______ _______ _____ _____    ______ ____
ROOT
ATOM      1  N   UNL     1       6.500   5.265  16.897  0.00  0.00    +0.000 N 
ATOM      2  C   UNL     1       7.185   4.599  17.890  0.00  0.00    +0.000 A 
ATOM      3  O   UNL     1       8.315   4.150  17.799  0.00  0.00    +0.000 OA
ATOM      4  N   UNL     1       6.362   4.522  19.016  0.00  0.00    +0.000 NA
ATOM      5  C   UNL     1       5.247   5.052  18.625  0.00  0.00    +0.000 A 
ATOM      6  N   UNL     1       5.206   5.387  17.325  0.00  0.00    +0.000 N 
ATOM      7  C   UNL     1       4.373   6.470  17.194  0.00  0.00    +0.000 C 
ATOM      8  O   UNL     1       4.381   7.240  16.245  0.00  0.00    +0.000 OA
ATOM      9  N   UNL     1       3.611   6.539  18.398  0.00  0.00    +0.000 N 
ATOM     10  C   UNL     1       4.041   5.514  19.350  0.00  0.00    +0.000 C 
ENDROOT
BRANCH   9  11
ATOM     11  C   UNL     1       2.653   7.533  18.738  0.00  0.00    +0.000 A 
ATOM     12  C   UNL     1       2.100   7.619  20.024  0.00  0.00    +0.000 A 
ATOM     13  C   UNL     1       1.142   8.591  20.340  0.00  0.00    +0.000 A 
ATOM     14  C   UNL     1       0.727   9.496  19.372  0.00  0.00    +0.000 A 
ATOM     15 BR   UNL     1      -0.561  10.809  19.799  0.00  0.00    +0.000 Br
ATOM     16  C   UNL     1       1.262   9.438  18.092  0.00  0.00    +0.000 A 
ATOM     17  C   UNL     1       2.220   8.465  17.779  0.00  0.00    +0.000 A 
ENDBRANCH   9  11
BRANCH   1  18
ATOM     18  C   UNL     1       6.863   5.411  15.512  0.00  0.00    +0.000 C 
BRANCH  18  19
ATOM     19  C   UNL     1       6.458   4.204  14.673  0.00  0.00    +0.000 C 
ATOM     20  O   UNL     1       5.838   3.250  15.134  0.00  0.00    +0.000 OA
BRANCH  19  22
ATOM     21  C   UNL     1       6.141   3.464  12.467  0.00  0.00    +0.000 C 
ATOM     22  O   UNL     1       6.845   4.316  13.372  0.00  0.00    +0.000 OA
ENDBRANCH  19  22
ENDBRANCH  18  19
ENDBRANCH   1  18
TORSDOF 4
ENDMDL
MODEL 2
REMARK VINA RESULT:      -7.5      0.100      1.030
REMARK  Name = 
REMARK  5 active torsions:
REMARK  status: ('A' for Active; 'I' for Inactive)
REMARK    1  A    between atoms: C_1  and  O_2
REMARK    2  A    between atoms: O_2  and  C_3
REMARK    3  A    between atoms: C_3  and  C_5
REMARK    4  A    between atoms: C_5  and  N_6
REMARK    5  A    between atoms: N_14  and  C_15
REMARK                            x       y       z     vdW  Elec       q    Type
REMARK                         _______ _______ _______ _____ _____    ______ ____
ROOT
ATOM      1  N   UNL     1       6.540   5.212  16.918  0.00  0.00    +0.000 N 
ATOM      2  C   UNL     1       7.252   4.595  17.923  0.00  0.00    +0.000 A 
ATOM      3  O   UNL     1       8.389   4.163  17.831  0.00  0.00    +0.000 OA
ATOM      4  N   UNL     1       6.448   4.546  19.064  0.00  0.00    +0.000 NA
ATOM      5  C   UNL     1       5.318   5.041  18.672  0.00  0.00    +0.000 A 
ATOM      6  N   UNL     1       5.251   5.327  17.361  0.00  0.00    +0.000 N 
ATOM      7  C   UNL     1       4.397   6.390  17.204  0.00  0.00    +0.000 C 
ATOM      8  O   UNL     1       4.376   7.125  16.228  0.00  0.00    +0.000 OA
ATOM      9  N   UNL     1       3.652   6.490  18.417  0.00  0.00    +0.000 N 
ATOM     10  C   UNL     1       4.115   5.508  19.399  0.00  0.00    +0.000 C 
ENDROOT
BRANCH   9  11
ATOM     11  C   UNL     1       2.682   7.479  18.736  0.00  0.00    +0.000 A 
ATOM     12  C   UNL     1       2.242   8.417  17.792  0.00  0.00    +0.000 A 
ATOM     13  C   UNL     1       1.299   9.399  18.125  0.00  0.00    +0.000 A 
ATOM     14  C   UNL     1       0.780   9.452  19.412  0.00  0.00    +0.000 A 
ATOM     15 BR   UNL     1      -0.494  10.771  19.861  0.00  0.00    +0.000 Br
ATOM     16  C   UNL     1       1.194   8.532  20.367  0.00  0.00    +0.000 A 
ATOM     17  C   UNL     1       2.136   7.551  20.029  0.00  0.00    +0.000 A 
ENDBRANCH   9  11
BRANCH   1  18
ATOM     18  C   UNL     1       6.879   5.313  15.523  0.00  0.00    +0.000 C 
BRANCH  18  19
ATOM     19  C   UNL     1       6.437   4.091  14.725  0.00  0.00    +0.000 C 
ATOM     20  O   UNL     1       5.745   3.198  15.204  0.00  0.00    +0.000 OA
BRANCH  19  22
ATOM     21  C   UNL     1       6.008   3.491  12.496  0.00  0.00    +0.000 C 
ATOM     22  O   UNL     1       6.881   4.117  13.438  0.00  0.00    +0.000 OA
ENDBRANCH  19  22
ENDBRANCH  18  19
ENDBRANCH   1  18
TORSDOF 4
ENDMDL
MODEL 3
REMARK VINA RESULT:      -7.4      1.905      2.759
REMARK  Name = 
REMARK  5 active torsions:
REMARK  status: ('A' for Active; 'I' for Inactive)
REMARK    1  A    between atoms: C_1  and  O_2
REMARK    2  A    between atoms: O_2  and  C_3
REMARK    3  A    between atoms: C_3  and  C_5
REMARK    4  A    between atoms: C_5  and  N_6
REMARK    5  A    between atoms: N_14  and  C_15
REMARK                            x       y       z     vdW  Elec       q    Type
REMARK                         _______ _______ _______ _____ _____    ______ ____
ROOT
ATOM      1  N   UNL     1       4.526   4.062  18.786  0.00  0.00    +0.000 N 
ATOM      2  C   UNL     1       4.364   3.086  19.745  0.00  0.00    +0.000 A 
ATOM      3  O   UNL     1       5.095   2.124  19.915  0.00  0.00    +0.000 OA
ATOM      4  N   UNL     1       3.218   3.383  20.485  0.00  0.00    +0.000 NA
ATOM      5  C   UNL     1       2.732   4.432  19.900  0.00  0.00    +0.000 A 
ATOM      6  N   UNL     1       3.381   4.810  18.787  0.00  0.00    +0.000 N 
ATOM      7  C   UNL     1       3.264   6.172  18.671  0.00  0.00    +0.000 C 
ATOM      8  O   UNL     1       4.005   6.878  18.003  0.00  0.00    +0.000 OA
ATOM      9  N   UNL     1       2.200   6.560  19.539  0.00  0.00    +0.000 N 
ATOM     10  C   UNL     1       1.688   5.410  20.287  0.00  0.00    +0.000 C 
ENDROOT
BRANCH   9  11
ATOM     11  C   UNL     1       1.750   7.885  19.789  0.00  0.00    +0.000 A 
ATOM     12  C   UNL     1       1.404   8.318  21.076  0.00  0.00    +0.000 A 
ATOM     13  C   UNL     1       0.944   9.621  21.306  0.00  0.00    +0.000 A 
ATOM     14  C   UNL     1       0.828  10.513  20.247  0.00  0.00    +0.000 A 
ATOM     15 BR   UNL     1       0.213  12.270  20.557  0.00  0.00    +0.000 Br
ATOM     16  C   UNL     1       1.169  10.112  18.962  0.00  0.00    +0.000 A 
ATOM     17  C   UNL     1       1.630   8.808  18.737  0.00  0.00    +0.000 A 
ENDBRANCH   9  11
BRANCH   1  18
ATOM     18  C   UNL     1       5.445   4.073  17.677  0.00  0.00    +0.000 C 
BRANCH  18  19
ATOM     19  C   UNL     1       6.796   4.674  18.047  0.00  0.00    +0.000 C 
ATOM     20  O   UNL     1       7.058   5.081  19.175  0.00  0.00    +0.000 OA
BRANCH  19  22
ATOM     21  C   UNL     1       7.052   4.584  15.714  0.00  0.00    +0.000 C 
ATOM     22  O   UNL     1       7.667   4.691  16.999  0.00  0.00    +0.000 OA
ENDBRANCH  19  22
ENDBRANCH  18  19
ENDBRANCH   1  18
TORSDOF 4
ENDMDL
MODEL 4
REMARK VINA RESULT:      -7.4      1.989      3.049
REMARK  Name = 
REMARK  5 active torsions:
REMARK  status: ('A' for Active; 'I' for Inactive)
REMARK    1  A    between atoms: C_1  and  O_2
REMARK    2  A    between atoms: O_2  and  C_3
REMARK    3  A    between atoms: C_3  and  C_5
REMARK    4  A    between atoms: C_5  and  N_6
REMARK    5  A    between atoms: N_14  and  C_15
REMARK                            x       y       z     vdW  Elec       q    Type
REMARK                         _______ _______ _______ _____ _____    ______ ____
ROOT
ATOM      1  N   UNL     1       4.513   3.960  18.911  0.00  0.00    +0.000 N 
ATOM      2  C   UNL     1       4.351   2.973  19.859  0.00  0.00    +0.000 A 
ATOM      3  O   UNL     1       5.081   2.009  20.019  0.00  0.00    +0.000 OA
ATOM      4  N   UNL     1       3.204   3.262  20.603  0.00  0.00    +0.000 NA
ATOM      5  C   UNL     1       2.718   4.318  20.030  0.00  0.00    +0.000 A 
ATOM      6  N   UNL     1       3.368   4.708  18.921  0.00  0.00    +0.000 N 
ATOM      7  C   UNL     1       3.251   6.072  18.821  0.00  0.00    +0.000 C 
ATOM      8  O   UNL     1       3.992   6.785  18.161  0.00  0.00    +0.000 OA
ATOM      9  N   UNL     1       2.186   6.449  19.693  0.00  0.00    +0.000 N 
ATOM     10  C   UNL     1       1.675   5.291  20.428  0.00  0.00    +0.000 C 
ENDROOT
BRANCH   9  11
ATOM     11  C   UNL     1       1.737   7.772  19.958  0.00  0.00    +0.000 A 
ATOM     12  C   UNL     1       1.624   8.733  18.945  0.00  0.00    +0.000 A 
ATOM     13  C   UNL     1       1.199  10.039  19.224  0.00  0.00    +0.000 A 
ATOM     14  C   UNL     1       0.876  10.399  20.526  0.00  0.00    +0.000 A 
ATOM     15 BR   UNL     1       0.298  12.156  20.902  0.00  0.00    +0.000 Br
ATOM     16  C   UNL     1       0.974   9.465  21.549  0.00  0.00    +0.000 A 
ATOM     17  C   UNL     1       1.398   8.160  21.266  0.00  0.00    +0.000 A 
ENDBRANCH   9  11
BRANCH   1  18
ATOM     18  C   UNL     1       5.432   3.984  17.804  0.00  0.00    +0.000 C 
BRANCH  18  19
ATOM     19  C   UNL     1       6.756   4.649  18.160  0.00  0.00    +0.000 C 
ATOM     20  O   UNL     1       6.965   5.179  19.246  0.00  0.00    +0.000 OA
BRANCH  19  22
ATOM     21  C   UNL     1       7.142   4.840  15.851  0.00  0.00    +0.000 C 
ATOM     22  O   UNL     1       7.669   4.572  17.151  0.00  0.00    +0.000 OA
ENDBRANCH  19  22
ENDBRANCH  18  19
ENDBRANCH   1  18
TORSDOF 4
ENDMDL
MODEL 5
REMARK VINA RESULT:      -7.3      1.852      2.831
REMARK  Name = 
REMARK  5 active torsions:
REMARK  status: ('A' for Active; 'I' for Inactive)
REMARK    1  A    between atoms: C_1  and  O_2
REMARK    2  A    between atoms: O_2  and  C_3
REMARK    3  A    between atoms: C_3  and  C_5
REMARK    4  A    between atoms: C_5  and  N_6
REMARK    5  A    between atoms: N_14  and  C_15
REMARK                            x       y       z     vdW  Elec       q    Type
REMARK                         _______ _______ _______ _____ _____    ______ ____
ROOT
ATOM      1  N   UNL     1       4.589   5.741  17.922  0.00  0.00    +0.000 N 
ATOM      2  C   UNL     1       4.992   4.682  18.706  0.00  0.00    +0.000 A 
ATOM      3  O   UNL     1       5.964   3.974  18.505  0.00  0.00    +0.000 OA
ATOM      4  N   UNL     1       4.092   4.555  19.767  0.00  0.00    +0.000 NA
ATOM      5  C   UNL     1       3.193   5.455  19.524  0.00  0.00    +0.000 A 
ATOM      6  N   UNL     1       3.346   6.106  18.359  0.00  0.00    +0.000 N 
ATOM      7  C   UNL     1       2.846   7.375  18.516  0.00  0.00    +0.000 C 
ATOM      8  O   UNL     1       3.134   8.326  17.805  0.00  0.00    +0.000 OA
ATOM      9  N   UNL     1       2.037   7.346  19.690  0.00  0.00    +0.000 N 
ATOM     10  C   UNL     1       2.101   6.035  20.339  0.00  0.00    +0.000 C 
ENDROOT
BRANCH   9  11
ATOM     11  C   UNL     1       1.356   8.447  20.277  0.00  0.00    +0.000 A 
ATOM     12  C   UNL     1       0.843   9.498  19.504  0.00  0.00    +0.000 A 
ATOM     13  C   UNL     1       0.191  10.587  20.097  0.00  0.00    +0.000 A 
ATOM     14  C   UNL     1       0.038  10.637  21.477  0.00  0.00    +0.000 A 
ATOM     15 BR   UNL     1      -0.845  12.101  22.275  0.00  0.00    +0.000 Br
ATOM     16  C   UNL     1       0.532   9.607  22.267  0.00  0.00    +0.000 A 
ATOM     17  C   UNL     1       1.182   8.519  21.670  0.00  0.00    +0.000 A 
ENDBRANCH   9  11
BRANCH   1  18
ATOM     18  C   UNL     1       5.087   6.126  16.627  0.00  0.00    +0.000 C 
BRANCH  18  19
ATOM     19  C   UNL     1       6.508   6.674  16.687  0.00  0.00    +0.000 C 
ATOM     20  O   UNL     1       6.789   7.737  17.232  0.00  0.00    +0.000 OA
BRANCH  19  22
ATOM     21  C   UNL     1       6.847   4.909  15.176  0.00  0.00    +0.000 C 
ATOM     22  O   UNL     1       7.413   5.851  16.089  0.00  0.00    +0.000 OA
ENDBRANCH  19  22
ENDBRANCH  18  19
ENDBRANCH   1  18
TORSDOF 4
ENDMDL
MODEL 6
REMARK VINA RESULT:      -7.2      1.814      2.556
REMARK  Name = 
REMARK  5 active torsions:
REMARK  status: ('A' for Active; 'I' for Inactive)
REMARK    1  A    between atoms: C_1  and  O_2
REMARK    2  A    between atoms: O_2  and  C_3
REMARK    3  A    between atoms: C_3  and  C_5
REMARK    4  A    between atoms: C_5  and  N_6
REMARK    5  A    between atoms: N_14  and  C_15
REMARK                            x       y       z     vdW  Elec       q    Type
REMARK                         _______ _______ _______ _____ _____    ______ ____
ROOT
ATOM      1  N   UNL     1       4.613   5.612  17.904  0.00  0.00    +0.000 N 
ATOM      2  C   UNL     1       5.011   4.569  18.712  0.00  0.00    +0.000 A 
ATOM      3  O   UNL     1       5.973   3.844  18.521  0.00  0.00    +0.000 OA
ATOM      4  N   UNL     1       4.120   4.480  19.785  0.00  0.00    +0.000 NA
ATOM      5  C   UNL     1       3.230   5.385  19.527  0.00  0.00    +0.000 A 
ATOM      6  N   UNL     1       3.379   6.003  18.344  0.00  0.00    +0.000 N 
ATOM      7  C   UNL     1       2.895   7.281  18.472  0.00  0.00    +0.000 C 
ATOM      8  O   UNL     1       3.187   8.211  17.734  0.00  0.00    +0.000 OA
ATOM      9  N   UNL     1       2.098   7.294  19.655  0.00  0.00    +0.000 N 
ATOM     10  C   UNL     1       2.152   5.999  20.337  0.00  0.00    +0.000 C 
ENDROOT
BRANCH   9  11
ATOM     11  C   UNL     1       1.436   8.418  20.219  0.00  0.00    +0.000 A 
ATOM     12  C   UNL     1       1.207   8.528  21.597  0.00  0.00    +0.000 A 
ATOM     13  C   UNL     1       0.536   9.633  22.138  0.00  0.00    +0.000 A 
ATOM     14  C   UNL     1       0.086  10.647  21.302  0.00  0.00    +0.000 A 
ATOM     15 BR   UNL     1      -0.815  12.138  22.031  0.00  0.00    +0.000 Br
ATOM     16  C   UNL     1       0.303  10.567  19.933  0.00  0.00    +0.000 A 
ATOM     17  C   UNL     1       0.976   9.461  19.397  0.00  0.00    +0.000 A 
ENDBRANCH   9  11
BRANCH   1  18
ATOM     18  C   UNL     1       5.102   5.956  16.595  0.00  0.00    +0.000 C 
BRANCH  18  19
ATOM     19  C   UNL     1       6.488   6.588  16.638  0.00  0.00    +0.000 C 
ATOM     20  O   UNL     1       6.734   7.612  17.267  0.00  0.00    +0.000 OA
BRANCH  19  22
ATOM     21  C   UNL     1       6.884   4.740  15.243  0.00  0.00    +0.000 C 
ATOM     22  O   UNL     1       7.408   5.884  15.920  0.00  0.00    +0.000 OA
ENDBRANCH  19  22
ENDBRANCH  18  19
ENDBRANCH   1  18
TORSDOF 4
ENDMDL
MODEL 7
REMARK VINA RESULT:      -7.2      2.095      3.149
REMARK  Name = 
REMARK  5 active torsions:
REMARK  status: ('A' for Active; 'I' for Inactive)
REMARK    1  A    between atoms: C_1  and  O_2
REMARK    2  A    between atoms: O_2  and  C_3
REMARK    3  A    between atoms: C_3  and  C_5
REMARK    4  A    between atoms: C_5  and  N_6
REMARK    5  A    between atoms: N_14  and  C_15
REMARK                            x       y       z     vdW  Elec       q    Type
REMARK                         _______ _______ _______ _____ _____    ______ ____
ROOT
ATOM      1  N   UNL     1       4.601   4.069  18.521  0.00  0.00    +0.000 N 
ATOM      2  C   UNL     1       4.458   3.183  19.566  0.00  0.00    +0.000 A 
ATOM      3  O   UNL     1       5.191   2.238  19.807  0.00  0.00    +0.000 OA
ATOM      4  N   UNL     1       3.327   3.548  20.300  0.00  0.00    +0.000 NA
ATOM      5  C   UNL     1       2.830   4.542  19.634  0.00  0.00    +0.000 A 
ATOM      6  N   UNL     1       3.458   4.818  18.479  0.00  0.00    +0.000 N 
ATOM      7  C   UNL     1       3.339   6.165  18.245  0.00  0.00    +0.000 C 
ATOM      8  O   UNL     1       4.067   6.807  17.502  0.00  0.00    +0.000 OA
ATOM      9  N   UNL     1       2.293   6.631  19.096  0.00  0.00    +0.000 N 
ATOM     10  C   UNL     1       1.796   5.553  19.953  0.00  0.00    +0.000 C 
ENDROOT
BRANCH   9  11
ATOM     11  C   UNL     1       1.850   7.974  19.237  0.00  0.00    +0.000 A 
ATOM     12  C   UNL     1       1.896   8.885  18.172  0.00  0.00    +0.000 A 
ATOM     13  C   UNL     1       1.475  10.212  18.330  0.00  0.00    +0.000 A 
ATOM     14  C   UNL     1       0.996  10.645  19.560  0.00  0.00    +0.000 A 
ATOM     15 BR   UNL     1       0.424  12.432  19.772  0.00  0.00    +0.000 Br
ATOM     16  C   UNL     1       0.935   9.763  20.631  0.00  0.00    +0.000 A 
ATOM     17  C   UNL     1       1.356   8.437  20.468  0.00  0.00    +0.000 A 
ENDBRANCH   9  11
BRANCH   1  18
ATOM     18  C   UNL     1       5.498   3.980  17.398  0.00  0.00    +0.000 C 
BRANCH  18  19
ATOM     19  C   UNL     1       6.891   4.505  17.722  0.00  0.00    +0.000 C 
ATOM     20  O   UNL     1       7.796   4.548  16.894  0.00  0.00    +0.000 OA
BRANCH  19  22
ATOM     21  C   UNL     1       7.796   6.107  19.183  0.00  0.00    +0.000 C 
ATOM     22  O   UNL     1       7.006   4.929  19.012  0.00  0.00    +0.000 OA
ENDBRANCH  19  22
ENDBRANCH  18  19
ENDBRANCH   1  18
TORSDOF 4
ENDMDL
MODEL 8
REMARK VINA RESULT:      -7.2      2.068      2.942
REMARK  Name = 
REMARK  5 active torsions:
REMARK  status: ('A' for Active; 'I' for Inactive)
REMARK    1  A    between atoms: C_1  and  O_2
REMARK    2  A    between atoms: O_2  and  C_3
REMARK    3  A    between atoms: C_3  and  C_5
REMARK    4  A    between atoms: C_5  and  N_6
REMARK    5  A    between atoms: N_14  and  C_15
REMARK                            x       y       z     vdW  Elec       q    Type
REMARK                         _______ _______ _______ _____ _____    ______ ____
ROOT
ATOM      1  N   UNL     1       4.599   4.176  18.453  0.00  0.00    +0.000 N 
ATOM      2  C   UNL     1       4.491   3.279  19.494  0.00  0.00    +0.000 A 
ATOM      3  O   UNL     1       5.240   2.342  19.710  0.00  0.00    +0.000 OA
ATOM      4  N   UNL     1       3.372   3.625  20.256  0.00  0.00    +0.000 NA
ATOM      5  C   UNL     1       2.849   4.618  19.610  0.00  0.00    +0.000 A 
ATOM      6  N   UNL     1       3.446   4.910  18.443  0.00  0.00    +0.000 N 
ATOM      7  C   UNL     1       3.305   6.258  18.223  0.00  0.00    +0.000 C 
ATOM      8  O   UNL     1       4.008   6.914  17.468  0.00  0.00    +0.000 OA
ATOM      9  N   UNL     1       2.274   6.704  19.101  0.00  0.00    +0.000 N 
ATOM     10  C   UNL     1       1.810   5.614  19.961  0.00  0.00    +0.000 C 
ENDROOT
BRANCH   9  11
ATOM     11  C   UNL     1       1.818   8.041  19.263  0.00  0.00    +0.000 A 
ATOM     12  C   UNL     1       1.352   8.521  20.495  0.00  0.00    +0.000 A 
ATOM     13  C   UNL     1       0.887   9.835  20.635  0.00  0.00    +0.000 A 
ATOM     14  C   UNL     1       0.887  10.691  19.542  0.00  0.00    +0.000 A 
ATOM     15 BR   UNL     1       0.266  12.464  19.732  0.00  0.00    +0.000 Br
ATOM     16  C   UNL     1       1.349  10.244  18.310  0.00  0.00    +0.000 A 
ATOM     17  C   UNL     1       1.813   8.929  18.174  0.00  0.00    +0.000 A 
ENDBRANCH   9  11
BRANCH   1  18
ATOM     18  C   UNL     1       5.470   4.106  17.309  0.00  0.00    +0.000 C 
BRANCH  18  19
ATOM     19  C   UNL     1       6.830   4.743  17.572  0.00  0.00    +0.000 C 
ATOM     20  O   UNL     1       7.845   4.420  16.963  0.00  0.00    +0.000 OA
BRANCH  19  22
ATOM     21  C   UNL     1       7.822   5.624  19.510  0.00  0.00    +0.000 C 
ATOM     22  O   UNL     1       6.780   5.705  18.535  0.00  0.00    +0.000 OA
ENDBRANCH  19  22
ENDBRANCH  18  19
ENDBRANCH   1  18
TORSDOF 4
ENDMDL
MODEL 9
REMARK VINA RESULT:      -7.2      2.389      3.897
REMARK  Name = 
REMARK  5 active torsions:
REMARK  status: ('A' for Active; 'I' for Inactive)
REMARK    1  A    between atoms: C_1  and  O_2
REMARK    2  A    between atoms: O_2  and  C_3
REMARK    3  A    between atoms: C_3  and  C_5
REMARK    4  A    between atoms: C_5  and  N_6
REMARK    5  A    between atoms: N_14  and  C_15
REMARK                            x       y       z     vdW  Elec       q    Type
REMARK                         _______ _______ _______ _____ _____    ______ ____
ROOT
ATOM      1  N   UNL     1       4.087   3.857  17.391  0.00  0.00    +0.000 N 
ATOM      2  C   UNL     1       5.092   4.081  16.476  0.00  0.00    +0.000 A 
ATOM      3  O   UNL     1       5.615   3.237  15.767  0.00  0.00    +0.000 OA
ATOM      4  N   UNL     1       5.415   5.440  16.502  0.00  0.00    +0.000 NA
ATOM      5  C   UNL     1       4.673   5.919  17.450  0.00  0.00    +0.000 A 
ATOM      6  N   UNL     1       3.959   5.003  18.125  0.00  0.00    +0.000 N 
ATOM      7  C   UNL     1       2.802   5.604  18.556  0.00  0.00    +0.000 C 
ATOM      8  O   UNL     1       1.787   5.004  18.878  0.00  0.00    +0.000 OA
ATOM      9  N   UNL     1       3.016   7.011  18.452  0.00  0.00    +0.000 N 
ATOM     10  C   UNL     1       4.322   7.300  17.856  0.00  0.00    +0.000 C 
ENDROOT
BRANCH   9  11
ATOM     11  C   UNL     1       2.073   8.035  18.738  0.00  0.00    +0.000 A 
ATOM     12  C   UNL     1       1.550   8.862  17.734  0.00  0.00    +0.000 A 
ATOM     13  C   UNL     1       0.635   9.880  18.033  0.00  0.00    +0.000 A 
ATOM     14  C   UNL     1       0.227  10.082  19.346  0.00  0.00    +0.000 A 
ATOM     15 BR   UNL     1      -1.008  11.452  19.748  0.00  0.00    +0.000 Br
ATOM     16  C   UNL     1       0.726   9.275  20.360  0.00  0.00    +0.000 A 
ATOM     17  C   UNL     1       1.639   8.257  20.057  0.00  0.00    +0.000 A 
ENDBRANCH   9  11
BRANCH   1  18
ATOM     18  C   UNL     1       3.572   2.594  17.851  0.00  0.00    +0.000 C 
BRANCH  18  19
ATOM     19  C   UNL     1       3.844   2.358  19.332  0.00  0.00    +0.000 C 
ATOM     20  O   UNL     1       4.973   2.368  19.812  0.00  0.00    +0.000 OA
BRANCH  19  22
ATOM     21  C   UNL     1       2.712   2.728  21.356  0.00  0.00    +0.000 C 
ATOM     22  O   UNL     1       2.703   2.152  20.049  0.00  0.00    +0.000 OA
ENDBRANCH  19  22
ENDBRANCH  18  19
ENDBRANCH   1  18
TORSDOF 4
ENDMDL
