MODEL 1
REMARK VINA RESULT:      -9.2      0.000      0.000
REMARK  Name = 
REMARK  7 active torsions:
REMARK  status: ('A' for Active; 'I' for Inactive)
REMARK    1  A    between atoms: C_1  and  C_2
REMARK    2  A    between atoms: C_6  and  C_7
REMARK    3  A    between atoms: C_8  and  N_9
REMARK    4  A    between atoms: N_9  and  S_10
REMARK    5  A    between atoms: S_10  and  C_13
REMARK    6  A    between atoms: C_16  and  N_17
REMARK    7  A    between atoms: N_17  and  C_18
REMARK                            x       y       z     vdW  Elec       q    Type
REMARK                         _______ _______ _______ _____ _____    ______ ____
ROOT
ATOM      1  C   UNL     1       6.474   5.777  17.842  0.00  0.00    +0.000 A 
ATOM      2  C   UNL     1       7.519   5.734  18.769  0.00  0.00    +0.000 A 
ATOM      3  C   UNL     1       8.316   6.870  18.996  0.00  0.00    +0.000 A 
ATOM      4  C   UNL     1       8.072   8.052  18.307  0.00  0.00    +0.000 A 
ATOM      5  C   UNL     1       7.108   8.032  17.271  0.00  0.00    +0.000 A 
ATOM      6  C   UNL     1       6.296   6.903  17.036  0.00  0.00    +0.000 A 
ENDROOT
BRANCH   1   7
ATOM      7  S   UNL     1       5.427   4.345  17.659  0.00  0.00    +0.000 S 
ATOM      8  O   UNL     1       5.509   3.578  18.890  0.00  0.00    +0.000 OA
ATOM      9  O   UNL     1       5.752   3.735  16.390  0.00  0.00    +0.000 OA
BRANCH   7  10
ATOM     10  N   UNL     1       3.860   4.970  17.474  0.00  0.00    +0.000 N 
ATOM     11  H   UNL     1       3.600   4.922  16.492  0.00  0.00    +0.000 HD
BRANCH  10  19
ATOM     12  C   UNL     1       2.632   2.279  17.387  0.00  0.00    +0.000 C 
ATOM     13  C   UNL     1       2.232   3.347  18.367  0.00  0.00    +0.000 A 
ATOM     14  C   UNL     1       1.271   2.993  19.334  0.00  0.00    +0.000 A 
ATOM     15  C   UNL     1       0.900   3.882  20.335  0.00  0.00    +0.000 A 
ATOM     16  C   UNL     1       1.476   5.144  20.375  0.00  0.00    +0.000 A 
ATOM     17  C   UNL     1       2.428   5.538  19.417  0.00  0.00    +0.000 A 
ATOM     18  C   UNL     1       3.020   6.918  19.564  0.00  0.00    +0.000 C 
ATOM     19  C   UNL     1       2.806   4.634  18.397  0.00  0.00    +0.000 A 
ENDBRANCH  10  19
ENDBRANCH   7  10
ENDBRANCH   1   7
BRANCH   4  20
ATOM     20  N   UNL     1       8.757   9.259  18.549  0.00  0.00    +0.000 N 
ATOM     21  H   UNL     1       8.634   9.898  17.766  0.00  0.00    +0.000 HD
BRANCH  20  22
ATOM     22  C   UNL     1       9.123   9.929  19.714  0.00  0.00    +0.000 C 
ATOM     23  C   UNL     1       9.581  11.192  19.733  0.00  0.00    +0.000 C 
ATOM     24  C   UNL     1      10.246  11.650  18.420  0.00  0.00    +0.000 C 
ATOM     25  O   UNL     1      10.076  11.214  17.325  0.00  0.00    +0.000 OA
ATOM     26  N   UNL     1      11.068  12.684  18.785  0.00  0.00    +0.000 N 
ATOM     27  C   UNL     1      10.695  13.221  20.012  0.00  0.00    +0.000 A 
ATOM     28  C   UNL     1      11.101  14.496  20.395  0.00  0.00    +0.000 A 
ATOM     29  C   UNL     1      10.444  15.018  21.508  0.00  0.00    +0.000 A 
ATOM     30  C   UNL     1       9.493  14.245  22.219  0.00  0.00    +0.000 A 
ATOM     31  N   UNL     1       8.694  14.654  23.255  0.00  0.00    +0.000 NA
ATOM     32  C   UNL     1       7.843  13.705  23.558  0.00  0.00    +0.000 A 
ATOM     33  S   UNL     1       8.000  12.222  22.628  0.00  0.00    +0.000 S 
ATOM     34  C   UNL     1       9.254  12.947  21.798  0.00  0.00    +0.000 A 
ATOM     35  C   UNL     1       9.766  12.381  20.659  0.00  0.00    +0.000 A 
ATOM     36  H   UNL     1      12.051  12.471  18.655  0.00  0.00    +0.000 HD
ENDBRANCH  20  22
ENDBRANCH   4  20
TORSDOF 5
ENDMDL
MODEL 2
REMARK VINA RESULT:      -9.1      0.119      1.524
REMARK  Name = 
REMARK  7 active torsions:
REMARK  status: ('A' for Active; 'I' for Inactive)
REMARK    1  A    between atoms: C_1  and  C_2
REMARK    2  A    between atoms: C_6  and  C_7
REMARK    3  A    between atoms: C_8  and  N_9
REMARK    4  A    between atoms: N_9  and  S_10
REMARK    5  A    between atoms: S_10  and  C_13
REMARK    6  A    between atoms: C_16  and  N_17
REMARK    7  A    between atoms: N_17  and  C_18
REMARK                            x       y       z     vdW  Elec       q    Type
REMARK                         _______ _______ _______ _____ _____    ______ ____
ROOT
ATOM      1  C   UNL     1       6.525   5.864  17.871  0.00  0.00    +0.000 A 
ATOM      2  C   UNL     1       7.599   5.817  18.764  0.00  0.00    +0.000 A 
ATOM      3  C   UNL     1       8.388   6.960  18.988  0.00  0.00    +0.000 A 
ATOM      4  C   UNL     1       8.107   8.152  18.330  0.00  0.00    +0.000 A 
ATOM      5  C   UNL     1       7.112   8.138  17.324  0.00  0.00    +0.000 A 
ATOM      6  C   UNL     1       6.308   7.002  17.092  0.00  0.00    +0.000 A 
ENDROOT
BRANCH   1   7
ATOM      7  S   UNL     1       5.492   4.421  17.693  0.00  0.00    +0.000 S 
ATOM      8  O   UNL     1       5.657   3.610  18.886  0.00  0.00    +0.000 OA
ATOM      9  O   UNL     1       5.753   3.866  16.384  0.00  0.00    +0.000 OA
BRANCH   7  10
ATOM     10  N   UNL     1       3.908   5.025  17.622  0.00  0.00    +0.000 N 
ATOM     11  H   UNL     1       3.601   5.035  16.653  0.00  0.00    +0.000 HD
BRANCH  10  19
ATOM     12  C   UNL     1       2.902   6.945  19.637  0.00  0.00    +0.000 C 
ATOM     13  C   UNL     1       2.415   5.528  19.520  0.00  0.00    +0.000 A 
ATOM     14  C   UNL     1       1.367   5.143  20.380  0.00  0.00    +0.000 A 
ATOM     15  C   UNL     1       0.789   3.883  20.288  0.00  0.00    +0.000 A 
ATOM     16  C   UNL     1       1.262   2.983  19.343  0.00  0.00    +0.000 A 
ATOM     17  C   UNL     1       2.317   3.326  18.477  0.00  0.00    +0.000 A 
ATOM     18  C   UNL     1       2.737   2.291  17.463  0.00  0.00    +0.000 C 
ATOM     19  C   UNL     1       2.905   4.609  18.570  0.00  0.00    +0.000 A 
ENDBRANCH  10  19
ENDBRANCH   7  10
ENDBRANCH   1   7
BRANCH   4  20
ATOM     20  N   UNL     1       8.783   9.363  18.574  0.00  0.00    +0.000 N 
ATOM     21  H   UNL     1       8.652  10.005  17.794  0.00  0.00    +0.000 HD
BRANCH  20  22
ATOM     22  C   UNL     1       9.149  10.031  19.740  0.00  0.00    +0.000 C 
ATOM     23  C   UNL     1       9.601  11.297  19.762  0.00  0.00    +0.000 C 
ATOM     24  C   UNL     1      10.259  11.763  18.448  0.00  0.00    +0.000 C 
ATOM     25  O   UNL     1      10.088  11.330  17.352  0.00  0.00    +0.000 OA
ATOM     26  N   UNL     1      11.077  12.800  18.814  0.00  0.00    +0.000 N 
ATOM     27  C   UNL     1      10.704  13.331  20.044  0.00  0.00    +0.000 A 
ATOM     28  C   UNL     1      11.104  14.607  20.430  0.00  0.00    +0.000 A 
ATOM     29  C   UNL     1      10.448  15.122  21.547  0.00  0.00    +0.000 A 
ATOM     30  C   UNL     1       9.503  14.341  22.259  0.00  0.00    +0.000 A 
ATOM     31  N   UNL     1       8.706  14.741  23.298  0.00  0.00    +0.000 NA
ATOM     32  C   UNL     1       7.861  13.786  23.600  0.00  0.00    +0.000 A 
ATOM     33  S   UNL     1       8.022  12.308  22.665  0.00  0.00    +0.000 S 
ATOM     34  C   UNL     1       9.270  13.043  21.834  0.00  0.00    +0.000 A 
ATOM     35  C   UNL     1       9.782  12.484  20.691  0.00  0.00    +0.000 A 
ATOM     36  H   UNL     1      12.060  12.593  18.681  0.00  0.00    +0.000 HD
ENDBRANCH  20  22
ENDBRANCH   4  20
TORSDOF 5
ENDMDL
MODEL 3
REMARK VINA RESULT:      -8.8      5.492      6.893
REMARK  Name = 
REMARK  7 active torsions:
REMARK  status: ('A' for Active; 'I' for Inactive)
REMARK    1  A    between atoms: C_1  and  C_2
REMARK    2  A    between atoms: C_6  and  C_7
REMARK    3  A    between atoms: C_8  and  N_9
REMARK    4  A    between atoms: N_9  and  S_10
REMARK    5  A    between atoms: S_10  and  C_13
REMARK    6  A    between atoms: C_16  and  N_17
REMARK    7  A    between atoms: N_17  and  C_18
REMARK                            x       y       z     vdW  Elec       q    Type
REMARK                         _______ _______ _______ _____ _____    ______ ____
ROOT
ATOM      1  C   UNL     1       4.160   5.766  18.300  0.00  0.00    +0.000 A 
ATOM      2  C   UNL     1       3.572   5.941  19.555  0.00  0.00    +0.000 A 
ATOM      3  C   UNL     1       2.683   7.007  19.782  0.00  0.00    +0.000 A 
ATOM      4  C   UNL     1       2.373   7.896  18.760  0.00  0.00    +0.000 A 
ATOM      5  C   UNL     1       3.089   7.789  17.544  0.00  0.00    +0.000 A 
ATOM      6  C   UNL     1       3.979   6.722  17.299  0.00  0.00    +0.000 A 
ENDROOT
BRANCH   1   7
ATOM      7  S   UNL     1       5.203   4.344  18.030  0.00  0.00    +0.000 S 
ATOM      8  O   UNL     1       6.134   4.262  19.142  0.00  0.00    +0.000 OA
ATOM      9  O   UNL     1       5.687   4.419  16.670  0.00  0.00    +0.000 OA
BRANCH   7  10
ATOM     10  N   UNL     1       4.147   3.016  18.063  0.00  0.00    +0.000 N 
ATOM     11  H   UNL     1       4.682   2.166  17.910  0.00  0.00    +0.000 HD
BRANCH  10  19
ATOM     12  C   UNL     1       4.797   1.971  20.755  0.00  0.00    +0.000 C 
ATOM     13  C   UNL     1       3.424   2.426  20.346  0.00  0.00    +0.000 A 
ATOM     14  C   UNL     1       2.428   2.414  21.343  0.00  0.00    +0.000 A 
ATOM     15  C   UNL     1       1.152   2.898  21.087  0.00  0.00    +0.000 A 
ATOM     16  C   UNL     1       0.847   3.388  19.825  0.00  0.00    +0.000 A 
ATOM     17  C   UNL     1       1.811   3.401  18.800  0.00  0.00    +0.000 A 
ATOM     18  C   UNL     1       1.393   3.984  17.472  0.00  0.00    +0.000 C 
ATOM     19  C   UNL     1       3.111   2.909  19.059  0.00  0.00    +0.000 A 
ENDBRANCH  10  19
ENDBRANCH   7  10
ENDBRANCH   1   7
BRANCH   4  20
ATOM     20  N   UNL     1       1.418   8.926  18.876  0.00  0.00    +0.000 N 
ATOM     21  H   UNL     1       0.902   8.832  19.748  0.00  0.00    +0.000 HD
BRANCH  20  22
ATOM     22  C   UNL     1       1.348  10.221  18.367  0.00  0.00    +0.000 C 
ATOM     23  C   UNL     1       0.678  11.220  18.966  0.00  0.00    +0.000 C 
ATOM     24  C   UNL     1      -0.476  10.758  19.878  0.00  0.00    +0.000 C 
ATOM     25  O   UNL     1      -0.609   9.701  20.410  0.00  0.00    +0.000 OA
ATOM     26  N   UNL     1      -1.314  11.840  19.958  0.00  0.00    +0.000 N 
ATOM     27  C   UNL     1      -0.659  13.017  19.614  0.00  0.00    +0.000 A 
ATOM     28  C   UNL     1      -1.157  14.259  19.995  0.00  0.00    +0.000 A 
ATOM     29  C   UNL     1      -0.278  15.328  19.829  0.00  0.00    +0.000 A 
ATOM     30  C   UNL     1       0.995  15.136  19.238  0.00  0.00    +0.000 A 
ATOM     31  N   UNL     1       2.001  16.057  19.108  0.00  0.00    +0.000 NA
ATOM     32  C   UNL     1       3.077  15.474  18.642  0.00  0.00    +0.000 A 
ATOM     33  S   UNL     1       2.915  13.763  18.279  0.00  0.00    +0.000 S 
ATOM     34  C   UNL     1       1.333  13.865  18.802  0.00  0.00    +0.000 A 
ATOM     35  C   UNL     1       0.586  12.734  19.015  0.00  0.00    +0.000 A 
ATOM     36  H   UNL     1      -2.216  11.672  19.527  0.00  0.00    +0.000 HD
ENDBRANCH  20  22
ENDBRANCH   4  20
TORSDOF 5
ENDMDL
MODEL 4
REMARK VINA RESULT:      -8.8      0.806      1.249
REMARK  Name = 
REMARK  7 active torsions:
REMARK  status: ('A' for Active; 'I' for Inactive)
REMARK    1  A    between atoms: C_1  and  C_2
REMARK    2  A    between atoms: C_6  and  C_7
REMARK    3  A    between atoms: C_8  and  N_9
REMARK    4  A    between atoms: N_9  and  S_10
REMARK    5  A    between atoms: S_10  and  C_13
REMARK    6  A    between atoms: C_16  and  N_17
REMARK    7  A    between atoms: N_17  and  C_18
REMARK                            x       y       z     vdW  Elec       q    Type
REMARK                         _______ _______ _______ _____ _____    ______ ____
ROOT
ATOM      1  C   UNL     1       6.503   5.972  17.615  0.00  0.00    +0.000 A 
ATOM      2  C   UNL     1       6.212   7.225  17.066  0.00  0.00    +0.000 A 
ATOM      3  C   UNL     1       6.999   8.344  17.392  0.00  0.00    +0.000 A 
ATOM      4  C   UNL     1       8.080   8.219  18.257  0.00  0.00    +0.000 A 
ATOM      5  C   UNL     1       8.266   6.979  18.914  0.00  0.00    +0.000 A 
ATOM      6  C   UNL     1       7.490   5.846  18.593  0.00  0.00    +0.000 A 
ENDROOT
BRANCH   1   7
ATOM      7  S   UNL     1       5.540   4.563  17.097  0.00  0.00    +0.000 S 
ATOM      8  O   UNL     1       6.419   3.676  16.355  0.00  0.00    +0.000 OA
ATOM      9  O   UNL     1       4.328   5.070  16.494  0.00  0.00    +0.000 OA
BRANCH   7  10
ATOM     10  N   UNL     1       5.051   3.815  18.539  0.00  0.00    +0.000 N 
ATOM     11  H   UNL     1       5.600   4.190  19.308  0.00  0.00    +0.000 HD
BRANCH  10  19
ATOM     12  C   UNL     1       3.852   1.138  18.147  0.00  0.00    +0.000 C 
ATOM     13  C   UNL     1       3.089   2.325  18.665  0.00  0.00    +0.000 A 
ATOM     14  C   UNL     1       1.752   2.103  19.049  0.00  0.00    +0.000 A 
ATOM     15  C   UNL     1       0.992   3.115  19.622  0.00  0.00    +0.000 A 
ATOM     16  C   UNL     1       1.555   4.371  19.806  0.00  0.00    +0.000 A 
ATOM     17  C   UNL     1       2.882   4.635  19.420  0.00  0.00    +0.000 A 
ATOM     18  C   UNL     1       3.413   6.021  19.691  0.00  0.00    +0.000 C 
ATOM     19  C   UNL     1       3.657   3.604  18.837  0.00  0.00    +0.000 A 
ENDBRANCH  10  19
ENDBRANCH   7  10
ENDBRANCH   1   7
BRANCH   4  20
ATOM     20  N   UNL     1       8.975   9.265  18.553  0.00  0.00    +0.000 N 
ATOM     21  H   UNL     1       9.133   9.840  17.728  0.00  0.00    +0.000 HD
BRANCH  20  22
ATOM     22  C   UNL     1       9.288   9.946  19.728  0.00  0.00    +0.000 C 
ATOM     23  C   UNL     1       9.706  11.223  19.758  0.00  0.00    +0.000 C 
ATOM     24  C   UNL     1      10.390  11.703  18.463  0.00  0.00    +0.000 C 
ATOM     25  O   UNL     1      10.263  11.262  17.364  0.00  0.00    +0.000 OA
ATOM     26  N   UNL     1      11.169  12.762  18.849  0.00  0.00    +0.000 N 
ATOM     27  C   UNL     1      10.747  13.286  20.066  0.00  0.00    +0.000 A 
ATOM     28  C   UNL     1      11.102  14.572  20.459  0.00  0.00    +0.000 A 
ATOM     29  C   UNL     1      10.401  15.073  21.555  0.00  0.00    +0.000 A 
ATOM     30  C   UNL     1       9.456  14.270  22.241  0.00  0.00    +0.000 A 
ATOM     31  N   UNL     1       8.618  14.652  23.255  0.00  0.00    +0.000 NA
ATOM     32  C   UNL     1       7.790  13.677  23.535  0.00  0.00    +0.000 A 
ATOM     33  S   UNL     1       8.017  12.200  22.610  0.00  0.00    +0.000 S 
ATOM     34  C   UNL     1       9.269  12.966  21.813  0.00  0.00    +0.000 A 
ATOM     35  C   UNL     1       9.829  12.416  20.689  0.00  0.00    +0.000 A 
ATOM     36  H   UNL     1      12.161  12.580  18.745  0.00  0.00    +0.000 HD
ENDBRANCH  20  22
ENDBRANCH   4  20
TORSDOF 5
ENDMDL
MODEL 5
REMARK VINA RESULT:      -8.7      1.979      2.885
REMARK  Name = 
REMARK  7 active torsions:
REMARK  status: ('A' for Active; 'I' for Inactive)
REMARK    1  A    between atoms: C_1  and  C_2
REMARK    2  A    between atoms: C_6  and  C_7
REMARK    3  A    between atoms: C_8  and  N_9
REMARK    4  A    between atoms: N_9  and  S_10
REMARK    5  A    between atoms: S_10  and  C_13
REMARK    6  A    between atoms: C_16  and  N_17
REMARK    7  A    between atoms: N_17  and  C_18
REMARK                            x       y       z     vdW  Elec       q    Type
REMARK                         _______ _______ _______ _____ _____    ______ ____
ROOT
ATOM      1  C   UNL     1       6.483   5.998  17.667  0.00  0.00    +0.000 A 
ATOM      2  C   UNL     1       6.243   7.250  17.095  0.00  0.00    +0.000 A 
ATOM      3  C   UNL     1       7.058   8.349  17.422  0.00  0.00    +0.000 A 
ATOM      4  C   UNL     1       8.115   8.203  18.312  0.00  0.00    +0.000 A 
ATOM      5  C   UNL     1       8.249   6.968  18.990  0.00  0.00    +0.000 A 
ATOM      6  C   UNL     1       7.444   5.855  18.668  0.00  0.00    +0.000 A 
ENDROOT
BRANCH   1   7
ATOM      7  S   UNL     1       5.487   4.612  17.148  0.00  0.00    +0.000 S 
ATOM      8  O   UNL     1       6.336   3.724  16.374  0.00  0.00    +0.000 OA
ATOM      9  O   UNL     1       4.270   5.146  16.580  0.00  0.00    +0.000 OA
BRANCH   7  10
ATOM     10  N   UNL     1       5.018   3.848  18.589  0.00  0.00    +0.000 N 
ATOM     11  H   UNL     1       5.562   4.231  19.358  0.00  0.00    +0.000 HD
BRANCH  10  19
ATOM     12  C   UNL     1       3.871   1.148  18.196  0.00  0.00    +0.000 C 
ATOM     13  C   UNL     1       3.087   2.319  18.719  0.00  0.00    +0.000 A 
ATOM     14  C   UNL     1       1.755   2.069  19.107  0.00  0.00    +0.000 A 
ATOM     15  C   UNL     1       0.977   3.066  19.682  0.00  0.00    +0.000 A 
ATOM     16  C   UNL     1       1.515   4.332  19.866  0.00  0.00    +0.000 A 
ATOM     17  C   UNL     1       2.836   4.623  19.477  0.00  0.00    +0.000 A 
ATOM     18  C   UNL     1       3.340   6.019  19.748  0.00  0.00    +0.000 C 
ATOM     19  C   UNL     1       3.629   3.609  18.891  0.00  0.00    +0.000 A 
ENDBRANCH  10  19
ENDBRANCH   7  10
ENDBRANCH   1   7
BRANCH   4  20
ATOM     20  N   UNL     1       9.036   9.225  18.613  0.00  0.00    +0.000 N 
ATOM     21  H   UNL     1       9.952   8.829  18.814  0.00  0.00    +0.000 HD
BRANCH  20  22
ATOM     22  C   UNL     1       9.121  10.568  18.251  0.00  0.00    +0.000 C 
ATOM     23  C   UNL     1       9.470  11.547  19.102  0.00  0.00    +0.000 C 
ATOM     24  C   UNL     1       9.189  11.236  20.586  0.00  0.00    +0.000 C 
ATOM     25  O   UNL     1       9.079  10.166  21.098  0.00  0.00    +0.000 OA
ATOM     26  N   UNL     1       9.109  12.462  21.192  0.00  0.00    +0.000 N 
ATOM     27  C   UNL     1       9.722  13.448  20.429  0.00  0.00    +0.000 A 
ATOM     28  C   UNL     1      10.121  14.655  20.994  0.00  0.00    +0.000 A 
ATOM     29  C   UNL     1      10.958  15.436  20.199  0.00  0.00    +0.000 A 
ATOM     30  C   UNL     1      11.293  15.032  18.882  0.00  0.00    +0.000 A 
ATOM     31  N   UNL     1      12.181  15.630  18.028  0.00  0.00    +0.000 NA
ATOM     32  C   UNL     1      12.333  14.889  16.958  0.00  0.00    +0.000 A 
ATOM     33  S   UNL     1      11.355  13.431  16.901  0.00  0.00    +0.000 S 
ATOM     34  C   UNL     1      10.744  13.856  18.396  0.00  0.00    +0.000 A 
ATOM     35  C   UNL     1      10.000  12.970  19.132  0.00  0.00    +0.000 A 
ATOM     36  H   UNL     1       8.182  12.665  21.549  0.00  0.00    +0.000 HD
ENDBRANCH  20  22
ENDBRANCH   4  20
TORSDOF 5
ENDMDL
MODEL 6
REMARK VINA RESULT:      -8.7      6.885      9.846
REMARK  Name = 
REMARK  7 active torsions:
REMARK  status: ('A' for Active; 'I' for Inactive)
REMARK    1  A    between atoms: C_1  and  C_2
REMARK    2  A    between atoms: C_6  and  C_7
REMARK    3  A    between atoms: C_8  and  N_9
REMARK    4  A    between atoms: N_9  and  S_10
REMARK    5  A    between atoms: S_10  and  C_13
REMARK    6  A    between atoms: C_16  and  N_17
REMARK    7  A    between atoms: N_17  and  C_18
REMARK                            x       y       z     vdW  Elec       q    Type
REMARK                         _______ _______ _______ _____ _____    ______ ____
ROOT
ATOM      1  C   UNL     1       1.890   7.936  19.333  0.00  0.00    +0.000 A 
ATOM      2  C   UNL     1       1.256   8.600  20.387  0.00  0.00    +0.000 A 
ATOM      3  C   UNL     1       0.624   9.838  20.169  0.00  0.00    +0.000 A 
ATOM      4  C   UNL     1       0.614  10.413  18.904  0.00  0.00    +0.000 A 
ATOM      5  C   UNL     1       1.385   9.800  17.889  0.00  0.00    +0.000 A 
ATOM      6  C   UNL     1       2.019   8.555  18.089  0.00  0.00    +0.000 A 
ENDROOT
BRANCH   1   7
ATOM      7  S   UNL     1       2.592   6.324  19.632  0.00  0.00    +0.000 S 
ATOM      8  O   UNL     1       2.022   5.816  20.867  0.00  0.00    +0.000 OA
ATOM      9  O   UNL     1       4.024   6.445  19.478  0.00  0.00    +0.000 OA
BRANCH   7  10
ATOM     10  N   UNL     1       2.074   5.374  18.325  0.00  0.00    +0.000 N 
ATOM     11  H   UNL     1       2.094   5.937  17.479  0.00  0.00    +0.000 HD
BRANCH  10  19
ATOM     12  C   UNL     1       4.483   4.818  16.698  0.00  0.00    +0.000 C 
ATOM     13  C   UNL     1       3.686   3.753  17.398  0.00  0.00    +0.000 A 
ATOM     14  C   UNL     1       4.181   2.436  17.321  0.00  0.00    +0.000 A 
ATOM     15  C   UNL     1       3.564   1.397  18.006  0.00  0.00    +0.000 A 
ATOM     16  C   UNL     1       2.435   1.658  18.769  0.00  0.00    +0.000 A 
ATOM     17  C   UNL     1       1.903   2.958  18.858  0.00  0.00    +0.000 A 
ATOM     18  C   UNL     1       0.692   3.146  19.738  0.00  0.00    +0.000 C 
ATOM     19  C   UNL     1       2.530   4.016  18.160  0.00  0.00    +0.000 A 
ENDBRANCH  10  19
ENDBRANCH   7  10
ENDBRANCH   1   7
BRANCH   4  20
ATOM     20  N   UNL     1      -0.081  11.595  18.583  0.00  0.00    +0.000 N 
ATOM     21  H   UNL     1      -0.200  11.673  17.575  0.00  0.00    +0.000 HD
BRANCH  20  22
ATOM     22  C   UNL     1      -1.004  12.375  19.276  0.00  0.00    +0.000 C 
ATOM     23  C   UNL     1      -2.332  12.178  19.224  0.00  0.00    +0.000 C 
ATOM     24  C   UNL     1      -2.825  11.478  17.942  0.00  0.00    +0.000 C 
ATOM     25  O   UNL     1      -2.203  10.774  17.210  0.00  0.00    +0.000 OA
ATOM     26  N   UNL     1      -4.145  11.830  17.836  0.00  0.00    +0.000 N 
ATOM     27  C   UNL     1      -4.655  12.262  19.054  0.00  0.00    +0.000 A 
ATOM     28  C   UNL     1      -6.026  12.285  19.295  0.00  0.00    +0.000 A 
ATOM     29  C   UNL     1      -6.392  12.473  20.627  0.00  0.00    +0.000 A 
ATOM     30  C   UNL     1      -5.411  12.699  21.625  0.00  0.00    +0.000 A 
ATOM     31  N   UNL     1      -5.605  12.791  22.977  0.00  0.00    +0.000 NA
ATOM     32  C   UNL     1      -4.446  12.859  23.586  0.00  0.00    +0.000 A 
ATOM     33  S   UNL     1      -3.038  12.869  22.536  0.00  0.00    +0.000 S 
ATOM     34  C   UNL     1      -4.082  12.758  21.238  0.00  0.00    +0.000 A 
ATOM     35  C   UNL     1      -3.614  12.483  19.978  0.00  0.00    +0.000 A 
ATOM     36  H   UNL     1      -4.334  12.409  17.025  0.00  0.00    +0.000 HD
ENDBRANCH  20  22
ENDBRANCH   4  20
TORSDOF 5
ENDMDL
MODEL 7
REMARK VINA RESULT:      -8.7      5.509      6.899
REMARK  Name = 
REMARK  7 active torsions:
REMARK  status: ('A' for Active; 'I' for Inactive)
REMARK    1  A    between atoms: C_1  and  C_2
REMARK    2  A    between atoms: C_6  and  C_7
REMARK    3  A    between atoms: C_8  and  N_9
REMARK    4  A    between atoms: N_9  and  S_10
REMARK    5  A    between atoms: S_10  and  C_13
REMARK    6  A    between atoms: C_16  and  N_17
REMARK    7  A    between atoms: N_17  and  C_18
REMARK                            x       y       z     vdW  Elec       q    Type
REMARK                         _______ _______ _______ _____ _____    ______ ____
ROOT
ATOM      1  C   UNL     1       4.159   5.778  18.200  0.00  0.00    +0.000 A 
ATOM      2  C   UNL     1       3.593   5.937  19.468  0.00  0.00    +0.000 A 
ATOM      3  C   UNL     1       2.721   7.010  19.729  0.00  0.00    +0.000 A 
ATOM      4  C   UNL     1       2.406   7.922  18.729  0.00  0.00    +0.000 A 
ATOM      5  C   UNL     1       3.102   7.829  17.500  0.00  0.00    +0.000 A 
ATOM      6  C   UNL     1       3.973   6.756  17.221  0.00  0.00    +0.000 A 
ENDROOT
BRANCH   1   7
ATOM      7  S   UNL     1       5.178   4.349  17.887  0.00  0.00    +0.000 S 
ATOM      8  O   UNL     1       6.221   4.320  18.897  0.00  0.00    +0.000 OA
ATOM      9  O   UNL     1       5.516   4.363  16.481  0.00  0.00    +0.000 OA
BRANCH   7  10
ATOM     10  N   UNL     1       4.142   3.021  18.091  0.00  0.00    +0.000 N 
ATOM     11  H   UNL     1       4.680   2.164  17.993  0.00  0.00    +0.000 HD
BRANCH  10  19
ATOM     12  C   UNL     1       1.373   3.895  17.520  0.00  0.00    +0.000 C 
ATOM     13  C   UNL     1       1.830   3.399  18.864  0.00  0.00    +0.000 A 
ATOM     14  C   UNL     1       0.847   3.283  19.866  0.00  0.00    +0.000 A 
ATOM     15  C   UNL     1       1.154   2.752  21.113  0.00  0.00    +0.000 A 
ATOM     16  C   UNL     1       2.453   2.343  21.380  0.00  0.00    +0.000 A 
ATOM     17  C   UNL     1       3.465   2.458  20.409  0.00  0.00    +0.000 A 
ATOM     18  C   UNL     1       4.837   1.955  20.784  0.00  0.00    +0.000 C 
ATOM     19  C   UNL     1       3.153   2.998  19.140  0.00  0.00    +0.000 A 
ENDBRANCH  10  19
ENDBRANCH   7  10
ENDBRANCH   1   7
BRANCH   4  20
ATOM     20  N   UNL     1       1.467   8.961  18.880  0.00  0.00    +0.000 N 
ATOM     21  H   UNL     1       0.991   8.880  19.776  0.00  0.00    +0.000 HD
BRANCH  20  22
ATOM     22  C   UNL     1       1.385  10.252  18.363  0.00  0.00    +0.000 C 
ATOM     23  C   UNL     1       0.700  11.247  18.953  0.00  0.00    +0.000 C 
ATOM     24  C   UNL     1      -0.453  10.778  19.862  0.00  0.00    +0.000 C 
ATOM     25  O   UNL     1      -0.576   9.722  20.399  0.00  0.00    +0.000 OA
ATOM     26  N   UNL     1      -1.304  11.850  19.931  0.00  0.00    +0.000 N 
ATOM     27  C   UNL     1      -0.660  13.032  19.584  0.00  0.00    +0.000 A 
ATOM     28  C   UNL     1      -1.174  14.271  19.955  0.00  0.00    +0.000 A 
ATOM     29  C   UNL     1      -0.307  15.349  19.787  0.00  0.00    +0.000 A 
ATOM     30  C   UNL     1       0.972  15.168  19.204  0.00  0.00    +0.000 A 
ATOM     31  N   UNL     1       1.967  16.100  19.074  0.00  0.00    +0.000 NA
ATOM     32  C   UNL     1       3.053  15.526  18.617  0.00  0.00    +0.000 A 
ATOM     33  S   UNL     1       2.912  13.811  18.263  0.00  0.00    +0.000 S 
ATOM     34  C   UNL     1       1.326  13.898  18.777  0.00  0.00    +0.000 A 
ATOM     35  C   UNL     1       0.591  12.761  18.992  0.00  0.00    +0.000 A 
ATOM     36  H   UNL     1      -2.202  11.670  19.497  0.00  0.00    +0.000 HD
ENDBRANCH  20  22
ENDBRANCH   4  20
TORSDOF 5
ENDMDL
MODEL 8
REMARK VINA RESULT:      -8.7      1.824      2.631
REMARK  Name = 
REMARK  7 active torsions:
REMARK  status: ('A' for Active; 'I' for Inactive)
REMARK    1  A    between atoms: C_1  and  C_2
REMARK    2  A    between atoms: C_6  and  C_7
REMARK    3  A    between atoms: C_8  and  N_9
REMARK    4  A    between atoms: N_9  and  S_10
REMARK    5  A    between atoms: S_10  and  C_13
REMARK    6  A    between atoms: C_16  and  N_17
REMARK    7  A    between atoms: N_17  and  C_18
REMARK                            x       y       z     vdW  Elec       q    Type
REMARK                         _______ _______ _______ _____ _____    ______ ____
ROOT
ATOM      1  C   UNL     1       6.525   5.775  17.915  0.00  0.00    +0.000 A 
ATOM      2  C   UNL     1       7.492   5.591  18.907  0.00  0.00    +0.000 A 
ATOM      3  C   UNL     1       8.349   6.646  19.269  0.00  0.00    +0.000 A 
ATOM      4  C   UNL     1       8.242   7.886  18.652  0.00  0.00    +0.000 A 
ATOM      5  C   UNL     1       7.359   8.008  17.552  0.00  0.00    +0.000 A 
ATOM      6  C   UNL     1       6.489   6.961  17.181  0.00  0.00    +0.000 A 
ENDROOT
BRANCH   1   7
ATOM      7  S   UNL     1       5.395   4.442  17.558  0.00  0.00    +0.000 S 
ATOM      8  O   UNL     1       5.434   3.518  18.678  0.00  0.00    +0.000 OA
ATOM      9  O   UNL     1       5.682   3.984  16.217  0.00  0.00    +0.000 OA
BRANCH   7  10
ATOM     10  N   UNL     1       3.868   5.175  17.471  0.00  0.00    +0.000 N 
ATOM     11  H   UNL     1       3.600   5.264  16.494  0.00  0.00    +0.000 HD
BRANCH  10  19
ATOM     12  C   UNL     1       2.619   2.506  17.198  0.00  0.00    +0.000 C 
ATOM     13  C   UNL     1       2.216   3.512  18.239  0.00  0.00    +0.000 A 
ATOM     14  C   UNL     1       1.241   3.106  19.171  0.00  0.00    +0.000 A 
ATOM     15  C   UNL     1       0.866   3.932  20.223  0.00  0.00    +0.000 A 
ATOM     16  C   UNL     1       1.452   5.184  20.351  0.00  0.00    +0.000 A 
ATOM     17  C   UNL     1       2.418   5.630  19.430  0.00  0.00    +0.000 A 
ATOM     18  C   UNL     1       3.019   6.993  19.673  0.00  0.00    +0.000 C 
ATOM     19  C   UNL     1       2.801   4.790  18.359  0.00  0.00    +0.000 A 
ENDBRANCH  10  19
ENDBRANCH   7  10
ENDBRANCH   1   7
BRANCH   4  20
ATOM     20  N   UNL     1       8.991   9.018  19.026  0.00  0.00    +0.000 N 
ATOM     21  H   UNL     1       9.853   8.735  19.488  0.00  0.00    +0.000 HD
BRANCH  20  22
ATOM     22  C   UNL     1       9.073  10.315  18.523  0.00  0.00    +0.000 C 
ATOM     23  C   UNL     1       9.393  11.384  19.271  0.00  0.00    +0.000 C 
ATOM     24  C   UNL     1       9.078  11.232  20.772  0.00  0.00    +0.000 C 
ATOM     25  O   UNL     1       8.964  10.223  21.395  0.00  0.00    +0.000 OA
ATOM     26  N   UNL     1       8.972  12.515  21.240  0.00  0.00    +0.000 N 
ATOM     27  C   UNL     1       9.597  13.420  20.389  0.00  0.00    +0.000 A 
ATOM     28  C   UNL     1       9.971  14.685  20.829  0.00  0.00    +0.000 A 
ATOM     29  C   UNL     1      10.821  15.385  19.974  0.00  0.00    +0.000 A 
ATOM     30  C   UNL     1      11.192  14.844  18.717  0.00  0.00    +0.000 A 
ATOM     31  N   UNL     1      12.096  15.356  17.825  0.00  0.00    +0.000 NA
ATOM     32  C   UNL     1      12.281  14.505  16.845  0.00  0.00    +0.000 A 
ATOM     33  S   UNL     1      11.317  13.039  16.924  0.00  0.00    +0.000 S 
ATOM     34  C   UNL     1      10.666  13.617  18.349  0.00  0.00    +0.000 A 
ATOM     35  C   UNL     1       9.911  12.807  19.159  0.00  0.00    +0.000 A 
ATOM     36  H   UNL     1       8.035  12.746  21.551  0.00  0.00    +0.000 HD
ENDBRANCH  20  22
ENDBRANCH   4  20
TORSDOF 5
ENDMDL
MODEL 9
REMARK VINA RESULT:      -8.6      6.602      9.544
REMARK  Name = 
REMARK  7 active torsions:
REMARK  status: ('A' for Active; 'I' for Inactive)
REMARK    1  A    between atoms: C_1  and  C_2
REMARK    2  A    between atoms: C_6  and  C_7
REMARK    3  A    between atoms: C_8  and  N_9
REMARK    4  A    between atoms: N_9  and  S_10
REMARK    5  A    between atoms: S_10  and  C_13
REMARK    6  A    between atoms: C_16  and  N_17
REMARK    7  A    between atoms: N_17  and  C_18
REMARK                            x       y       z     vdW  Elec       q    Type
REMARK                         _______ _______ _______ _____ _____    ______ ____
ROOT
ATOM      1  C   UNL     1       2.009   7.400  19.287  0.00  0.00    +0.000 A 
ATOM      2  C   UNL     1       1.506   8.027  20.431  0.00  0.00    +0.000 A 
ATOM      3  C   UNL     1       1.052   9.357  20.371  0.00  0.00    +0.000 A 
ATOM      4  C   UNL     1       1.091  10.063  19.175  0.00  0.00    +0.000 A 
ATOM      5  C   UNL     1       1.738   9.463  18.069  0.00  0.00    +0.000 A 
ATOM      6  C   UNL     1       2.192   8.128  18.110  0.00  0.00    +0.000 A 
ENDROOT
BRANCH   1   7
ATOM      7  S   UNL     1       2.480   5.683  19.386  0.00  0.00    +0.000 S 
ATOM      8  O   UNL     1       1.716   4.957  18.387  0.00  0.00    +0.000 OA
ATOM      9  O   UNL     1       2.419   5.300  20.779  0.00  0.00    +0.000 OA
BRANCH   7  10
ATOM     10  N   UNL     1       4.128   5.658  18.981  0.00  0.00    +0.000 N 
ATOM     11  H   UNL     1       4.658   5.313  19.777  0.00  0.00    +0.000 HD
BRANCH  10  19
ATOM     12  C   UNL     1       5.258   7.555  17.010  0.00  0.00    +0.000 C 
ATOM     13  C   UNL     1       5.129   6.077  16.766  0.00  0.00    +0.000 A 
ATOM     14  C   UNL     1       5.653   5.585  15.554  0.00  0.00    +0.000 A 
ATOM     15  C   UNL     1       5.661   4.224  15.276  0.00  0.00    +0.000 A 
ATOM     16  C   UNL     1       5.130   3.335  16.201  0.00  0.00    +0.000 A 
ATOM     17  C   UNL     1       4.584   3.791  17.415  0.00  0.00    +0.000 A 
ATOM     18  C   UNL     1       4.062   2.744  18.368  0.00  0.00    +0.000 C 
ATOM     19  C   UNL     1       4.576   5.176  17.699  0.00  0.00    +0.000 A 
ENDBRANCH  10  19
ENDBRANCH   7  10
ENDBRANCH   1   7
BRANCH   4  20
ATOM     20  N   UNL     1       0.565  11.359  19.009  0.00  0.00    +0.000 N 
ATOM     21  H   UNL     1       0.496  11.589  18.019  0.00  0.00    +0.000 HD
BRANCH  20  22
ATOM     22  C   UNL     1      -0.278  12.151  19.785  0.00  0.00    +0.000 C 
ATOM     23  C   UNL     1      -1.619  12.110  19.706  0.00  0.00    +0.000 C 
ATOM     24  C   UNL     1      -2.165  11.623  18.349  0.00  0.00    +0.000 C 
ATOM     25  O   UNL     1      -1.612  10.944  17.542  0.00  0.00    +0.000 OA
ATOM     26  N   UNL     1      -3.436  12.129  18.280  0.00  0.00    +0.000 N 
ATOM     27  C   UNL     1      -3.916  12.471  19.539  0.00  0.00    +0.000 A 
ATOM     28  C   UNL     1      -5.279  12.618  19.777  0.00  0.00    +0.000 A 
ATOM     29  C   UNL     1      -5.644  12.689  21.120  0.00  0.00    +0.000 A 
ATOM     30  C   UNL     1      -4.660  12.688  22.141  0.00  0.00    +0.000 A 
ATOM     31  N   UNL     1      -4.865  12.644  23.495  0.00  0.00    +0.000 NA
ATOM     32  C   UNL     1      -3.716  12.510  24.111  0.00  0.00    +0.000 A 
ATOM     33  S   UNL     1      -2.298  12.485  23.074  0.00  0.00    +0.000 S 
ATOM     34  C   UNL     1      -3.327  12.643  21.768  0.00  0.00    +0.000 A 
ATOM     35  C   UNL     1      -2.872  12.466  20.487  0.00  0.00    +0.000 A 
ATOM     36  H   UNL     1      -3.547  12.816  17.543  0.00  0.00    +0.000 HD
ENDBRANCH  20  22
ENDBRANCH   4  20
TORSDOF 5
ENDMDL
