MODEL 1
REMARK VINA RESULT:      -6.5      0.000      0.000
REMARK  Name = 
REMARK  1 active torsions:
REMARK  status: ('A' for Active; 'I' for Inactive)
REMARK    1  A    between atoms: C_1  and  C_2
REMARK                            x       y       z     vdW  Elec       q    Type
REMARK                         _______ _______ _______ _____ _____    ______ ____
ROOT
ATOM      1  C   UNL     1       1.469   3.978  18.097  0.00  0.00    +0.000 C 
ATOM      2  C   UNL     1       2.899   4.395  18.271  0.00  0.00    +0.000 C 
ATOM      3  C   UNL     1       3.515   5.237  17.428  0.00  0.00    +0.000 C 
ATOM      4  C   UNL     1       4.962   5.533  17.595  0.00  0.00    +0.000 C 
ATOM      5  N   UNL     1       5.586   6.150  16.643  0.00  0.00    +0.000 NA
ATOM      6  C   UNL     1       6.943   6.250  16.761  0.00  0.00    +0.000 C 
ATOM      7  O   UNL     1       7.701   6.175  15.802  0.00  0.00    +0.000 OA
ATOM      8  C   UNL     1       7.454   6.494  18.141  0.00  0.00    +0.000 C 
ATOM      9  C   UNL     1       6.847   5.521  19.103  0.00  0.00    +0.000 C 
ATOM     10  O   UNL     1       7.435   5.219  20.144  0.00  0.00    +0.000 OA
ATOM     11  N   UNL     1       5.566   5.091  18.769  0.00  0.00    +0.000 N 
ATOM     12  C   UNL     1       4.894   4.230  19.624  0.00  0.00    +0.000 C 
ATOM     13  C   UNL     1       3.629   3.851  19.394  0.00  0.00    +0.000 C 
ENDROOT
TORSDOF 0
ENDMDL
MODEL 2
REMARK VINA RESULT:      -6.3      3.544      5.408
REMARK  Name = 
REMARK  1 active torsions:
REMARK  status: ('A' for Active; 'I' for Inactive)
REMARK    1  A    between atoms: C_1  and  C_2
REMARK                            x       y       z     vdW  Elec       q    Type
REMARK                         _______ _______ _______ _____ _____    ______ ____
ROOT
ATOM      1  C   UNL     1       5.560   5.974  16.842  0.00  0.00    +0.000 C 
ATOM      2  C   UNL     1       4.467   5.186  17.498  0.00  0.00    +0.000 C 
ATOM      3  C   UNL     1       4.045   5.433  18.748  0.00  0.00    +0.000 C 
ATOM      4  C   UNL     1       3.028   4.551  19.379  0.00  0.00    +0.000 C 
ATOM      5  N   UNL     1       2.814   4.660  20.651  0.00  0.00    +0.000 NA
ATOM      6  C   UNL     1       2.001   3.721  21.219  0.00  0.00    +0.000 C 
ATOM      7  O   UNL     1       2.190   3.270  22.343  0.00  0.00    +0.000 OA
ATOM      8  C   UNL     1       0.833   3.296  20.395  0.00  0.00    +0.000 C 
ATOM      9  C   UNL     1       1.274   2.936  19.011  0.00  0.00    +0.000 C 
ATOM     10  O   UNL     1       0.618   2.143  18.331  0.00  0.00    +0.000 OA
ATOM     11  N   UNL     1       2.388   3.633  18.553  0.00  0.00    +0.000 N 
ATOM     12  C   UNL     1       2.843   3.412  17.261  0.00  0.00    +0.000 C 
ATOM     13  C   UNL     1       3.859   4.115  16.740  0.00  0.00    +0.000 C 
ENDROOT
TORSDOF 0
ENDMDL
MODEL 3
REMARK VINA RESULT:      -6.3      1.789      2.874
REMARK  Name = 
REMARK  1 active torsions:
REMARK  status: ('A' for Active; 'I' for Inactive)
REMARK    1  A    between atoms: C_1  and  C_2
REMARK                            x       y       z     vdW  Elec       q    Type
REMARK                         _______ _______ _______ _____ _____    ______ ____
ROOT
ATOM      1  C   UNL     1       1.800   5.590  20.589  0.00  0.00    +0.000 C 
ATOM      2  C   UNL     1       2.848   5.661  19.519  0.00  0.00    +0.000 C 
ATOM      3  C   UNL     1       3.834   4.758  19.409  0.00  0.00    +0.000 C 
ATOM      4  C   UNL     1       4.901   4.939  18.390  0.00  0.00    +0.000 C 
ATOM      5  N   UNL     1       5.959   4.197  18.459  0.00  0.00    +0.000 NA
ATOM      6  C   UNL     1       6.984   4.510  17.612  0.00  0.00    +0.000 C 
ATOM      7  O   UNL     1       8.163   4.415  17.932  0.00  0.00    +0.000 OA
ATOM      8  C   UNL     1       6.580   4.946  16.244  0.00  0.00    +0.000 C 
ATOM      9  C   UNL     1       5.533   6.012  16.323  0.00  0.00    +0.000 C 
ATOM     10  O   UNL     1       5.397   6.826  15.407  0.00  0.00    +0.000 OA
ATOM     11  N   UNL     1       4.700   5.931  17.436  0.00  0.00    +0.000 N 
ATOM     12  C   UNL     1       3.662   6.841  17.574  0.00  0.00    +0.000 C 
ATOM     13  C   UNL     1       2.779   6.758  18.580  0.00  0.00    +0.000 C 
ENDROOT
TORSDOF 0
ENDMDL
MODEL 4
REMARK VINA RESULT:      -6.3      2.140      3.080
REMARK  Name = 
REMARK  1 active torsions:
REMARK  status: ('A' for Active; 'I' for Inactive)
REMARK    1  A    between atoms: C_1  and  C_2
REMARK                            x       y       z     vdW  Elec       q    Type
REMARK                         _______ _______ _______ _____ _____    ______ ____
ROOT
ATOM      1  C   UNL     1       1.361   2.734  21.667  0.00  0.00    +0.000 C 
ATOM      2  C   UNL     1       2.182   3.593  20.752  0.00  0.00    +0.000 C 
ATOM      3  C   UNL     1       3.315   3.162  20.178  0.00  0.00    +0.000 C 
ATOM      4  C   UNL     1       4.138   4.093  19.362  0.00  0.00    +0.000 C 
ATOM      5  N   UNL     1       5.333   3.731  19.020  0.00  0.00    +0.000 NA
ATOM      6  C   UNL     1       6.113   4.678  18.421  0.00  0.00    +0.000 C 
ATOM      7  O   UNL     1       7.319   4.768  18.619  0.00  0.00    +0.000 OA
ATOM      8  C   UNL     1       5.409   5.586  17.469  0.00  0.00    +0.000 C 
ATOM      9  C   UNL     1       4.176   6.150  18.102  0.00  0.00    +0.000 C 
ATOM     10  O   UNL     1       3.717   7.231  17.724  0.00  0.00    +0.000 OA
ATOM     11  N   UNL     1       3.570   5.322  19.042  0.00  0.00    +0.000 N 
ATOM     12  C   UNL     1       2.390   5.731  19.647  0.00  0.00    +0.000 C 
ATOM     13  C   UNL     1       1.721   4.939  20.496  0.00  0.00    +0.000 C 
ENDROOT
TORSDOF 0
ENDMDL
MODEL 5
REMARK VINA RESULT:      -6.3      1.553      2.838
REMARK  Name = 
REMARK  1 active torsions:
REMARK  status: ('A' for Active; 'I' for Inactive)
REMARK    1  A    between atoms: C_1  and  C_2
REMARK                            x       y       z     vdW  Elec       q    Type
REMARK                         _______ _______ _______ _____ _____    ______ ____
ROOT
ATOM      1  C   UNL     1       1.153   2.043  18.845  0.00  0.00    +0.000 C 
ATOM      2  C   UNL     1       2.153   3.135  18.611  0.00  0.00    +0.000 C 
ATOM      3  C   UNL     1       3.466   2.976  18.835  0.00  0.00    +0.000 C 
ATOM      4  C   UNL     1       4.393   4.127  18.681  0.00  0.00    +0.000 C 
ATOM      5  N   UNL     1       5.603   4.015  19.128  0.00  0.00    +0.000 NA
ATOM      6  C   UNL     1       6.367   5.147  19.122  0.00  0.00    +0.000 C 
ATOM      7  O   UNL     1       7.172   5.411  20.007  0.00  0.00    +0.000 OA
ATOM      8  C   UNL     1       6.188   6.039  17.940  0.00  0.00    +0.000 C 
ATOM      9  C   UNL     1       4.735   6.306  17.703  0.00  0.00    +0.000 C 
ATOM     10  O   UNL     1       4.372   7.334  17.126  0.00  0.00    +0.000 OA
ATOM     11  N   UNL     1       3.881   5.275  18.087  0.00  0.00    +0.000 N 
ATOM     12  C   UNL     1       2.518   5.402  17.858  0.00  0.00    +0.000 C 
ATOM     13  C   UNL     1       1.662   4.408  18.131  0.00  0.00    +0.000 C 
ENDROOT
TORSDOF 0
ENDMDL
MODEL 6
REMARK VINA RESULT:      -6.3      1.497      2.538
REMARK  Name = 
REMARK  1 active torsions:
REMARK  status: ('A' for Active; 'I' for Inactive)
REMARK    1  A    between atoms: C_1  and  C_2
REMARK                            x       y       z     vdW  Elec       q    Type
REMARK                         _______ _______ _______ _____ _____    ______ ____
ROOT
ATOM      1  C   UNL     1       1.537   4.195  19.948  0.00  0.00    +0.000 C 
ATOM      2  C   UNL     1       2.828   4.291  19.191  0.00  0.00    +0.000 C 
ATOM      3  C   UNL     1       3.999   4.559  19.787  0.00  0.00    +0.000 C 
ATOM      4  C   UNL     1       5.227   4.743  18.969  0.00  0.00    +0.000 C 
ATOM      5  N   UNL     1       6.284   5.231  19.535  0.00  0.00    +0.000 NA
ATOM      6  C   UNL     1       7.331   5.541  18.715  0.00  0.00    +0.000 C 
ATOM      7  O   UNL     1       8.052   6.516  18.897  0.00  0.00    +0.000 OA
ATOM      8  C   UNL     1       7.573   4.592  17.590  0.00  0.00    +0.000 C 
ATOM      9  C   UNL     1       6.300   4.327  16.849  0.00  0.00    +0.000 C 
ATOM     10  O   UNL     1       6.325   3.984  15.664  0.00  0.00    +0.000 OA
ATOM     11  N   UNL     1       5.146   4.401  17.623  0.00  0.00    +0.000 N 
ATOM     12  C   UNL     1       3.919   4.117  17.042  0.00  0.00    +0.000 C 
ATOM     13  C   UNL     1       2.787   4.091  17.759  0.00  0.00    +0.000 C 
ENDROOT
TORSDOF 0
ENDMDL
MODEL 7
REMARK VINA RESULT:      -6.2      3.483      5.034
REMARK  Name = 
REMARK  1 active torsions:
REMARK  status: ('A' for Active; 'I' for Inactive)
REMARK    1  A    between atoms: C_1  and  C_2
REMARK                            x       y       z     vdW  Elec       q    Type
REMARK                         _______ _______ _______ _____ _____    ______ ____
ROOT
ATOM      1  C   UNL     1       5.576   5.715  15.722  0.00  0.00    +0.000 C 
ATOM      2  C   UNL     1       4.554   5.418  16.778  0.00  0.00    +0.000 C 
ATOM      3  C   UNL     1       4.052   4.189  16.975  0.00  0.00    +0.000 C 
ATOM      4  C   UNL     1       2.967   3.978  17.968  0.00  0.00    +0.000 C 
ATOM      5  N   UNL     1       2.339   2.846  17.972  0.00  0.00    +0.000 NA
ATOM      6  C   UNL     1       1.242   2.756  18.781  0.00  0.00    +0.000 C 
ATOM      7  O   UNL     1       0.236   2.129  18.470  0.00  0.00    +0.000 OA
ATOM      8  C   UNL     1       1.355   3.443  20.100  0.00  0.00    +0.000 C 
ATOM      9  C   UNL     1       1.840   4.847  19.917  0.00  0.00    +0.000 C 
ATOM     10  O   UNL     1       1.569   5.717  20.748  0.00  0.00    +0.000 OA
ATOM     11  N   UNL     1       2.675   5.039  18.820  0.00  0.00    +0.000 N 
ATOM     12  C   UNL     1       3.222   6.294  18.594  0.00  0.00    +0.000 C 
ATOM     13  C   UNL     1       4.098   6.514  17.603  0.00  0.00    +0.000 C 
ENDROOT
TORSDOF 0
ENDMDL
MODEL 8
REMARK VINA RESULT:      -6.2      2.388      3.737
REMARK  Name = 
REMARK  1 active torsions:
REMARK  status: ('A' for Active; 'I' for Inactive)
REMARK    1  A    between atoms: C_1  and  C_2
REMARK                            x       y       z     vdW  Elec       q    Type
REMARK                         _______ _______ _______ _____ _____    ______ ____
ROOT
ATOM      1  C   UNL     1       6.266   3.875  13.569  0.00  0.00    +0.000 C 
ATOM      2  C   UNL     1       6.072   4.261  15.005  0.00  0.00    +0.000 C 
ATOM      3  C   UNL     1       4.860   4.360  15.571  0.00  0.00    +0.000 C 
ATOM      4  C   UNL     1       4.728   4.846  16.969  0.00  0.00    +0.000 C 
ATOM      5  N   UNL     1       3.551   5.158  17.410  0.00  0.00    +0.000 NA
ATOM      6  C   UNL     1       3.495   5.759  18.636  0.00  0.00    +0.000 C 
ATOM      7  O   UNL     1       2.692   6.644  18.906  0.00  0.00    +0.000 OA
ATOM      8  C   UNL     1       4.457   5.243  19.652  0.00  0.00    +0.000 C 
ATOM      9  C   UNL     1       5.840   5.191  19.082  0.00  0.00    +0.000 C 
ATOM     10  O   UNL     1       6.825   5.259  19.822  0.00  0.00    +0.000 OA
ATOM     11  N   UNL     1       5.899   4.964  17.710  0.00  0.00    +0.000 N 
ATOM     12  C   UNL     1       7.136   4.843  17.094  0.00  0.00    +0.000 C 
ATOM     13  C   UNL     1       7.251   4.542  15.793  0.00  0.00    +0.000 C 
ENDROOT
TORSDOF 0
ENDMDL
MODEL 9
REMARK VINA RESULT:      -6.2      1.459      1.571
REMARK  Name = 
REMARK  1 active torsions:
REMARK  status: ('A' for Active; 'I' for Inactive)
REMARK    1  A    between atoms: C_1  and  C_2
REMARK                            x       y       z     vdW  Elec       q    Type
REMARK                         _______ _______ _______ _____ _____    ______ ____
ROOT
ATOM      1  C   UNL     1       1.057   3.992  20.182  0.00  0.00    +0.000 C 
ATOM      2  C   UNL     1       2.387   4.313  19.568  0.00  0.00    +0.000 C 
ATOM      3  C   UNL     1       2.591   5.402  18.811  0.00  0.00    +0.000 C 
ATOM      4  C   UNL     1       3.904   5.612  18.147  0.00  0.00    +0.000 C 
ATOM      5  N   UNL     1       4.002   6.530  17.240  0.00  0.00    +0.000 NA
ATOM      6  C   UNL     1       5.173   6.576  16.537  0.00  0.00    +0.000 C 
ATOM      7  O   UNL     1       5.222   6.852  15.345  0.00  0.00    +0.000 OA
ATOM      8  C   UNL     1       6.410   6.303  17.326  0.00  0.00    +0.000 C 
ATOM      9  C   UNL     1       6.250   5.049  18.128  0.00  0.00    +0.000 C 
ATOM     10  O   UNL     1       7.238   4.389  18.461  0.00  0.00    +0.000 OA
ATOM     11  N   UNL     1       4.946   4.774  18.529  0.00  0.00    +0.000 N 
ATOM     12  C   UNL     1       4.701   3.663  19.324  0.00  0.00    +0.000 C 
ATOM     13  C   UNL     1       3.479   3.397  19.808  0.00  0.00    +0.000 C 
ENDROOT
TORSDOF 0
ENDMDL
