MODEL 1
REMARK VINA RESULT:      -6.3      0.000      0.000
REMARK  Name = 
REMARK  5 active torsions:
REMARK  status: ('A' for Active; 'I' for Inactive)
REMARK    1  A    between atoms: C_1  and  C_2
REMARK    2  A    between atoms: C_2  and  C_3
REMARK    3  A    between atoms: N_7  and  C_8
REMARK    4  A    between atoms: C_9  and  C_10
REMARK    5  A    between atoms: C_16  and  C_18
REMARK                            x       y       z     vdW  Elec       q    Type
REMARK                         _______ _______ _______ _____ _____    ______ ____
ROOT
ATOM      1  C   UNL     1      -0.466  13.841  20.660  0.00  0.00    +0.000 A 
ATOM      2  C   UNL     1      -1.388  12.857  20.161  0.00  0.00    +0.000 A 
ATOM      3  C   UNL     1      -2.478  12.475  20.936  0.00  0.00    +0.000 A 
ATOM      4  N   UNL     1      -2.821  12.965  22.136  0.00  0.00    +0.000 NA
ATOM      5  C   UNL     1      -1.950  13.862  22.655  0.00  0.00    +0.000 A 
ATOM      6  C   UNL     1      -2.079  14.383  23.976  0.00  0.00    +0.000 A 
ATOM      7  C   UNL     1      -1.059  15.237  24.304  0.00  0.00    +0.000 A 
ATOM      8  S   UNL     1      -0.059  15.546  22.966  0.00  0.00    +0.000 S 
ATOM      9  C   UNL     1      -0.820  14.326  21.971  0.00  0.00    +0.000 A 
ENDROOT
BRANCH   2  10
ATOM     10  C   UNL     1      -1.120  11.979  18.986  0.00  0.00    +0.000 C 
ATOM     11  O   UNL     1      -1.238  12.501  17.875  0.00  0.00    +0.000 OA
ATOM     12  N   UNL     1      -0.686  10.650  19.107  0.00  0.00    +0.000 N 
ATOM     13  C   UNL     1      -0.314   9.939  17.873  0.00  0.00    +0.000 C 
ATOM     14  C   UNL     1       1.159   9.521  17.922  0.00  0.00    +0.000 C 
ATOM     15  N   UNL     1       1.429   8.701  19.110  0.00  0.00    +0.000 N 
ATOM     16  C   UNL     1       2.241   7.578  18.948  0.00  0.00    +0.000 C 
ATOM     17  O   UNL     1       2.679   7.238  17.849  0.00  0.00    +0.000 OA
ATOM     18  C   UNL     1       0.999   9.311  20.385  0.00  0.00    +0.000 C 
ATOM     19  C   UNL     1      -0.465   9.828  20.316  0.00  0.00    +0.000 C 
BRANCH  16  20
ATOM     20  C   UNL     1       2.590   6.760  20.150  0.00  0.00    +0.000 C 
ATOM     21  C   UNL     1       1.743   5.557  20.522  0.00  0.00    +0.000 C 
ATOM     22  C   UNL     1       3.120   5.355  19.961  0.00  0.00    +0.000 C 
ENDBRANCH  16  20
ENDBRANCH   2  10
BRANCH   1  27
ATOM     23  C   UNL     1       3.417  15.292  17.692  0.00  0.00    +0.000 C 
ATOM     24  C   UNL     1       3.002  15.785  19.094  0.00  0.00    +0.000 C 
ATOM     25  C   UNL     1       1.581  16.395  19.062  0.00  0.00    +0.000 C 
ATOM     26  C   UNL     1       0.486  15.346  18.895  0.00  0.00    +0.000 C 
ATOM     27  N   UNL     1       0.633  14.348  19.958  0.00  0.00    +0.000 N 
ATOM     28  C   UNL     1       1.912  13.621  19.896  0.00  0.00    +0.000 C 
ATOM     29  C   UNL     1       3.052  14.626  20.107  0.00  0.00    +0.000 C 
BRANCH  24  30
ATOM     30  C   UNL     1       3.955  16.846  19.504  0.00  0.00    +0.000 C 
ATOM     31  N   UNL     1       4.708  17.664  19.832  0.00  0.00    +0.000 NA
ENDBRANCH  24  30
ENDBRANCH   1  27
TORSDOF 4
ENDMDL
MODEL 2
REMARK VINA RESULT:      -6.3      3.591      7.171
REMARK  Name = 
REMARK  5 active torsions:
REMARK  status: ('A' for Active; 'I' for Inactive)
REMARK    1  A    between atoms: C_1  and  C_2
REMARK    2  A    between atoms: C_2  and  C_3
REMARK    3  A    between atoms: N_7  and  C_8
REMARK    4  A    between atoms: C_9  and  C_10
REMARK    5  A    between atoms: C_16  and  C_18
REMARK                            x       y       z     vdW  Elec       q    Type
REMARK                         _______ _______ _______ _____ _____    ______ ____
ROOT
ATOM      1  C   UNL     1      -4.755  14.684  23.240  0.00  0.00    +0.000 A 
ATOM      2  C   UNL     1      -3.703  14.056  23.991  0.00  0.00    +0.000 A 
ATOM      3  C   UNL     1      -3.079  14.750  25.023  0.00  0.00    +0.000 A 
ATOM      4  N   UNL     1      -3.381  15.982  25.457  0.00  0.00    +0.000 NA
ATOM      5  C   UNL     1      -4.338  16.620  24.744  0.00  0.00    +0.000 A 
ATOM      6  C   UNL     1      -4.690  17.983  24.975  0.00  0.00    +0.000 A 
ATOM      7  C   UNL     1      -5.648  18.431  24.104  0.00  0.00    +0.000 A 
ATOM      8  S   UNL     1      -6.245  17.166  23.140  0.00  0.00    +0.000 S 
ATOM      9  C   UNL     1      -5.038  16.026  23.687  0.00  0.00    +0.000 A 
ENDROOT
BRANCH   2  10
ATOM     10  C   UNL     1      -3.005  12.806  23.572  0.00  0.00    +0.000 C 
ATOM     11  O   UNL     1      -3.585  11.747  23.821  0.00  0.00    +0.000 OA
ATOM     12  N   UNL     1      -1.792  12.807  22.865  0.00  0.00    +0.000 N 
ATOM     13  C   UNL     1      -1.285  11.513  22.381  0.00  0.00    +0.000 C 
ATOM     14  C   UNL     1      -1.184  11.520  20.852  0.00  0.00    +0.000 C 
ATOM     15  N   UNL     1      -0.340  12.629  20.389  0.00  0.00    +0.000 N 
ATOM     16  C   UNL     1       0.568  12.365  19.364  0.00  0.00    +0.000 C 
ATOM     17  O   UNL     1       0.712  11.238  18.888  0.00  0.00    +0.000 OA
ATOM     18  C   UNL     1      -0.733  13.954  20.909  0.00  0.00    +0.000 C 
ATOM     19  C   UNL     1      -0.934  13.937  22.450  0.00  0.00    +0.000 C 
BRANCH  16  20
ATOM     20  C   UNL     1       1.395  13.487  18.825  0.00  0.00    +0.000 C 
ATOM     21  C   UNL     1       2.695  13.870  19.508  0.00  0.00    +0.000 C 
ATOM     22  C   UNL     1       2.728  13.181  18.176  0.00  0.00    +0.000 C 
ENDBRANCH  16  20
ENDBRANCH   2  10
BRANCH   1  27
ATOM     23  C   UNL     1      -7.619  13.005  19.371  0.00  0.00    +0.000 C 
ATOM     24  C   UNL     1      -6.814  12.216  20.424  0.00  0.00    +0.000 C 
ATOM     25  C   UNL     1      -5.308  12.560  20.333  0.00  0.00    +0.000 C 
ATOM     26  C   UNL     1      -4.984  13.958  20.851  0.00  0.00    +0.000 C 
ATOM     27  N   UNL     1      -5.494  14.076  22.220  0.00  0.00    +0.000 N 
ATOM     28  C   UNL     1      -6.958  13.933  22.306  0.00  0.00    +0.000 C 
ATOM     29  C   UNL     1      -7.336  12.521  21.840  0.00  0.00    +0.000 C 
BRANCH  24  30
ATOM     30  C   UNL     1      -6.978  10.771  20.133  0.00  0.00    +0.000 C 
ATOM     31  N   UNL     1      -7.112   9.639  19.921  0.00  0.00    +0.000 NA
ENDBRANCH  24  30
ENDBRANCH   1  27
TORSDOF 4
ENDMDL
MODEL 3
REMARK VINA RESULT:      -6.1      3.453      6.715
REMARK  Name = 
REMARK  5 active torsions:
REMARK  status: ('A' for Active; 'I' for Inactive)
REMARK    1  A    between atoms: C_1  and  C_2
REMARK    2  A    between atoms: C_2  and  C_3
REMARK    3  A    between atoms: N_7  and  C_8
REMARK    4  A    between atoms: C_9  and  C_10
REMARK    5  A    between atoms: C_16  and  C_18
REMARK                            x       y       z     vdW  Elec       q    Type
REMARK                         _______ _______ _______ _____ _____    ______ ____
ROOT
ATOM      1  C   UNL     1      -3.726  12.662  20.095  0.00  0.00    +0.000 A 
ATOM      2  C   UNL     1      -2.623  12.102  19.363  0.00  0.00    +0.000 A 
ATOM      3  C   UNL     1      -2.842  11.521  18.118  0.00  0.00    +0.000 A 
ATOM      4  N   UNL     1      -4.008  11.450  17.460  0.00  0.00    +0.000 NA
ATOM      5  C   UNL     1      -5.077  11.928  18.140  0.00  0.00    +0.000 A 
ATOM      6  C   UNL     1      -6.413  11.810  17.656  0.00  0.00    +0.000 A 
ATOM      7  C   UNL     1      -7.335  12.321  18.532  0.00  0.00    +0.000 A 
ATOM      8  S   UNL     1      -6.578  13.099  19.839  0.00  0.00    +0.000 S 
ATOM      9  C   UNL     1      -4.982  12.537  19.398  0.00  0.00    +0.000 A 
ENDROOT
BRANCH   2  10
ATOM     10  C   UNL     1      -1.281  11.825  19.951  0.00  0.00    +0.000 C 
ATOM     11  O   UNL     1      -1.019  10.642  20.182  0.00  0.00    +0.000 OA
ATOM     12  N   UNL     1      -0.321  12.825  20.173  0.00  0.00    +0.000 N 
ATOM     13  C   UNL     1       1.015  12.399  20.618  0.00  0.00    +0.000 C 
ATOM     14  C   UNL     1       2.075  12.812  19.592  0.00  0.00    +0.000 C 
ATOM     15  N   UNL     1       2.031  14.259  19.348  0.00  0.00    +0.000 N 
ATOM     16  C   UNL     1       3.247  14.937  19.262  0.00  0.00    +0.000 C 
ATOM     17  O   UNL     1       4.328  14.371  19.434  0.00  0.00    +0.000 OA
ATOM     18  C   UNL     1       0.697  14.778  18.984  0.00  0.00    +0.000 C 
ATOM     19  C   UNL     1      -0.404  14.286  19.964  0.00  0.00    +0.000 C 
BRANCH  16  20
ATOM     20  C   UNL     1       3.239  16.399  18.949  0.00  0.00    +0.000 C 
ATOM     21  C   UNL     1       3.037  17.412  20.060  0.00  0.00    +0.000 C 
ATOM     22  C   UNL     1       4.387  17.264  19.423  0.00  0.00    +0.000 C 
ENDBRANCH  16  20
ENDBRANCH   2  10
BRANCH   1  27
ATOM     23  C   UNL     1      -3.954  15.091  24.572  0.00  0.00    +0.000 C 
ATOM     24  C   UNL     1      -2.729  14.654  23.741  0.00  0.00    +0.000 C 
ATOM     25  C   UNL     1      -2.707  13.118  23.563  0.00  0.00    +0.000 C 
ATOM     26  C   UNL     1      -3.780  12.615  22.601  0.00  0.00    +0.000 C 
ATOM     27  N   UNL     1      -3.628  13.320  21.326  0.00  0.00    +0.000 N 
ATOM     28  C   UNL     1      -3.828  14.775  21.441  0.00  0.00    +0.000 C 
ATOM     29  C   UNL     1      -2.741  15.342  22.364  0.00  0.00    +0.000 C 
BRANCH  24  30
ATOM     30  C   UNL     1      -1.509  15.053  24.486  0.00  0.00    +0.000 C 
ATOM     31  N   UNL     1      -0.557  15.379  25.061  0.00  0.00    +0.000 NA
ENDBRANCH  24  30
ENDBRANCH   1  27
TORSDOF 4
ENDMDL
MODEL 4
REMARK VINA RESULT:      -6.0      5.458      8.162
REMARK  Name = 
REMARK  5 active torsions:
REMARK  status: ('A' for Active; 'I' for Inactive)
REMARK    1  A    between atoms: C_1  and  C_2
REMARK    2  A    between atoms: C_2  and  C_3
REMARK    3  A    between atoms: N_7  and  C_8
REMARK    4  A    between atoms: C_9  and  C_10
REMARK    5  A    between atoms: C_16  and  C_18
REMARK                            x       y       z     vdW  Elec       q    Type
REMARK                         _______ _______ _______ _____ _____    ______ ____
ROOT
ATOM      1  C   UNL     1       4.452  15.412  20.165  0.00  0.00    +0.000 A 
ATOM      2  C   UNL     1       4.885  16.268  19.095  0.00  0.00    +0.000 A 
ATOM      3  C   UNL     1       4.115  16.378  17.942  0.00  0.00    +0.000 A 
ATOM      4  N   UNL     1       2.934  15.787  17.706  0.00  0.00    +0.000 NA
ATOM      5  C   UNL     1       2.518  14.938  18.675  0.00  0.00    +0.000 A 
ATOM      6  C   UNL     1       1.359  14.120  18.535  0.00  0.00    +0.000 A 
ATOM      7  C   UNL     1       1.157  13.307  19.620  0.00  0.00    +0.000 A 
ATOM      8  S   UNL     1       2.253  13.663  20.868  0.00  0.00    +0.000 S 
ATOM      9  C   UNL     1       3.205  14.746  19.880  0.00  0.00    +0.000 A 
ENDROOT
BRANCH   2  10
ATOM     10  C   UNL     1       6.257  16.842  18.984  0.00  0.00    +0.000 C 
ATOM     11  O   UNL     1       6.412  17.979  19.436  0.00  0.00    +0.000 OA
ATOM     12  N   UNL     1       7.347  16.124  18.467  0.00  0.00    +0.000 N 
ATOM     13  C   UNL     1       8.676  16.751  18.551  0.00  0.00    +0.000 C 
ATOM     14  C   UNL     1       9.617  15.891  19.401  0.00  0.00    +0.000 C 
ATOM     15  N   UNL     1       9.705  14.527  18.867  0.00  0.00    +0.000 N 
ATOM     16  C   UNL     1      10.965  13.931  18.819  0.00  0.00    +0.000 C 
ATOM     17  O   UNL     1      11.987  14.530  19.157  0.00  0.00    +0.000 OA
ATOM     18  C   UNL     1       8.400  13.863  18.667  0.00  0.00    +0.000 C 
ATOM     19  C   UNL     1       7.403  14.765  17.889  0.00  0.00    +0.000 C 
BRANCH  16  20
ATOM     20  C   UNL     1      11.080  12.519  18.342  0.00  0.00    +0.000 C 
ATOM     21  C   UNL     1      12.050  11.566  19.014  0.00  0.00    +0.000 C 
ATOM     22  C   UNL     1      10.574  11.395  19.221  0.00  0.00    +0.000 C 
ENDBRANCH  16  20
ENDBRANCH   2  10
BRANCH   1  27
ATOM     23  C   UNL     1       7.263  15.181  24.412  0.00  0.00    +0.000 C 
ATOM     24  C   UNL     1       5.920  14.500  24.073  0.00  0.00    +0.000 C 
ATOM     25  C   UNL     1       4.828  15.558  23.785  0.00  0.00    +0.000 C 
ATOM     26  C   UNL     1       5.025  16.270  22.450  0.00  0.00    +0.000 C 
ATOM     27  N   UNL     1       5.106  15.259  21.392  0.00  0.00    +0.000 N 
ATOM     28  C   UNL     1       6.254  14.349  21.548  0.00  0.00    +0.000 C 
ATOM     29  C   UNL     1       6.081  13.569  22.858  0.00  0.00    +0.000 C 
BRANCH  24  30
ATOM     30  C   UNL     1       5.500  13.709  25.255  0.00  0.00    +0.000 C 
ATOM     31  N   UNL     1       5.156  13.094  26.177  0.00  0.00    +0.000 NA
ENDBRANCH  24  30
ENDBRANCH   1  27
TORSDOF 4
ENDMDL
MODEL 5
REMARK VINA RESULT:      -6.0      1.058      1.529
REMARK  Name = 
REMARK  5 active torsions:
REMARK  status: ('A' for Active; 'I' for Inactive)
REMARK    1  A    between atoms: C_1  and  C_2
REMARK    2  A    between atoms: C_2  and  C_3
REMARK    3  A    between atoms: N_7  and  C_8
REMARK    4  A    between atoms: C_9  and  C_10
REMARK    5  A    between atoms: C_16  and  C_18
REMARK                            x       y       z     vdW  Elec       q    Type
REMARK                         _______ _______ _______ _____ _____    ______ ____
ROOT
ATOM      1  C   UNL     1      -0.937  13.503  21.062  0.00  0.00    +0.000 A 
ATOM      2  C   UNL     1      -1.760  12.783  20.130  0.00  0.00    +0.000 A 
ATOM      3  C   UNL     1      -3.086  12.505  20.448  0.00  0.00    +0.000 A 
ATOM      4  N   UNL     1      -3.741  12.881  21.555  0.00  0.00    +0.000 NA
ATOM      5  C   UNL     1      -2.984  13.523  22.475  0.00  0.00    +0.000 A 
ATOM      6  C   UNL     1      -3.475  13.874  23.767  0.00  0.00    +0.000 A 
ATOM      7  C   UNL     1      -2.520  14.474  24.546  0.00  0.00    +0.000 A 
ATOM      8  S   UNL     1      -1.102  14.773  23.660  0.00  0.00    +0.000 S 
ATOM      9  C   UNL     1      -1.640  13.861  22.269  0.00  0.00    +0.000 A 
ENDROOT
BRANCH   2  10
ATOM     10  C   UNL     1      -1.234  12.039  18.948  0.00  0.00    +0.000 C 
ATOM     11  O   UNL     1      -1.155  12.674  17.894  0.00  0.00    +0.000 OA
ATOM     12  N   UNL     1      -0.778  10.713  19.020  0.00  0.00    +0.000 N 
ATOM     13  C   UNL     1      -0.146  10.145  17.819  0.00  0.00    +0.000 C 
ATOM     14  C   UNL     1       1.305   9.753  18.117  0.00  0.00    +0.000 C 
ATOM     15  N   UNL     1       1.372   8.818  19.247  0.00  0.00    +0.000 N 
ATOM     16  C   UNL     1       2.244   7.734  19.138  0.00  0.00    +0.000 C 
ATOM     17  O   UNL     1       2.902   7.521  18.118  0.00  0.00    +0.000 OA
ATOM     18  C   UNL     1       0.678   9.280  20.466  0.00  0.00    +0.000 C 
ATOM     19  C   UNL     1      -0.764   9.773  20.161  0.00  0.00    +0.000 C 
BRANCH  16  20
ATOM     20  C   UNL     1       2.385   6.801  20.296  0.00  0.00    +0.000 C 
ATOM     21  C   UNL     1       1.494   5.577  20.399  0.00  0.00    +0.000 C 
ATOM     22  C   UNL     1       2.948   5.414  20.067  0.00  0.00    +0.000 C 
ENDBRANCH  16  20
ENDBRANCH   2  10
BRANCH   1  27
ATOM     23  C   UNL     1       3.952  14.930  20.829  0.00  0.00    +0.000 C 
ATOM     24  C   UNL     1       2.926  14.715  19.696  0.00  0.00    +0.000 C 
ATOM     25  C   UNL     1       2.425  13.251  19.682  0.00  0.00    +0.000 C 
ATOM     26  C   UNL     1       1.494  12.930  20.848  0.00  0.00    +0.000 C 
ATOM     27  N   UNL     1       0.388  13.891  20.838  0.00  0.00    +0.000 N 
ATOM     28  C   UNL     1       0.830  15.282  21.035  0.00  0.00    +0.000 C 
ATOM     29  C   UNL     1       1.734  15.676  19.860  0.00  0.00    +0.000 C 
BRANCH  24  30
ATOM     30  C   UNL     1       3.609  14.984  18.407  0.00  0.00    +0.000 C 
ATOM     31  N   UNL     1       4.152  15.205  17.406  0.00  0.00    +0.000 NA
ENDBRANCH  24  30
ENDBRANCH   1  27
TORSDOF 4
ENDMDL
MODEL 6
REMARK VINA RESULT:      -5.9      2.733      5.982
REMARK  Name = 
REMARK  5 active torsions:
REMARK  status: ('A' for Active; 'I' for Inactive)
REMARK    1  A    between atoms: C_1  and  C_2
REMARK    2  A    between atoms: C_2  and  C_3
REMARK    3  A    between atoms: N_7  and  C_8
REMARK    4  A    between atoms: C_9  and  C_10
REMARK    5  A    between atoms: C_16  and  C_18
REMARK                            x       y       z     vdW  Elec       q    Type
REMARK                         _______ _______ _______ _____ _____    ______ ____
ROOT
ATOM      1  C   UNL     1       0.770  14.663  21.096  0.00  0.00    +0.000 A 
ATOM      2  C   UNL     1       1.585  13.518  20.793  0.00  0.00    +0.000 A 
ATOM      3  C   UNL     1       2.854  13.696  20.252  0.00  0.00    +0.000 A 
ATOM      4  N   UNL     1       3.463  14.864  20.002  0.00  0.00    +0.000 NA
ATOM      5  C   UNL     1       2.707  15.963  20.234  0.00  0.00    +0.000 A 
ATOM      6  C   UNL     1       3.138  17.279  19.896  0.00  0.00    +0.000 A 
ATOM      7  C   UNL     1       2.191  18.229  20.178  0.00  0.00    +0.000 A 
ATOM      8  S   UNL     1       0.871  17.556  21.009  0.00  0.00    +0.000 S 
ATOM      9  C   UNL     1       1.418  15.912  20.779  0.00  0.00    +0.000 A 
ENDROOT
BRANCH   2  10
ATOM     10  C   UNL     1       1.075  12.118  20.738  0.00  0.00    +0.000 C 
ATOM     11  O   UNL     1       1.183  11.455  21.772  0.00  0.00    +0.000 OA
ATOM     12  N   UNL     1       0.436  11.581  19.609  0.00  0.00    +0.000 N 
ATOM     13  C   UNL     1      -0.152  10.238  19.735  0.00  0.00    +0.000 C 
ATOM     14  C   UNL     1      -1.665  10.295  19.497  0.00  0.00    +0.000 C 
ATOM     15  N   UNL     1      -1.966  10.888  18.189  0.00  0.00    +0.000 N 
ATOM     16  C   UNL     1      -2.964  10.287  17.422  0.00  0.00    +0.000 C 
ATOM     17  O   UNL     1      -3.546   9.265  17.786  0.00  0.00    +0.000 OA
ATOM     18  C   UNL     1      -1.332  12.201  17.951  0.00  0.00    +0.000 C 
ATOM     19  C   UNL     1       0.186  12.181  18.282  0.00  0.00    +0.000 C 
BRANCH  16  20
ATOM     20  C   UNL     1      -3.341  10.904  16.113  0.00  0.00    +0.000 C 
ATOM     21  C   UNL     1      -2.722  10.393  14.826  0.00  0.00    +0.000 C 
ATOM     22  C   UNL     1      -4.163  10.105  15.125  0.00  0.00    +0.000 C 
ENDBRANCH  16  20
ENDBRANCH   2  10
BRANCH   1  27
ATOM     23  C   UNL     1      -3.878  15.077  23.152  0.00  0.00    +0.000 C 
ATOM     24  C   UNL     1      -2.932  13.859  23.073  0.00  0.00    +0.000 C 
ATOM     25  C   UNL     1      -2.641  13.487  21.600  0.00  0.00    +0.000 C 
ATOM     26  C   UNL     1      -1.724  14.488  20.903  0.00  0.00    +0.000 C 
ATOM     27  N   UNL     1      -0.496  14.619  21.691  0.00  0.00    +0.000 N 
ATOM     28  C   UNL     1      -0.731  15.150  23.045  0.00  0.00    +0.000 C 
ATOM     29  C   UNL     1      -1.613  14.154  23.810  0.00  0.00    +0.000 C 
BRANCH  24  30
ATOM     30  C   UNL     1      -3.616  12.710  23.716  0.00  0.00    +0.000 C 
ATOM     31  N   UNL     1      -4.158  11.809  24.205  0.00  0.00    +0.000 NA
ENDBRANCH  24  30
ENDBRANCH   1  27
TORSDOF 4
ENDMDL
MODEL 7
REMARK VINA RESULT:      -5.9      4.363      8.915
REMARK  Name = 
REMARK  5 active torsions:
REMARK  status: ('A' for Active; 'I' for Inactive)
REMARK    1  A    between atoms: C_1  and  C_2
REMARK    2  A    between atoms: C_2  and  C_3
REMARK    3  A    between atoms: N_7  and  C_8
REMARK    4  A    between atoms: C_9  and  C_10
REMARK    5  A    between atoms: C_16  and  C_18
REMARK                            x       y       z     vdW  Elec       q    Type
REMARK                         _______ _______ _______ _____ _____    ______ ____
ROOT
ATOM      1  C   UNL     1       3.155   5.095  19.061  0.00  0.00    +0.000 A 
ATOM      2  C   UNL     1       2.194   6.068  19.503  0.00  0.00    +0.000 A 
ATOM      3  C   UNL     1       1.053   5.655  20.182  0.00  0.00    +0.000 A 
ATOM      4  N   UNL     1       0.739   4.400  20.535  0.00  0.00    +0.000 NA
ATOM      5  C   UNL     1       1.601   3.453  20.097  0.00  0.00    +0.000 A 
ATOM      6  C   UNL     1       1.357   2.057  20.257  0.00  0.00    +0.000 A 
ATOM      7  C   UNL     1       2.339   1.285  19.695  0.00  0.00    +0.000 A 
ATOM      8  S   UNL     1       3.632   2.239  19.142  0.00  0.00    +0.000 S 
ATOM      9  C   UNL     1       2.783   3.745  19.405  0.00  0.00    +0.000 A 
ENDROOT
BRANCH   2  10
ATOM     10  C   UNL     1       2.163   7.486  19.039  0.00  0.00    +0.000 C 
ATOM     11  O   UNL     1       2.428   7.678  17.850  0.00  0.00    +0.000 OA
ATOM     12  N   UNL     1       1.785   8.554  19.868  0.00  0.00    +0.000 N 
ATOM     13  C   UNL     1       1.653   9.882  19.249  0.00  0.00    +0.000 C 
ATOM     14  C   UNL     1       0.215  10.393  19.387  0.00  0.00    +0.000 C 
ATOM     15  N   UNL     1      -0.198  10.419  20.796  0.00  0.00    +0.000 N 
ATOM     16  C   UNL     1      -0.913  11.531  21.239  0.00  0.00    +0.000 C 
ATOM     17  O   UNL     1      -1.153  12.492  20.507  0.00  0.00    +0.000 OA
ATOM     18  C   UNL     1      -0.008   9.141  21.512  0.00  0.00    +0.000 C 
ATOM     19  C   UNL     1       1.419   8.563  21.300  0.00  0.00    +0.000 C 
BRANCH  16  20
ATOM     20  C   UNL     1      -1.405  11.559  22.650  0.00  0.00    +0.000 C 
ATOM     21  C   UNL     1      -1.515  12.878  23.391  0.00  0.00    +0.000 C 
ATOM     22  C   UNL     1      -2.759  12.163  22.952  0.00  0.00    +0.000 C 
ENDBRANCH  16  20
ENDBRANCH   2  10
BRANCH   1  27
ATOM     23  C   UNL     1       7.563   5.596  16.549  0.00  0.00    +0.000 C 
ATOM     24  C   UNL     1       6.793   6.616  17.414  0.00  0.00    +0.000 C 
ATOM     25  C   UNL     1       5.392   6.893  16.818  0.00  0.00    +0.000 C 
ATOM     26  C   UNL     1       4.428   5.723  16.995  0.00  0.00    +0.000 C 
ATOM     27  N   UNL     1       4.363   5.386  18.419  0.00  0.00    +0.000 N 
ATOM     28  C   UNL     1       5.656   4.940  18.967  0.00  0.00    +0.000 C 
ATOM     29  C   UNL     1       6.655   6.100  18.858  0.00  0.00    +0.000 C 
BRANCH  24  30
ATOM     30  C   UNL     1       7.559   7.886  17.410  0.00  0.00    +0.000 C 
ATOM     31  N   UNL     1       8.146   8.886  17.416  0.00  0.00    +0.000 NA
ENDBRANCH  24  30
ENDBRANCH   1  27
TORSDOF 4
ENDMDL
MODEL 8
REMARK VINA RESULT:      -5.9      2.365      5.441
REMARK  Name = 
REMARK  5 active torsions:
REMARK  status: ('A' for Active; 'I' for Inactive)
REMARK    1  A    between atoms: C_1  and  C_2
REMARK    2  A    between atoms: C_2  and  C_3
REMARK    3  A    between atoms: N_7  and  C_8
REMARK    4  A    between atoms: C_9  and  C_10
REMARK    5  A    between atoms: C_16  and  C_18
REMARK                            x       y       z     vdW  Elec       q    Type
REMARK                         _______ _______ _______ _____ _____    ______ ____
ROOT
ATOM      1  C   UNL     1      -1.852  14.350  22.317  0.00  0.00    +0.000 A 
ATOM      2  C   UNL     1      -0.777  13.854  21.503  0.00  0.00    +0.000 A 
ATOM      3  C   UNL     1       0.506  14.366  21.665  0.00  0.00    +0.000 A 
ATOM      4  N   UNL     1       0.897  15.283  22.562  0.00  0.00    +0.000 NA
ATOM      5  C   UNL     1      -0.099  15.803  23.316  0.00  0.00    +0.000 A 
ATOM      6  C   UNL     1       0.107  16.884  24.223  0.00  0.00    +0.000 A 
ATOM      7  C   UNL     1      -1.051  17.277  24.842  0.00  0.00    +0.000 A 
ATOM      8  S   UNL     1      -2.336  16.230  24.467  0.00  0.00    +0.000 S 
ATOM      9  C   UNL     1      -1.428  15.369  23.246  0.00  0.00    +0.000 A 
ENDROOT
BRANCH   2  10
ATOM     10  C   UNL     1      -0.967  13.028  20.276  0.00  0.00    +0.000 C 
ATOM     11  O   UNL     1      -1.326  13.630  19.261  0.00  0.00    +0.000 OA
ATOM     12  N   UNL     1      -0.689  11.653  20.230  0.00  0.00    +0.000 N 
ATOM     13  C   UNL     1      -0.776  10.985  18.921  0.00  0.00    +0.000 C 
ATOM     14  C   UNL     1       0.585  10.398  18.532  0.00  0.00    +0.000 C 
ATOM     15  N   UNL     1       1.073   9.479  19.567  0.00  0.00    +0.000 N 
ATOM     16  C   UNL     1       1.656   8.283  19.147  0.00  0.00    +0.000 C 
ATOM     17  O   UNL     1       1.719   7.965  17.959  0.00  0.00    +0.000 OA
ATOM     18  C   UNL     1       1.102  10.051  20.929  0.00  0.00    +0.000 C 
ATOM     19  C   UNL     1      -0.243  10.735  21.299  0.00  0.00    +0.000 C 
BRANCH  16  20
ATOM     20  C   UNL     1       2.222   7.355  20.173  0.00  0.00    +0.000 C 
ATOM     21  C   UNL     1       1.400   6.183  20.675  0.00  0.00    +0.000 C 
ATOM     22  C   UNL     1       2.576   5.938  19.777  0.00  0.00    +0.000 C 
ENDBRANCH  16  20
ENDBRANCH   2  10
BRANCH   1  27
ATOM     23  C   UNL     1      -6.522  12.398  21.699  0.00  0.00    +0.000 C 
ATOM     24  C   UNL     1      -5.964  13.302  22.819  0.00  0.00    +0.000 C 
ATOM     25  C   UNL     1      -4.798  12.602  23.557  0.00  0.00    +0.000 C 
ATOM     26  C   UNL     1      -3.524  12.526  22.721  0.00  0.00    +0.000 C 
ATOM     27  N   UNL     1      -3.170  13.881  22.289  0.00  0.00    +0.000 N 
ATOM     28  C   UNL     1      -4.192  14.499  21.427  0.00  0.00    +0.000 C 
ATOM     29  C   UNL     1      -5.487  14.645  22.238  0.00  0.00    +0.000 C 
BRANCH  24  30
ATOM     30  C   UNL     1      -7.055  13.541  23.795  0.00  0.00    +0.000 C 
ATOM     31  N   UNL     1      -7.907  13.713  24.563  0.00  0.00    +0.000 NA
ENDBRANCH  24  30
ENDBRANCH   1  27
TORSDOF 4
ENDMDL
MODEL 9
REMARK VINA RESULT:      -5.9      4.320      9.117
REMARK  Name = 
REMARK  5 active torsions:
REMARK  status: ('A' for Active; 'I' for Inactive)
REMARK    1  A    between atoms: C_1  and  C_2
REMARK    2  A    between atoms: C_2  and  C_3
REMARK    3  A    between atoms: N_7  and  C_8
REMARK    4  A    between atoms: C_9  and  C_10
REMARK    5  A    between atoms: C_16  and  C_18
REMARK                            x       y       z     vdW  Elec       q    Type
REMARK                         _______ _______ _______ _____ _____    ______ ____
ROOT
ATOM      1  C   UNL     1       3.278   5.434  19.250  0.00  0.00    +0.000 A 
ATOM      2  C   UNL     1       2.188   6.289  19.631  0.00  0.00    +0.000 A 
ATOM      3  C   UNL     1       1.117   5.768  20.349  0.00  0.00    +0.000 A 
ATOM      4  N   UNL     1       0.984   4.509  20.791  0.00  0.00    +0.000 NA
ATOM      5  C   UNL     1       1.972   3.665  20.412  0.00  0.00    +0.000 A 
ATOM      6  C   UNL     1       1.929   2.264  20.673  0.00  0.00    +0.000 A 
ATOM      7  C   UNL     1       3.012   1.601  20.156  0.00  0.00    +0.000 A 
ATOM      8  S   UNL     1       4.156   2.687  19.525  0.00  0.00    +0.000 S 
ATOM      9  C   UNL     1       3.102   4.072  19.691  0.00  0.00    +0.000 A 
ENDROOT
BRANCH   2  10
ATOM     10  C   UNL     1       1.956   7.652  19.070  0.00  0.00    +0.000 C 
ATOM     11  O   UNL     1       2.047   7.761  17.845  0.00  0.00    +0.000 OA
ATOM     12  N   UNL     1       1.581   8.751  19.859  0.00  0.00    +0.000 N 
ATOM     13  C   UNL     1       1.238  10.002  19.164  0.00  0.00    +0.000 C 
ATOM     14  C   UNL     1      -0.215  10.392  19.456  0.00  0.00    +0.000 C 
ATOM     15  N   UNL     1      -0.445  10.505  20.902  0.00  0.00    +0.000 N 
ATOM     16  C   UNL     1      -1.206  11.583  21.352  0.00  0.00    +0.000 C 
ATOM     17  O   UNL     1      -1.633  12.450  20.588  0.00  0.00    +0.000 OA
ATOM     18  C   UNL     1      -0.038   9.317  21.681  0.00  0.00    +0.000 C 
ATOM     19  C   UNL     1       1.401   8.853  21.323  0.00  0.00    +0.000 C 
BRANCH  16  20
ATOM     20  C   UNL     1      -1.515  11.691  22.811  0.00  0.00    +0.000 C 
ATOM     21  C   UNL     1      -1.560  13.053  23.479  0.00  0.00    +0.000 C 
ATOM     22  C   UNL     1      -2.833  12.293  23.247  0.00  0.00    +0.000 C 
ENDBRANCH  16  20
ENDBRANCH   2  10
BRANCH   1  27
ATOM     23  C   UNL     1       7.503   7.390  17.173  0.00  0.00    +0.000 C 
ATOM     24  C   UNL     1       6.664   6.166  16.749  0.00  0.00    +0.000 C 
ATOM     25  C   UNL     1       6.635   5.105  17.875  0.00  0.00    +0.000 C 
ATOM     26  C   UNL     1       5.776   5.524  19.065  0.00  0.00    +0.000 C 
ATOM     27  N   UNL     1       4.433   5.847  18.577  0.00  0.00    +0.000 N 
ATOM     28  C   UNL     1       4.416   6.982  17.638  0.00  0.00    +0.000 C 
ATOM     29  C   UNL     1       5.229   6.595  16.395  0.00  0.00    +0.000 C 
BRANCH  24  30
ATOM     30  C   UNL     1       7.311   5.561  15.558  0.00  0.00    +0.000 C 
ATOM     31  N   UNL     1       7.815   5.103  14.620  0.00  0.00    +0.000 NA
ENDBRANCH  24  30
ENDBRANCH   1  27
TORSDOF 4
ENDMDL
