MODEL 1
REMARK VINA RESULT:      -8.0      0.000      0.000
REMARK  Name = 
REMARK  8 active torsions:
REMARK  status: ('A' for Active; 'I' for Inactive)
REMARK    1  A    between atoms: C_1  and  C_2
REMARK    2  A    between atoms: C_2  and  C_3
REMARK    3  A    between atoms: C_3  and  C_4
REMARK    4  A    between atoms: C_6  and  N_7
REMARK    5  A    between atoms: N_7  and  C_8
REMARK    6  A    between atoms: C_12  and  O_13
REMARK    7  A    between atoms: O_13  and  C_14
REMARK    8  A    between atoms: C_14  and  C_15
REMARK                            x       y       z     vdW  Elec       q    Type
REMARK                         _______ _______ _______ _____ _____    ______ ____
ROOT
ATOM      1  C   UNL     1       7.598   6.620  17.834  0.00  0.00    +0.000 A 
ATOM      2  C   UNL     1       7.002   5.597  18.740  0.00  0.00    +0.000 A 
ATOM      3  C   UNL     1       6.336   4.574  18.172  0.00  0.00    +0.000 A 
ATOM      4  N   UNL     1       6.297   4.520  16.764  0.00  0.00    +0.000 N 
ATOM      5  N   UNL     1       5.727   3.587  15.955  0.00  0.00    +0.000 NA
ATOM      6  C   UNL     1       5.980   4.087  14.741  0.00  0.00    +0.000 A 
ATOM      7  N   UNL     1       6.686   5.248  14.710  0.00  0.00    +0.000 NA
ATOM      8  C   UNL     1       6.893   5.520  15.980  0.00  0.00    +0.000 A 
ATOM      9  N   UNL     1       7.545   6.580  16.536  0.00  0.00    +0.000 NA
ENDROOT
BRANCH   3  10
ATOM     10  N   UNL     1       5.714   3.570  18.907  0.00  0.00    +0.000 N 
ATOM     11  H   UNL     1       5.954   2.640  18.555  0.00  0.00    +0.000 HD
BRANCH  10  12
ATOM     12  C   UNL     1       4.354   3.608  19.319  0.00  0.00    +0.000 A 
ATOM     13  C   UNL     1       3.583   2.462  19.559  0.00  0.00    +0.000 A 
ATOM     14  C   UNL     1       2.240   2.560  19.927  0.00  0.00    +0.000 A 
ATOM     15  C   UNL     1       1.641   3.809  20.047  0.00  0.00    +0.000 A 
ATOM     16  C   UNL     1       2.376   4.967  19.789  0.00  0.00    +0.000 A 
ATOM     17  C   UNL     1       3.720   4.861  19.413  0.00  0.00    +0.000 A 
BRANCH  16  18
ATOM     18  O   UNL     1       1.673   6.134  19.940  0.00  0.00    +0.000 OA
BRANCH  18  19
ATOM     19  C   UNL     1       2.380   7.343  19.669  0.00  0.00    +0.000 C 
ATOM     20  C   UNL     1       2.090   7.766  18.241  0.00  0.00    +0.000 C 
ENDBRANCH  18  19
ENDBRANCH  16  18
ENDBRANCH  10  12
ENDBRANCH   3  10
BRANCH   1  21
ATOM     21  C   UNL     1       8.320   7.769  18.512  0.00  0.00    +0.000 C 
BRANCH  21  23
ATOM     22  C   UNL     1       8.973  10.184  18.334  0.00  0.00    +0.000 C 
ATOM     23  C   UNL     1       8.039   9.098  17.821  0.00  0.00    +0.000 C 
ENDBRANCH  21  23
ENDBRANCH   1  21
TORSDOF 6
ENDMDL
MODEL 2
REMARK VINA RESULT:      -8.0      1.652      3.604
REMARK  Name = 
REMARK  8 active torsions:
REMARK  status: ('A' for Active; 'I' for Inactive)
REMARK    1  A    between atoms: C_1  and  C_2
REMARK    2  A    between atoms: C_2  and  C_3
REMARK    3  A    between atoms: C_3  and  C_4
REMARK    4  A    between atoms: C_6  and  N_7
REMARK    5  A    between atoms: N_7  and  C_8
REMARK    6  A    between atoms: C_12  and  O_13
REMARK    7  A    between atoms: O_13  and  C_14
REMARK    8  A    between atoms: C_14  and  C_15
REMARK                            x       y       z     vdW  Elec       q    Type
REMARK                         _______ _______ _______ _____ _____    ______ ____
ROOT
ATOM      1  C   UNL     1       5.870   4.895  15.705  0.00  0.00    +0.000 A 
ATOM      2  C   UNL     1       5.143   3.998  16.649  0.00  0.00    +0.000 A 
ATOM      3  C   UNL     1       5.494   4.044  17.948  0.00  0.00    +0.000 A 
ATOM      4  N   UNL     1       6.485   4.973  18.324  0.00  0.00    +0.000 N 
ATOM      5  N   UNL     1       6.989   5.240  19.559  0.00  0.00    +0.000 NA
ATOM      6  C   UNL     1       7.908   6.170  19.285  0.00  0.00    +0.000 A 
ATOM      7  N   UNL     1       8.015   6.537  17.981  0.00  0.00    +0.000 NA
ATOM      8  C   UNL     1       7.116   5.791  17.375  0.00  0.00    +0.000 A 
ATOM      9  N   UNL     1       6.797   5.738  16.050  0.00  0.00    +0.000 NA
ENDROOT
BRANCH   3  10
ATOM     10  N   UNL     1       4.911   3.242  18.922  0.00  0.00    +0.000 N 
ATOM     11  H   UNL     1       5.124   2.252  18.775  0.00  0.00    +0.000 HD
BRANCH  10  12
ATOM     12  C   UNL     1       3.578   3.397  19.392  0.00  0.00    +0.000 A 
ATOM     13  C   UNL     1       2.610   2.385  19.327  0.00  0.00    +0.000 A 
ATOM     14  C   UNL     1       1.305   2.607  19.770  0.00  0.00    +0.000 A 
ATOM     15  C   UNL     1       0.943   3.852  20.272  0.00  0.00    +0.000 A 
ATOM     16  C   UNL     1       1.877   4.886  20.324  0.00  0.00    +0.000 A 
ATOM     17  C   UNL     1       3.183   4.659  19.871  0.00  0.00    +0.000 A 
BRANCH  16  18
ATOM     18  O   UNL     1       1.398   6.064  20.837  0.00  0.00    +0.000 OA
BRANCH  18  19
ATOM     19  C   UNL     1       1.846   7.262  20.207  0.00  0.00    +0.000 C 
ATOM     20  C   UNL     1       1.394   8.447  21.039  0.00  0.00    +0.000 C 
ENDBRANCH  18  19
ENDBRANCH  16  18
ENDBRANCH  10  12
ENDBRANCH   3  10
BRANCH   1  21
ATOM     21  C   UNL     1       5.462   4.796  14.247  0.00  0.00    +0.000 C 
BRANCH  21  23
ATOM     22  C   UNL     1       5.544   3.340  12.207  0.00  0.00    +0.000 C 
ATOM     23  C   UNL     1       6.224   3.692  13.522  0.00  0.00    +0.000 C 
ENDBRANCH  21  23
ENDBRANCH   1  21
TORSDOF 6
ENDMDL
MODEL 3
REMARK VINA RESULT:      -7.8      1.845      2.416
REMARK  Name = 
REMARK  8 active torsions:
REMARK  status: ('A' for Active; 'I' for Inactive)
REMARK    1  A    between atoms: C_1  and  C_2
REMARK    2  A    between atoms: C_2  and  C_3
REMARK    3  A    between atoms: C_3  and  C_4
REMARK    4  A    between atoms: C_6  and  N_7
REMARK    5  A    between atoms: N_7  and  C_8
REMARK    6  A    between atoms: C_12  and  O_13
REMARK    7  A    between atoms: O_13  and  C_14
REMARK    8  A    between atoms: C_14  and  C_15
REMARK                            x       y       z     vdW  Elec       q    Type
REMARK                         _______ _______ _______ _____ _____    ______ ____
ROOT
ATOM      1  C   UNL     1       7.280   6.082  17.236  0.00  0.00    +0.000 A 
ATOM      2  C   UNL     1       6.403   4.994  17.753  0.00  0.00    +0.000 A 
ATOM      3  C   UNL     1       5.900   4.121  16.860  0.00  0.00    +0.000 A 
ATOM      4  N   UNL     1       6.283   4.271  15.512  0.00  0.00    +0.000 N 
ATOM      5  N   UNL     1       5.949   3.513  14.433  0.00  0.00    +0.000 NA
ATOM      6  C   UNL     1       6.573   4.156  13.442  0.00  0.00    +0.000 A 
ATOM      7  N   UNL     1       7.298   5.248  13.804  0.00  0.00    +0.000 NA
ATOM      8  C   UNL     1       7.124   5.318  15.106  0.00  0.00    +0.000 A 
ATOM      9  N   UNL     1       7.618   6.232  15.990  0.00  0.00    +0.000 NA
ENDROOT
BRANCH   3  10
ATOM     10  N   UNL     1       5.050   3.078  17.211  0.00  0.00    +0.000 N 
ATOM     11  H   UNL     1       5.096   2.309  16.538  0.00  0.00    +0.000 HD
BRANCH  10  12
ATOM     12  C   UNL     1       3.715   3.255  17.670  0.00  0.00    +0.000 A 
ATOM     13  C   UNL     1       2.819   4.177  17.112  0.00  0.00    +0.000 A 
ATOM     14  C   UNL     1       1.531   4.334  17.628  0.00  0.00    +0.000 A 
ATOM     15  C   UNL     1       1.124   3.579  18.723  0.00  0.00    +0.000 A 
ATOM     16  C   UNL     1       2.003   2.673  19.317  0.00  0.00    +0.000 A 
ATOM     17  C   UNL     1       3.296   2.526  18.798  0.00  0.00    +0.000 A 
BRANCH  16  18
ATOM     18  O   UNL     1       1.485   1.993  20.388  0.00  0.00    +0.000 OA
BRANCH  18  19
ATOM     19  C   UNL     1       1.187   2.765  21.549  0.00  0.00    +0.000 C 
ATOM     20  C   UNL     1       2.408   3.589  21.912  0.00  0.00    +0.000 C 
ENDBRANCH  18  19
ENDBRANCH  16  18
ENDBRANCH  10  12
ENDBRANCH   3  10
BRANCH   1  21
ATOM     21  C   UNL     1       7.807   7.059  18.269  0.00  0.00    +0.000 C 
BRANCH  21  23
ATOM     22  C   UNL     1       8.713   9.371  18.621  0.00  0.00    +0.000 C 
ATOM     23  C   UNL     1       7.867   8.481  17.723  0.00  0.00    +0.000 C 
ENDBRANCH  21  23
ENDBRANCH   1  21
TORSDOF 6
ENDMDL
MODEL 4
REMARK VINA RESULT:      -7.6      2.236      4.439
REMARK  Name = 
REMARK  8 active torsions:
REMARK  status: ('A' for Active; 'I' for Inactive)
REMARK    1  A    between atoms: C_1  and  C_2
REMARK    2  A    between atoms: C_2  and  C_3
REMARK    3  A    between atoms: C_3  and  C_4
REMARK    4  A    between atoms: C_6  and  N_7
REMARK    5  A    between atoms: N_7  and  C_8
REMARK    6  A    between atoms: C_12  and  O_13
REMARK    7  A    between atoms: O_13  and  C_14
REMARK    8  A    between atoms: C_14  and  C_15
REMARK                            x       y       z     vdW  Elec       q    Type
REMARK                         _______ _______ _______ _____ _____    ______ ____
ROOT
ATOM      1  C   UNL     1       6.595   4.833  15.199  0.00  0.00    +0.000 A 
ATOM      2  C   UNL     1       5.365   5.581  15.583  0.00  0.00    +0.000 A 
ATOM      3  C   UNL     1       5.230   5.938  16.874  0.00  0.00    +0.000 A 
ATOM      4  N   UNL     1       6.286   5.624  17.753  0.00  0.00    +0.000 N 
ATOM      5  N   UNL     1       6.413   5.900  19.079  0.00  0.00    +0.000 NA
ATOM      6  C   UNL     1       7.587   5.331  19.366  0.00  0.00    +0.000 A 
ATOM      7  N   UNL     1       8.231   4.736  18.328  0.00  0.00    +0.000 NA
ATOM      8  C   UNL     1       7.419   4.925  17.310  0.00  0.00    +0.000 A 
ATOM      9  N   UNL     1       7.561   4.526  16.014  0.00  0.00    +0.000 NA
ENDROOT
BRANCH   3  10
ATOM     10  N   UNL     1       4.119   6.616  17.364  0.00  0.00    +0.000 N 
ATOM     11  H   UNL     1       4.354   7.568  17.656  0.00  0.00    +0.000 HD
BRANCH  10  12
ATOM     12  C   UNL     1       3.164   6.047  18.252  0.00  0.00    +0.000 A 
ATOM     13  C   UNL     1       2.804   6.625  19.477  0.00  0.00    +0.000 A 
ATOM     14  C   UNL     1       1.887   6.003  20.326  0.00  0.00    +0.000 A 
ATOM     15  C   UNL     1       1.326   4.782  19.968  0.00  0.00    +0.000 A 
ATOM     16  C   UNL     1       1.685   4.169  18.767  0.00  0.00    +0.000 A 
ATOM     17  C   UNL     1       2.612   4.796  17.924  0.00  0.00    +0.000 A 
BRANCH  16  18
ATOM     18  O   UNL     1       1.066   2.970  18.530  0.00  0.00    +0.000 OA
BRANCH  18  19
ATOM     19  C   UNL     1       1.613   1.829  19.190  0.00  0.00    +0.000 C 
ATOM     20  C   UNL     1       2.964   1.513  18.577  0.00  0.00    +0.000 C 
ENDBRANCH  18  19
ENDBRANCH  16  18
ENDBRANCH  10  12
ENDBRANCH   3  10
BRANCH   1  21
ATOM     21  C   UNL     1       6.699   4.427  13.741  0.00  0.00    +0.000 C 
BRANCH  21  23
ATOM     22  C   UNL     1       5.659   3.066  11.909  0.00  0.00    +0.000 C 
ATOM     23  C   UNL     1       5.431   3.732  13.257  0.00  0.00    +0.000 C 
ENDBRANCH  21  23
ENDBRANCH   1  21
TORSDOF 6
ENDMDL
MODEL 5
REMARK VINA RESULT:      -7.6      1.483      3.802
REMARK  Name = 
REMARK  8 active torsions:
REMARK  status: ('A' for Active; 'I' for Inactive)
REMARK    1  A    between atoms: C_1  and  C_2
REMARK    2  A    between atoms: C_2  and  C_3
REMARK    3  A    between atoms: C_3  and  C_4
REMARK    4  A    between atoms: C_6  and  N_7
REMARK    5  A    between atoms: N_7  and  C_8
REMARK    6  A    between atoms: C_12  and  O_13
REMARK    7  A    between atoms: O_13  and  C_14
REMARK    8  A    between atoms: C_14  and  C_15
REMARK                            x       y       z     vdW  Elec       q    Type
REMARK                         _______ _______ _______ _____ _____    ______ ____
ROOT
ATOM      1  C   UNL     1       5.661   4.568  15.166  0.00  0.00    +0.000 A 
ATOM      2  C   UNL     1       5.060   3.890  16.350  0.00  0.00    +0.000 A 
ATOM      3  C   UNL     1       5.471   4.285  17.570  0.00  0.00    +0.000 A 
ATOM      4  N   UNL     1       6.397   5.345  17.636  0.00  0.00    +0.000 N 
ATOM      5  N   UNL     1       6.938   5.948  18.729  0.00  0.00    +0.000 NA
ATOM      6  C   UNL     1       7.761   6.840  18.171  0.00  0.00    +0.000 A 
ATOM      7  N   UNL     1       7.771   6.873  16.812  0.00  0.00    +0.000 NA
ATOM      8  C   UNL     1       6.909   5.939  16.473  0.00  0.00    +0.000 A 
ATOM      9  N   UNL     1       6.531   5.532  15.227  0.00  0.00    +0.000 NA
ENDROOT
BRANCH   3  10
ATOM     10  N   UNL     1       5.006   3.715  18.750  0.00  0.00    +0.000 N 
ATOM     11  H   UNL     1       5.054   2.694  18.722  0.00  0.00    +0.000 HD
BRANCH  10  12
ATOM     12  C   UNL     1       3.833   4.138  19.433  0.00  0.00    +0.000 A 
ATOM     13  C   UNL     1       2.919   3.256  20.026  0.00  0.00    +0.000 A 
ATOM     14  C   UNL     1       1.764   3.726  20.652  0.00  0.00    +0.000 A 
ATOM     15  C   UNL     1       1.496   5.091  20.682  0.00  0.00    +0.000 A 
ATOM     16  C   UNL     1       2.373   5.992  20.077  0.00  0.00    +0.000 A 
ATOM     17  C   UNL     1       3.527   5.511  19.445  0.00  0.00    +0.000 A 
BRANCH  16  18
ATOM     18  O   UNL     1       1.998   7.306  20.173  0.00  0.00    +0.000 OA
BRANCH  18  19
ATOM     19  C   UNL     1       0.962   7.607  21.107  0.00  0.00    +0.000 C 
ATOM     20  C   UNL     1       1.362   8.839  21.896  0.00  0.00    +0.000 C 
ENDBRANCH  18  19
ENDBRANCH  16  18
ENDBRANCH  10  12
ENDBRANCH   3  10
BRANCH   1  21
ATOM     21  C   UNL     1       5.192   4.079  13.810  0.00  0.00    +0.000 C 
BRANCH  21  23
ATOM     22  C   UNL     1       5.914   2.703  11.841  0.00  0.00    +0.000 C 
ATOM     23  C   UNL     1       6.362   3.681  12.917  0.00  0.00    +0.000 C 
ENDBRANCH  21  23
ENDBRANCH   1  21
TORSDOF 6
ENDMDL
MODEL 6
REMARK VINA RESULT:      -7.6      2.263      4.383
REMARK  Name = 
REMARK  8 active torsions:
REMARK  status: ('A' for Active; 'I' for Inactive)
REMARK    1  A    between atoms: C_1  and  C_2
REMARK    2  A    between atoms: C_2  and  C_3
REMARK    3  A    between atoms: C_3  and  C_4
REMARK    4  A    between atoms: C_6  and  N_7
REMARK    5  A    between atoms: N_7  and  C_8
REMARK    6  A    between atoms: C_12  and  O_13
REMARK    7  A    between atoms: O_13  and  C_14
REMARK    8  A    between atoms: C_14  and  C_15
REMARK                            x       y       z     vdW  Elec       q    Type
REMARK                         _______ _______ _______ _____ _____    ______ ____
ROOT
ATOM      1  C   UNL     1       6.206   5.435  18.646  0.00  0.00    +0.000 A 
ATOM      2  C   UNL     1       5.032   6.215  18.161  0.00  0.00    +0.000 A 
ATOM      3  C   UNL     1       3.816   5.647  18.274  0.00  0.00    +0.000 A 
ATOM      4  N   UNL     1       3.741   4.381  18.890  0.00  0.00    +0.000 N 
ATOM      5  N   UNL     1       2.647   3.617  19.154  0.00  0.00    +0.000 NA
ATOM      6  C   UNL     1       3.198   2.530  19.703  0.00  0.00    +0.000 A 
ATOM      7  N   UNL     1       4.551   2.549  19.833  0.00  0.00    +0.000 NA
ATOM      8  C   UNL     1       4.895   3.715  19.329  0.00  0.00    +0.000 A 
ATOM      9  N   UNL     1       6.138   4.259  19.195  0.00  0.00    +0.000 NA
ENDROOT
BRANCH   3  10
ATOM     10  N   UNL     1       2.647   6.259  17.838  0.00  0.00    +0.000 N 
ATOM     11  H   UNL     1       2.608   6.317  16.817  0.00  0.00    +0.000 HD
BRANCH  10  12
ATOM     12  C   UNL     1       2.093   7.432  18.421  0.00  0.00    +0.000 A 
ATOM     13  C   UNL     1       1.802   8.596  17.697  0.00  0.00    +0.000 A 
ATOM     14  C   UNL     1       1.293   9.731  18.330  0.00  0.00    +0.000 A 
ATOM     15  C   UNL     1       1.082   9.725  19.705  0.00  0.00    +0.000 A 
ATOM     16  C   UNL     1       1.388   8.590  20.457  0.00  0.00    +0.000 A 
ATOM     17  C   UNL     1       1.904   7.457  19.815  0.00  0.00    +0.000 A 
BRANCH  16  18
ATOM     18  O   UNL     1       1.137   8.709  21.799  0.00  0.00    +0.000 OA
BRANCH  18  19
ATOM     19  C   UNL     1      -0.234   8.720  22.193  0.00  0.00    +0.000 C 
ATOM     20  C   UNL     1      -0.452   9.867  23.161  0.00  0.00    +0.000 C 
ENDBRANCH  18  19
ENDBRANCH  16  18
ENDBRANCH  10  12
ENDBRANCH   3  10
BRANCH   1  21
ATOM     21  C   UNL     1       7.560   6.098  18.479  0.00  0.00    +0.000 C 
BRANCH  21  23
ATOM     22  C   UNL     1       8.096   8.462  17.834  0.00  0.00    +0.000 C 
ATOM     23  C   UNL     1       7.550   7.127  17.353  0.00  0.00    +0.000 C 
ENDBRANCH  21  23
ENDBRANCH   1  21
TORSDOF 6
ENDMDL
MODEL 7
REMARK VINA RESULT:      -7.5      1.375      2.000
REMARK  Name = 
REMARK  8 active torsions:
REMARK  status: ('A' for Active; 'I' for Inactive)
REMARK    1  A    between atoms: C_1  and  C_2
REMARK    2  A    between atoms: C_2  and  C_3
REMARK    3  A    between atoms: C_3  and  C_4
REMARK    4  A    between atoms: C_6  and  N_7
REMARK    5  A    between atoms: N_7  and  C_8
REMARK    6  A    between atoms: C_12  and  O_13
REMARK    7  A    between atoms: O_13  and  C_14
REMARK    8  A    between atoms: C_14  and  C_15
REMARK                            x       y       z     vdW  Elec       q    Type
REMARK                         _______ _______ _______ _____ _____    ______ ____
ROOT
ATOM      1  C   UNL     1       7.664   6.656  17.666  0.00  0.00    +0.000 A 
ATOM      2  C   UNL     1       6.913   5.602  18.405  0.00  0.00    +0.000 A 
ATOM      3  C   UNL     1       6.354   4.613  17.683  0.00  0.00    +0.000 A 
ATOM      4  N   UNL     1       6.565   4.621  16.290  0.00  0.00    +0.000 N 
ATOM      5  N   UNL     1       6.145   3.731  15.350  0.00  0.00    +0.000 NA
ATOM      6  C   UNL     1       6.612   4.279  14.225  0.00  0.00    +0.000 A 
ATOM      7  N   UNL     1       7.316   5.432  14.371  0.00  0.00    +0.000 NA
ATOM      8  C   UNL     1       7.295   5.646  15.669  0.00  0.00    +0.000 A 
ATOM      9  N   UNL     1       7.843   6.674  16.379  0.00  0.00    +0.000 NA
ENDROOT
BRANCH   3  10
ATOM     10  N   UNL     1       5.607   3.585  18.249  0.00  0.00    +0.000 N 
ATOM     11  H   UNL     1       5.936   2.666  17.944  0.00  0.00    +0.000 HD
BRANCH  10  12
ATOM     12  C   UNL     1       4.189   3.594  18.357  0.00  0.00    +0.000 A 
ATOM     13  C   UNL     1       3.328   3.295  17.292  0.00  0.00    +0.000 A 
ATOM     14  C   UNL     1       1.942   3.356  17.446  0.00  0.00    +0.000 A 
ATOM     15  C   UNL     1       1.394   3.731  18.668  0.00  0.00    +0.000 A 
ATOM     16  C   UNL     1       2.226   4.059  19.739  0.00  0.00    +0.000 A 
ATOM     17  C   UNL     1       3.616   4.004  19.574  0.00  0.00    +0.000 A 
BRANCH  16  18
ATOM     18  O   UNL     1       1.566   4.414  20.887  0.00  0.00    +0.000 OA
BRANCH  18  19
ATOM     19  C   UNL     1       1.906   3.689  22.067  0.00  0.00    +0.000 C 
ATOM     20  C   UNL     1       1.529   2.234  21.870  0.00  0.00    +0.000 C 
ENDBRANCH  18  19
ENDBRANCH  16  18
ENDBRANCH  10  12
ENDBRANCH   3  10
BRANCH   1  21
ATOM     21  C   UNL     1       8.258   7.766  18.512  0.00  0.00    +0.000 C 
BRANCH  21  23
ATOM     22  C   UNL     1       9.021  10.155  18.473  0.00  0.00    +0.000 C 
ATOM     23  C   UNL     1       8.076   9.132  17.860  0.00  0.00    +0.000 C 
ENDBRANCH  21  23
ENDBRANCH   1  21
TORSDOF 6
ENDMDL
MODEL 8
REMARK VINA RESULT:      -7.4      2.723      6.100
REMARK  Name = 
REMARK  8 active torsions:
REMARK  status: ('A' for Active; 'I' for Inactive)
REMARK    1  A    between atoms: C_1  and  C_2
REMARK    2  A    between atoms: C_2  and  C_3
REMARK    3  A    between atoms: C_3  and  C_4
REMARK    4  A    between atoms: C_6  and  N_7
REMARK    5  A    between atoms: N_7  and  C_8
REMARK    6  A    between atoms: C_12  and  O_13
REMARK    7  A    between atoms: O_13  and  C_14
REMARK    8  A    between atoms: C_14  and  C_15
REMARK                            x       y       z     vdW  Elec       q    Type
REMARK                         _______ _______ _______ _____ _____    ______ ____
ROOT
ATOM      1  C   UNL     1       2.001   6.586  19.842  0.00  0.00    +0.000 A 
ATOM      2  C   UNL     1       2.532   6.116  18.531  0.00  0.00    +0.000 A 
ATOM      3  C   UNL     1       2.700   4.790  18.366  0.00  0.00    +0.000 A 
ATOM      4  N   UNL     1       2.313   3.945  19.425  0.00  0.00    +0.000 N 
ATOM      5  N   UNL     1       2.347   2.587  19.498  0.00  0.00    +0.000 NA
ATOM      6  C   UNL     1       1.899   2.368  20.738  0.00  0.00    +0.000 A 
ATOM      7  N   UNL     1       1.559   3.473  21.452  0.00  0.00    +0.000 NA
ATOM      8  C   UNL     1       1.811   4.466  20.627  0.00  0.00    +0.000 A 
ATOM      9  N   UNL     1       1.662   5.807  20.826  0.00  0.00    +0.000 NA
ENDROOT
BRANCH   3  10
ATOM     10  N   UNL     1       3.210   4.228  17.201  0.00  0.00    +0.000 N 
ATOM     11  H   UNL     1       2.876   3.271  17.064  0.00  0.00    +0.000 HD
BRANCH  10  12
ATOM     12  C   UNL     1       4.565   4.343  16.785  0.00  0.00    +0.000 A 
ATOM     13  C   UNL     1       4.976   4.269  15.447  0.00  0.00    +0.000 A 
ATOM     14  C   UNL     1       6.325   4.351  15.100  0.00  0.00    +0.000 A 
ATOM     15  C   UNL     1       7.290   4.495  16.092  0.00  0.00    +0.000 A 
ATOM     16  C   UNL     1       6.915   4.545  17.435  0.00  0.00    +0.000 A 
ATOM     17  C   UNL     1       5.559   4.454  17.775  0.00  0.00    +0.000 A 
BRANCH  16  18
ATOM     18  O   UNL     1       7.956   4.686  18.314  0.00  0.00    +0.000 OA
BRANCH  18  19
ATOM     19  C   UNL     1       7.849   5.743  19.265  0.00  0.00    +0.000 C 
ATOM     20  C   UNL     1       8.069   7.063  18.551  0.00  0.00    +0.000 C 
ENDBRANCH  18  19
ENDBRANCH  16  18
ENDBRANCH  10  12
ENDBRANCH   3  10
BRANCH   1  21
ATOM     21  C   UNL     1       1.848   8.086  19.999  0.00  0.00    +0.000 C 
BRANCH  21  23
ATOM     22  C   UNL     1      -0.013   9.508  20.896  0.00  0.00    +0.000 C 
ATOM     23  C   UNL     1       1.022   8.445  21.230  0.00  0.00    +0.000 C 
ENDBRANCH  21  23
ENDBRANCH   1  21
TORSDOF 6
ENDMDL
MODEL 9
REMARK VINA RESULT:      -7.4      2.834      6.188
REMARK  Name = 
REMARK  8 active torsions:
REMARK  status: ('A' for Active; 'I' for Inactive)
REMARK    1  A    between atoms: C_1  and  C_2
REMARK    2  A    between atoms: C_2  and  C_3
REMARK    3  A    between atoms: C_3  and  C_4
REMARK    4  A    between atoms: C_6  and  N_7
REMARK    5  A    between atoms: N_7  and  C_8
REMARK    6  A    between atoms: C_12  and  O_13
REMARK    7  A    between atoms: O_13  and  C_14
REMARK    8  A    between atoms: C_14  and  C_15
REMARK                            x       y       z     vdW  Elec       q    Type
REMARK                         _______ _______ _______ _____ _____    ______ ____
ROOT
ATOM      1  C   UNL     1       2.498   6.158  19.885  0.00  0.00    +0.000 A 
ATOM      2  C   UNL     1       3.672   5.632  19.132  0.00  0.00    +0.000 A 
ATOM      3  C   UNL     1       4.074   4.375  19.402  0.00  0.00    +0.000 A 
ATOM      4  N   UNL     1       3.323   3.636  20.338  0.00  0.00    +0.000 N 
ATOM      5  N   UNL     1       3.495   2.353  20.757  0.00  0.00    +0.000 NA
ATOM      6  C   UNL     1       2.518   2.227  21.660  0.00  0.00    +0.000 A 
ATOM      7  N   UNL     1       1.723   3.315  21.834  0.00  0.00    +0.000 NA
ATOM      8  C   UNL     1       2.222   4.201  20.998  0.00  0.00    +0.000 A 
ATOM      9  N   UNL     1       1.817   5.482  20.763  0.00  0.00    +0.000 NA
ENDROOT
BRANCH   3  10
ATOM     10  N   UNL     1       5.169   3.778  18.787  0.00  0.00    +0.000 N 
ATOM     11  H   UNL     1       5.882   3.503  19.467  0.00  0.00    +0.000 HD
BRANCH  10  12
ATOM     12  C   UNL     1       5.779   4.263  17.598  0.00  0.00    +0.000 A 
ATOM     13  C   UNL     1       6.891   5.117  17.588  0.00  0.00    +0.000 A 
ATOM     14  C   UNL     1       7.426   5.591  16.389  0.00  0.00    +0.000 A 
ATOM     15  C   UNL     1       6.846   5.229  15.178  0.00  0.00    +0.000 A 
ATOM     16  C   UNL     1       5.722   4.403  15.157  0.00  0.00    +0.000 A 
ATOM     17  C   UNL     1       5.187   3.937  16.364  0.00  0.00    +0.000 A 
BRANCH  16  18
ATOM     18  O   UNL     1       5.244   4.121  13.904  0.00  0.00    +0.000 OA
BRANCH  18  19
ATOM     19  C   UNL     1       6.184   3.605  12.963  0.00  0.00    +0.000 C 
ATOM     20  C   UNL     1       5.426   2.897  11.857  0.00  0.00    +0.000 C 
ENDBRANCH  18  19
ENDBRANCH  16  18
ENDBRANCH  10  12
ENDBRANCH   3  10
BRANCH   1  21
ATOM     21  C   UNL     1       2.091   7.584  19.571  0.00  0.00    +0.000 C 
BRANCH  21  23
ATOM     22  C   UNL     1       1.956   9.371  17.816  0.00  0.00    +0.000 C 
ATOM     23  C   UNL     1       2.482   7.984  18.152  0.00  0.00    +0.000 C 
ENDBRANCH  21  23
ENDBRANCH   1  21
TORSDOF 6
ENDMDL
