MODEL 1
REMARK VINA RESULT:      -7.2      0.000      0.000
REMARK  Name = 
REMARK  9 active torsions:
REMARK  status: ('A' for Active; 'I' for Inactive)
REMARK    1  A    between atoms: C_1  and  C_2
REMARK    2  A    between atoms: C_2  and  C_3
REMARK    3  A    between atoms: C_3  and  N_4
REMARK    4  A    between atoms: C_3  and  C_9
REMARK    5  A    between atoms: N_4  and  C_5
REMARK    6  A    between atoms: C_5  and  C_6
REMARK    7  A    between atoms: C_5  and  C_7
REMARK    8  A    between atoms: C_5  and  C_8
REMARK    9  A    between atoms: C_9  and  C_11
REMARK                            x       y       z     vdW  Elec       q    Type
REMARK                         _______ _______ _______ _____ _____    ______ ____
ROOT
ATOM      1  C   UNL     1       6.453   5.424  19.119  0.00  0.00    +0.000 C 
ATOM      2  O   UNL     1       7.150   5.329  20.135  0.00  0.00    +0.000 OA
ENDROOT
BRANCH   1   3
ATOM      3  C   UNL     1       5.058   4.877  19.198  0.00  0.00    +0.000 A 
ATOM      4  C   UNL     1       3.942   5.660  19.516  0.00  0.00    +0.000 A 
ATOM      5  C   UNL     1       2.665   5.086  19.542  0.00  0.00    +0.000 A 
ATOM      6  C   UNL     1       2.490   3.730  19.250  0.00  0.00    +0.000 A 
ATOM      7 CL   UNL     1       0.884   3.096  19.290  0.00  0.00    +0.000 Cl
ATOM      8  C   UNL     1       3.600   2.941  18.930  0.00  0.00    +0.000 A 
ATOM      9 CL   UNL     1       3.463   1.263  18.537  0.00  0.00    +0.000 Cl
ATOM     10  C   UNL     1       4.875   3.513  18.910  0.00  0.00    +0.000 A 
ENDBRANCH   1   3
BRANCH   1  11
ATOM     11  C   UNL     1       6.981   6.107  17.844  0.00  0.00    +0.000 C 
BRANCH  11  13
ATOM     12  C   UNL     1       7.785   8.569  17.680  0.00  0.00    +0.000 C 
ATOM     13  C   UNL     1       8.039   7.170  18.218  0.00  0.00    +0.000 C 
ENDBRANCH  11  13
BRANCH  11  14
ATOM     14  N   UNL     1       7.338   5.163  16.763  0.00  0.00    +0.000 NA
ATOM     15  H   UNL     1       7.535   4.255  17.189  0.00  0.00    +0.000 HD
BRANCH  14  16
ATOM     16  C   UNL     1       6.495   4.943  15.570  0.00  0.00    +0.000 C 
ATOM     17  C   UNL     1       5.798   3.574  15.549  0.00  0.00    +0.000 C 
ATOM     18  C   UNL     1       5.384   6.020  15.659  0.00  0.00    +0.000 C 
ATOM     19  C   UNL     1       7.215   5.160  14.232  0.00  0.00    +0.000 C 
ENDBRANCH  14  16
ENDBRANCH  11  14
ENDBRANCH   1  11
TORSDOF 5
ENDMDL
MODEL 2
REMARK VINA RESULT:      -7.1      0.113      1.021
REMARK  Name = 
REMARK  9 active torsions:
REMARK  status: ('A' for Active; 'I' for Inactive)
REMARK    1  A    between atoms: C_1  and  C_2
REMARK    2  A    between atoms: C_2  and  C_3
REMARK    3  A    between atoms: C_3  and  N_4
REMARK    4  A    between atoms: C_3  and  C_9
REMARK    5  A    between atoms: N_4  and  C_5
REMARK    6  A    between atoms: C_5  and  C_6
REMARK    7  A    between atoms: C_5  and  C_7
REMARK    8  A    between atoms: C_5  and  C_8
REMARK    9  A    between atoms: C_9  and  C_11
REMARK                            x       y       z     vdW  Elec       q    Type
REMARK                         _______ _______ _______ _____ _____    ______ ____
ROOT
ATOM      1  C   UNL     1       6.485   5.469  19.070  0.00  0.00    +0.000 C 
ATOM      2  O   UNL     1       7.198   5.318  20.069  0.00  0.00    +0.000 OA
ENDROOT
BRANCH   1   3
ATOM      3  C   UNL     1       5.091   4.918  19.142  0.00  0.00    +0.000 A 
ATOM      4  C   UNL     1       3.968   5.705  19.423  0.00  0.00    +0.000 A 
ATOM      5  C   UNL     1       2.692   5.127  19.443  0.00  0.00    +0.000 A 
ATOM      6  C   UNL     1       2.526   3.764  19.182  0.00  0.00    +0.000 A 
ATOM      7 CL   UNL     1       0.922   3.125  19.213  0.00  0.00    +0.000 Cl
ATOM      8  C   UNL     1       3.644   2.971  18.899  0.00  0.00    +0.000 A 
ATOM      9 CL   UNL     1       3.519   1.284  18.546  0.00  0.00    +0.000 Cl
ATOM     10  C   UNL     1       4.917   3.547  18.885  0.00  0.00    +0.000 A 
ENDBRANCH   1   3
BRANCH   1  11
ATOM     11  C   UNL     1       6.994   6.220  17.827  0.00  0.00    +0.000 C 
BRANCH  11  13
ATOM     12  C   UNL     1       7.863   8.660  17.675  0.00  0.00    +0.000 C 
ATOM     13  C   UNL     1       8.057   7.262  18.242  0.00  0.00    +0.000 C 
ENDBRANCH  11  13
BRANCH  11  14
ATOM     14  N   UNL     1       7.337   5.335  16.692  0.00  0.00    +0.000 NA
ATOM     15  H   UNL     1       7.660   4.443  17.073  0.00  0.00    +0.000 HD
BRANCH  14  16
ATOM     16  C   UNL     1       6.410   5.055  15.576  0.00  0.00    +0.000 C 
ATOM     17  C   UNL     1       5.255   6.061  15.464  0.00  0.00    +0.000 C 
ATOM     18  C   UNL     1       7.269   5.200  14.294  0.00  0.00    +0.000 C 
ATOM     19  C   UNL     1       5.837   3.631  15.566  0.00  0.00    +0.000 C 
ENDBRANCH  14  16
ENDBRANCH  11  14
ENDBRANCH   1  11
TORSDOF 5
ENDMDL
MODEL 3
REMARK VINA RESULT:      -6.9      0.799      2.009
REMARK  Name = 
REMARK  9 active torsions:
REMARK  status: ('A' for Active; 'I' for Inactive)
REMARK    1  A    between atoms: C_1  and  C_2
REMARK    2  A    between atoms: C_2  and  C_3
REMARK    3  A    between atoms: C_3  and  N_4
REMARK    4  A    between atoms: C_3  and  C_9
REMARK    5  A    between atoms: N_4  and  C_5
REMARK    6  A    between atoms: C_5  and  C_6
REMARK    7  A    between atoms: C_5  and  C_7
REMARK    8  A    between atoms: C_5  and  C_8
REMARK    9  A    between atoms: C_9  and  C_11
REMARK                            x       y       z     vdW  Elec       q    Type
REMARK                         _______ _______ _______ _____ _____    ______ ____
ROOT
ATOM      1  C   UNL     1       6.438   5.303  19.071  0.00  0.00    +0.000 C 
ATOM      2  O   UNL     1       7.151   5.218  20.077  0.00  0.00    +0.000 OA
ENDROOT
BRANCH   1   3
ATOM      3  C   UNL     1       5.063   4.708  19.161  0.00  0.00    +0.000 A 
ATOM      4  C   UNL     1       4.768   3.394  18.779  0.00  0.00    +0.000 A 
ATOM      5  C   UNL     1       3.467   2.896  18.921  0.00  0.00    +0.000 A 
ATOM      6  C   UNL     1       2.452   3.702  19.445  0.00  0.00    +0.000 A 
ATOM      7 CL   UNL     1       0.875   3.015  19.600  0.00  0.00    +0.000 Cl
ATOM      8  C   UNL     1       2.739   5.016  19.830  0.00  0.00    +0.000 A 
ATOM      9 CL   UNL     1       1.544   6.066  20.506  0.00  0.00    +0.000 Cl
ATOM     10  C   UNL     1       4.037   5.513  19.684  0.00  0.00    +0.000 A 
ENDBRANCH   1   3
BRANCH   1  11
ATOM     11  C   UNL     1       6.927   6.018  17.799  0.00  0.00    +0.000 C 
BRANCH  11  13
ATOM     12  C   UNL     1       7.731   8.482  17.664  0.00  0.00    +0.000 C 
ATOM     13  C   UNL     1       7.996   7.072  18.168  0.00  0.00    +0.000 C 
ENDBRANCH  11  13
BRANCH  11  14
ATOM     14  N   UNL     1       7.251   5.102  16.684  0.00  0.00    +0.000 NA
ATOM     15  H   UNL     1       7.368   4.163  17.070  0.00  0.00    +0.000 HD
BRANCH  14  16
ATOM     16  C   UNL     1       6.435   5.001  15.457  0.00  0.00    +0.000 C 
ATOM     17  C   UNL     1       7.251   5.104  14.160  0.00  0.00    +0.000 C 
ATOM     18  C   UNL     1       5.821   3.579  15.499  0.00  0.00    +0.000 C 
ATOM     19  C   UNL     1       5.261   5.988  15.390  0.00  0.00    +0.000 C 
ENDBRANCH  14  16
ENDBRANCH  11  14
ENDBRANCH   1  11
TORSDOF 5
ENDMDL
MODEL 4
REMARK VINA RESULT:      -6.8      0.862      1.674
REMARK  Name = 
REMARK  9 active torsions:
REMARK  status: ('A' for Active; 'I' for Inactive)
REMARK    1  A    between atoms: C_1  and  C_2
REMARK    2  A    between atoms: C_2  and  C_3
REMARK    3  A    between atoms: C_3  and  N_4
REMARK    4  A    between atoms: C_3  and  C_9
REMARK    5  A    between atoms: N_4  and  C_5
REMARK    6  A    between atoms: C_5  and  C_6
REMARK    7  A    between atoms: C_5  and  C_7
REMARK    8  A    between atoms: C_5  and  C_8
REMARK    9  A    between atoms: C_9  and  C_11
REMARK                            x       y       z     vdW  Elec       q    Type
REMARK                         _______ _______ _______ _____ _____    ______ ____
ROOT
ATOM      1  C   UNL     1       6.231   5.214  18.916  0.00  0.00    +0.000 C 
ATOM      2  O   UNL     1       6.824   5.180  20.000  0.00  0.00    +0.000 OA
ENDROOT
BRANCH   1   3
ATOM      3  C   UNL     1       4.881   4.560  18.860  0.00  0.00    +0.000 A 
ATOM      4  C   UNL     1       4.613   3.414  18.103  0.00  0.00    +0.000 A 
ATOM      5  C   UNL     1       3.336   2.840  18.124  0.00  0.00    +0.000 A 
ATOM      6  C   UNL     1       2.318   3.403  18.899  0.00  0.00    +0.000 A 
ATOM      7 CL   UNL     1       0.772   2.633  18.883  0.00  0.00    +0.000 Cl
ATOM      8  C   UNL     1       2.578   4.548  19.659  0.00  0.00    +0.000 A 
ATOM      9 CL   UNL     1       1.379   5.290  20.659  0.00  0.00    +0.000 Cl
ATOM     10  C   UNL     1       3.851   5.123  19.634  0.00  0.00    +0.000 A 
ENDBRANCH   1   3
BRANCH   1  11
ATOM     11  C   UNL     1       6.835   5.926  17.692  0.00  0.00    +0.000 C 
BRANCH  11  13
ATOM     12  C   UNL     1       7.737   8.355  17.548  0.00  0.00    +0.000 C 
ATOM     13  C   UNL     1       7.880   6.967  18.154  0.00  0.00    +0.000 C 
ENDBRANCH  11  13
BRANCH  11  14
ATOM     14  N   UNL     1       7.244   5.008  16.607  0.00  0.00    +0.000 NA
ATOM     15  H   UNL     1       7.282   4.062  16.991  0.00  0.00    +0.000 HD
BRANCH  14  16
ATOM     16  C   UNL     1       6.563   4.951  15.297  0.00  0.00    +0.000 C 
ATOM     17  C   UNL     1       5.933   3.585  14.986  0.00  0.00    +0.000 C 
ATOM     18  C   UNL     1       5.405   5.975  15.401  0.00  0.00    +0.000 C 
ATOM     19  C   UNL     1       7.432   5.385  14.108  0.00  0.00    +0.000 C 
ENDBRANCH  14  16
ENDBRANCH  11  14
ENDBRANCH   1  11
TORSDOF 5
ENDMDL
MODEL 5
REMARK VINA RESULT:      -6.7      0.816      1.947
REMARK  Name = 
REMARK  9 active torsions:
REMARK  status: ('A' for Active; 'I' for Inactive)
REMARK    1  A    between atoms: C_1  and  C_2
REMARK    2  A    between atoms: C_2  and  C_3
REMARK    3  A    between atoms: C_3  and  N_4
REMARK    4  A    between atoms: C_3  and  C_9
REMARK    5  A    between atoms: N_4  and  C_5
REMARK    6  A    between atoms: C_5  and  C_6
REMARK    7  A    between atoms: C_5  and  C_7
REMARK    8  A    between atoms: C_5  and  C_8
REMARK    9  A    between atoms: C_9  and  C_11
REMARK                            x       y       z     vdW  Elec       q    Type
REMARK                         _______ _______ _______ _____ _____    ______ ____
ROOT
ATOM      1  C   UNL     1       6.377   5.300  18.970  0.00  0.00    +0.000 C 
ATOM      2  O   UNL     1       7.013   5.188  20.023  0.00  0.00    +0.000 OA
ENDROOT
BRANCH   1   3
ATOM      3  C   UNL     1       5.007   4.688  18.936  0.00  0.00    +0.000 A 
ATOM      4  C   UNL     1       4.715   3.496  18.261  0.00  0.00    +0.000 A 
ATOM      5  C   UNL     1       3.419   2.967  18.299  0.00  0.00    +0.000 A 
ATOM      6  C   UNL     1       2.406   3.619  19.009  0.00  0.00    +0.000 A 
ATOM      7 CL   UNL     1       0.836   2.900  19.019  0.00  0.00    +0.000 Cl
ATOM      8  C   UNL     1       2.690   4.809  19.687  0.00  0.00    +0.000 A 
ATOM      9 CL   UNL     1       1.499   5.662  20.603  0.00  0.00    +0.000 Cl
ATOM     10  C   UNL     1       3.983   5.340  19.644  0.00  0.00    +0.000 A 
ENDBRANCH   1   3
BRANCH   1  11
ATOM     11  C   UNL     1       6.949   6.066  17.764  0.00  0.00    +0.000 C 
BRANCH  11  13
ATOM     12  C   UNL     1       7.897   8.478  17.624  0.00  0.00    +0.000 C 
ATOM     13  C   UNL     1       7.999   7.093  18.245  0.00  0.00    +0.000 C 
ENDBRANCH  11  13
BRANCH  11  14
ATOM     14  N   UNL     1       7.339   5.196  16.632  0.00  0.00    +0.000 NA
ATOM     15  H   UNL     1       7.515   4.259  17.000  0.00  0.00    +0.000 HD
BRANCH  14  16
ATOM     16  C   UNL     1       6.537   5.067  15.399  0.00  0.00    +0.000 C 
ATOM     17  C   UNL     1       5.323   6.007  15.348  0.00  0.00    +0.000 C 
ATOM     18  C   UNL     1       7.491   5.491  14.253  0.00  0.00    +0.000 C 
ATOM     19  C   UNL     1       6.076   3.637  15.085  0.00  0.00    +0.000 C 
ENDBRANCH  14  16
ENDBRANCH  11  14
ENDBRANCH   1  11
TORSDOF 5
ENDMDL
MODEL 6
REMARK VINA RESULT:      -6.3      0.904      1.578
REMARK  Name = 
REMARK  9 active torsions:
REMARK  status: ('A' for Active; 'I' for Inactive)
REMARK    1  A    between atoms: C_1  and  C_2
REMARK    2  A    between atoms: C_2  and  C_3
REMARK    3  A    between atoms: C_3  and  N_4
REMARK    4  A    between atoms: C_3  and  C_9
REMARK    5  A    between atoms: N_4  and  C_5
REMARK    6  A    between atoms: C_5  and  C_6
REMARK    7  A    between atoms: C_5  and  C_7
REMARK    8  A    between atoms: C_5  and  C_8
REMARK    9  A    between atoms: C_9  and  C_11
REMARK                            x       y       z     vdW  Elec       q    Type
REMARK                         _______ _______ _______ _____ _____    ______ ____
ROOT
ATOM      1  C   UNL     1       6.213   5.199  19.118  0.00  0.00    +0.000 C 
ATOM      2  O   UNL     1       6.738   5.350  20.226  0.00  0.00    +0.000 OA
ENDROOT
BRANCH   1   3
ATOM      3  C   UNL     1       4.957   4.378  19.068  0.00  0.00    +0.000 A 
ATOM      4  C   UNL     1       4.853   3.099  19.626  0.00  0.00    +0.000 A 
ATOM      5  C   UNL     1       3.639   2.404  19.570  0.00  0.00    +0.000 A 
ATOM      6  C   UNL     1       2.520   2.978  18.958  0.00  0.00    +0.000 A 
ATOM      7 CL   UNL     1       1.055   2.065  18.936  0.00  0.00    +0.000 Cl
ATOM      8  C   UNL     1       2.616   4.257  18.398  0.00  0.00    +0.000 A 
ATOM      9 CL   UNL     1       1.274   5.042  17.644  0.00  0.00    +0.000 Cl
ATOM     10  C   UNL     1       3.830   4.947  18.451  0.00  0.00    +0.000 A 
ENDBRANCH   1   3
BRANCH   1  11
ATOM     11  C   UNL     1       6.800   5.855  17.855  0.00  0.00    +0.000 C 
BRANCH  11  13
ATOM     12  C   UNL     1       7.730   8.261  17.574  0.00  0.00    +0.000 C 
ATOM     13  C   UNL     1       7.859   6.906  18.254  0.00  0.00    +0.000 C 
ENDBRANCH  11  13
BRANCH  11  14
ATOM     14  N   UNL     1       7.183   4.889  16.802  0.00  0.00    +0.000 NA
ATOM     15  H   UNL     1       7.173   3.953  17.213  0.00  0.00    +0.000 HD
BRANCH  14  16
ATOM     16  C   UNL     1       6.519   4.824  15.484  0.00  0.00    +0.000 C 
ATOM     17  C   UNL     1       5.846   3.474  15.196  0.00  0.00    +0.000 C 
ATOM     18  C   UNL     1       5.397   5.891  15.546  0.00  0.00    +0.000 C 
ATOM     19  C   UNL     1       7.420   5.198  14.298  0.00  0.00    +0.000 C 
ENDBRANCH  14  16
ENDBRANCH  11  14
ENDBRANCH   1  11
TORSDOF 5
ENDMDL
MODEL 7
REMARK VINA RESULT:      -6.1      3.296      4.530
REMARK  Name = 
REMARK  9 active torsions:
REMARK  status: ('A' for Active; 'I' for Inactive)
REMARK    1  A    between atoms: C_1  and  C_2
REMARK    2  A    between atoms: C_2  and  C_3
REMARK    3  A    between atoms: C_3  and  N_4
REMARK    4  A    between atoms: C_3  and  C_9
REMARK    5  A    between atoms: N_4  and  C_5
REMARK    6  A    between atoms: C_5  and  C_6
REMARK    7  A    between atoms: C_5  and  C_7
REMARK    8  A    between atoms: C_5  and  C_8
REMARK    9  A    between atoms: C_9  and  C_11
REMARK                            x       y       z     vdW  Elec       q    Type
REMARK                         _______ _______ _______ _____ _____    ______ ____
ROOT
ATOM      1  C   UNL     1       2.880   4.135  17.902  0.00  0.00    +0.000 C 
ATOM      2  O   UNL     1       2.021   3.588  17.202  0.00  0.00    +0.000 OA
ENDROOT
BRANCH   1   3
ATOM      3  C   UNL     1       2.449   5.337  18.691  0.00  0.00    +0.000 A 
ATOM      4  C   UNL     1       2.018   5.269  20.021  0.00  0.00    +0.000 A 
ATOM      5  C   UNL     1       1.660   6.437  20.705  0.00  0.00    +0.000 A 
ATOM      6  C   UNL     1       1.730   7.681  20.069  0.00  0.00    +0.000 A 
ATOM      7 CL   UNL     1       1.283   9.079  20.980  0.00  0.00    +0.000 Cl
ATOM      8  C   UNL     1       2.160   7.758  18.740  0.00  0.00    +0.000 A 
ATOM      9 CL   UNL     1       2.293   9.258  17.893  0.00  0.00    +0.000 Cl
ATOM     10  C   UNL     1       2.512   6.590  18.058  0.00  0.00    +0.000 A 
ENDBRANCH   1   3
BRANCH   1  11
ATOM     11  C   UNL     1       4.315   3.584  17.989  0.00  0.00    +0.000 C 
BRANCH  11  13
ATOM     12  C   UNL     1       4.199   2.377  20.283  0.00  0.00    +0.000 C 
ATOM     13  C   UNL     1       4.319   2.252  18.772  0.00  0.00    +0.000 C 
ENDBRANCH  11  13
BRANCH  11  14
ATOM     14  N   UNL     1       5.042   3.602  16.700  0.00  0.00    +0.000 NA
ATOM     15  H   UNL     1       4.350   3.588  15.948  0.00  0.00    +0.000 HD
BRANCH  14  16
ATOM     16  C   UNL     1       6.071   4.608  16.366  0.00  0.00    +0.000 C 
ATOM     17  C   UNL     1       7.306   4.556  17.278  0.00  0.00    +0.000 C 
ATOM     18  C   UNL     1       6.543   4.241  14.937  0.00  0.00    +0.000 C 
ATOM     19  C   UNL     1       5.554   6.052  16.304  0.00  0.00    +0.000 C 
ENDBRANCH  14  16
ENDBRANCH  11  14
ENDBRANCH   1  11
TORSDOF 5
ENDMDL
MODEL 8
REMARK VINA RESULT:      -6.0      3.377      4.833
REMARK  Name = 
REMARK  9 active torsions:
REMARK  status: ('A' for Active; 'I' for Inactive)
REMARK    1  A    between atoms: C_1  and  C_2
REMARK    2  A    between atoms: C_2  and  C_3
REMARK    3  A    between atoms: C_3  and  N_4
REMARK    4  A    between atoms: C_3  and  C_9
REMARK    5  A    between atoms: N_4  and  C_5
REMARK    6  A    between atoms: C_5  and  C_6
REMARK    7  A    between atoms: C_5  and  C_7
REMARK    8  A    between atoms: C_5  and  C_8
REMARK    9  A    between atoms: C_9  and  C_11
REMARK                            x       y       z     vdW  Elec       q    Type
REMARK                         _______ _______ _______ _____ _____    ______ ____
ROOT
ATOM      1  C   UNL     1       2.890   4.447  18.362  0.00  0.00    +0.000 C 
ATOM      2  O   UNL     1       2.176   3.962  17.477  0.00  0.00    +0.000 OA
ENDROOT
BRANCH   1   3
ATOM      3  C   UNL     1       2.404   5.711  19.009  0.00  0.00    +0.000 A 
ATOM      4  C   UNL     1       1.945   5.770  20.330  0.00  0.00    +0.000 A 
ATOM      5  C   UNL     1       1.537   6.992  20.878  0.00  0.00    +0.000 A 
ATOM      6  C   UNL     1       1.584   8.163  20.116  0.00  0.00    +0.000 A 
ATOM      7 CL   UNL     1       1.074   9.634  20.863  0.00  0.00    +0.000 Cl
ATOM      8  C   UNL     1       2.043   8.112  18.795  0.00  0.00    +0.000 A 
ATOM      9 CL   UNL     1       2.151   9.518  17.796  0.00  0.00    +0.000 Cl
ATOM     10  C   UNL     1       2.445   6.891  18.247  0.00  0.00    +0.000 A 
ENDBRANCH   1   3
BRANCH   1  11
ATOM     11  C   UNL     1       4.196   3.763  18.803  0.00  0.00    +0.000 C 
BRANCH  11  13
ATOM     12  C   UNL     1       3.193   2.342  20.728  0.00  0.00    +0.000 C 
ATOM     13  C   UNL     1       3.888   2.361  19.376  0.00  0.00    +0.000 C 
ENDBRANCH  11  13
BRANCH  11  14
ATOM     14  N   UNL     1       5.284   3.849  17.804  0.00  0.00    +0.000 NA
ATOM     15  H   UNL     1       4.868   3.755  16.875  0.00  0.00    +0.000 HD
BRANCH  14  16
ATOM     16  C   UNL     1       6.260   4.957  17.765  0.00  0.00    +0.000 C 
ATOM     17  C   UNL     1       5.830   6.130  16.870  0.00  0.00    +0.000 C 
ATOM     18  C   UNL     1       6.321   5.490  19.219  0.00  0.00    +0.000 C 
ATOM     19  C   UNL     1       7.687   4.536  17.388  0.00  0.00    +0.000 C 
ENDBRANCH  14  16
ENDBRANCH  11  14
ENDBRANCH   1  11
TORSDOF 5
ENDMDL
MODEL 9
REMARK VINA RESULT:      -5.9      3.028      5.588
REMARK  Name = 
REMARK  9 active torsions:
REMARK  status: ('A' for Active; 'I' for Inactive)
REMARK    1  A    between atoms: C_1  and  C_2
REMARK    2  A    between atoms: C_2  and  C_3
REMARK    3  A    between atoms: C_3  and  N_4
REMARK    4  A    between atoms: C_3  and  C_9
REMARK    5  A    between atoms: N_4  and  C_5
REMARK    6  A    between atoms: C_5  and  C_6
REMARK    7  A    between atoms: C_5  and  C_7
REMARK    8  A    between atoms: C_5  and  C_8
REMARK    9  A    between atoms: C_9  and  C_11
REMARK                            x       y       z     vdW  Elec       q    Type
REMARK                         _______ _______ _______ _____ _____    ______ ____
ROOT
ATOM      1  C   UNL     1       5.093   4.474  18.212  0.00  0.00    +0.000 C 
ATOM      2  O   UNL     1       5.690   3.788  19.049  0.00  0.00    +0.000 OA
ENDROOT
BRANCH   1   3
ATOM      3  C   UNL     1       5.776   4.681  16.892  0.00  0.00    +0.000 A 
ATOM      4  C   UNL     1       7.009   5.330  16.758  0.00  0.00    +0.000 A 
ATOM      5  C   UNL     1       7.601   5.458  15.496  0.00  0.00    +0.000 A 
ATOM      6  C   UNL     1       6.972   4.942  14.360  0.00  0.00    +0.000 A 
ATOM      7 CL   UNL     1       7.769   5.129  12.839  0.00  0.00    +0.000 Cl
ATOM      8  C   UNL     1       5.739   4.291  14.485  0.00  0.00    +0.000 A 
ATOM      9 CL   UNL     1       4.909   3.608  13.133  0.00  0.00    +0.000 Cl
ATOM     10  C   UNL     1       5.146   4.167  15.745  0.00  0.00    +0.000 A 
ENDBRANCH   1   3
BRANCH   1  11
ATOM     11  C   UNL     1       3.697   5.056  18.500  0.00  0.00    +0.000 C 
BRANCH  11  13
ATOM     12  C   UNL     1       2.555   7.386  18.516  0.00  0.00    +0.000 C 
ATOM     13  C   UNL     1       3.574   6.461  17.869  0.00  0.00    +0.000 C 
ENDBRANCH  11  13
BRANCH  11  14
ATOM     14  N   UNL     1       2.589   4.111  18.242  0.00  0.00    +0.000 NA
ATOM     15  H   UNL     1       2.945   3.363  17.644  0.00  0.00    +0.000 HD
BRANCH  14  16
ATOM     16  C   UNL     1       1.780   3.501  19.317  0.00  0.00    +0.000 C 
ATOM     17  C   UNL     1       0.609   2.650  18.803  0.00  0.00    +0.000 C 
ATOM     18  C   UNL     1       2.750   2.545  20.057  0.00  0.00    +0.000 C 
ATOM     19  C   UNL     1       1.256   4.495  20.363  0.00  0.00    +0.000 C 
ENDBRANCH  14  16
ENDBRANCH  11  14
ENDBRANCH   1  11
TORSDOF 5
ENDMDL
