MODEL 1
REMARK VINA RESULT:      -7.9      0.000      0.000
REMARK  Name = 
REMARK  5 active torsions:
REMARK  status: ('A' for Active; 'I' for Inactive)
REMARK    1  A    between atoms: O_1  and  C_2
REMARK    2  A    between atoms: C_2  and  C_3
REMARK    3  A    between atoms: C_5  and  N_6
REMARK    4  A    between atoms: N_6  and  C_7
REMARK    5  A    between atoms: C_20  and  O_21
REMARK                            x       y       z     vdW  Elec       q    Type
REMARK                         _______ _______ _______ _____ _____    ______ ____
ROOT
ATOM      1  N   UNL     1       2.448   6.784  20.368  0.00  0.00    +0.000 N 
ATOM      2  H   UNL     1       3.363   6.934  20.783  0.00  0.00    +0.000 HD
ENDROOT
BRANCH   1   3
ATOM      3  C   UNL     1       1.885   7.969  19.832  0.00  0.00    +0.000 A 
ATOM      4  C   UNL     1       2.074   8.287  18.485  0.00  0.00    +0.000 A 
ATOM      5  C   UNL     1       1.469   9.418  17.980  0.00  0.00    +0.000 A 
ATOM      6  N   UNL     1       0.698  10.243  18.714  0.00  0.00    +0.000 NA
ATOM      7  C   UNL     1       0.531   9.963  20.018  0.00  0.00    +0.000 A 
ATOM      8  C   UNL     1      -0.284  10.803  20.759  0.00  0.00    +0.000 A 
ATOM      9  C   UNL     1      -0.504  10.579  22.116  0.00  0.00    +0.000 A 
ATOM     10 CL   UNL     1      -1.550  11.625  22.996  0.00  0.00    +0.000 Cl
ATOM     11  C   UNL     1       0.104   9.511  22.762  0.00  0.00    +0.000 A 
ATOM     12  C   UNL     1       0.917   8.645  22.030  0.00  0.00    +0.000 A 
ATOM     13  C   UNL     1       1.132   8.848  20.648  0.00  0.00    +0.000 A 
ENDBRANCH   1   3
BRANCH   1  16
ATOM     14  C   UNL     1       2.734   3.557  18.504  0.00  0.00    +0.000 A 
ATOM     15  C   UNL     1       2.947   4.886  18.920  0.00  0.00    +0.000 A 
ATOM     16  C   UNL     1       2.197   5.459  19.954  0.00  0.00    +0.000 A 
ATOM     17  C   UNL     1       1.236   4.666  20.595  0.00  0.00    +0.000 A 
ATOM     18  C   UNL     1       1.030   3.339  20.221  0.00  0.00    +0.000 A 
ATOM     19  C   UNL     1       1.787   2.790  19.191  0.00  0.00    +0.000 A 
BRANCH  19  20
ATOM     20  O   UNL     1       1.616   1.479  18.844  0.00  0.00    +0.000 OA
ATOM     21  H   UNL     1       1.421   1.433  17.893  0.00  0.00    +0.000 HD
ENDBRANCH  19  20
BRANCH  14  22
ATOM     22  C   UNL     1       3.548   2.955  17.390  0.00  0.00    +0.000 C 
BRANCH  22  23
ATOM     23  O   UNL     1       4.206   1.770  17.831  0.00  0.00    +0.000 OA
ATOM     24  H   UNL     1       4.446   1.278  17.028  0.00  0.00    +0.000 HD
ENDBRANCH  22  23
ENDBRANCH  14  22
ENDBRANCH   1  16
TORSDOF 5
ENDMDL
MODEL 2
REMARK VINA RESULT:      -7.8      1.033      1.789
REMARK  Name = 
REMARK  5 active torsions:
REMARK  status: ('A' for Active; 'I' for Inactive)
REMARK    1  A    between atoms: O_1  and  C_2
REMARK    2  A    between atoms: C_2  and  C_3
REMARK    3  A    between atoms: C_5  and  N_6
REMARK    4  A    between atoms: N_6  and  C_7
REMARK    5  A    between atoms: C_20  and  O_21
REMARK                            x       y       z     vdW  Elec       q    Type
REMARK                         _______ _______ _______ _____ _____    ______ ____
ROOT
ATOM      1  N   UNL     1       2.622   7.106  19.817  0.00  0.00    +0.000 N 
ATOM      2  H   UNL     1       3.615   7.283  19.935  0.00  0.00    +0.000 HD
ENDROOT
BRANCH   1   3
ATOM      3  C   UNL     1       1.892   8.266  19.457  0.00  0.00    +0.000 A 
ATOM      4  C   UNL     1       1.923   8.732  18.140  0.00  0.00    +0.000 A 
ATOM      5  C   UNL     1       1.161   9.831  17.808  0.00  0.00    +0.000 A 
ATOM      6  N   UNL     1       0.380  10.490  18.685  0.00  0.00    +0.000 NA
ATOM      7  C   UNL     1       0.364  10.069  19.961  0.00  0.00    +0.000 A 
ATOM      8  C   UNL     1      -0.461  10.737  20.852  0.00  0.00    +0.000 A 
ATOM      9  C   UNL     1      -0.532  10.361  22.191  0.00  0.00    +0.000 A 
ATOM     10 CL   UNL     1      -1.594  11.194  23.258  0.00  0.00    +0.000 Cl
ATOM     11  C   UNL     1       0.240   9.310  22.668  0.00  0.00    +0.000 A 
ATOM     12  C   UNL     1       1.066   8.615  21.786  0.00  0.00    +0.000 A 
ATOM     13  C   UNL     1       1.131   8.973  20.419  0.00  0.00    +0.000 A 
ENDBRANCH   1   3
BRANCH   1  16
ATOM     14  C   UNL     1       1.689   3.516  20.283  0.00  0.00    +0.000 A 
ATOM     15  C   UNL     1       2.044   4.853  20.551  0.00  0.00    +0.000 A 
ATOM     16  C   UNL     1       2.292   5.767  19.519  0.00  0.00    +0.000 A 
ATOM     17  C   UNL     1       2.151   5.328  18.196  0.00  0.00    +0.000 A 
ATOM     18  C   UNL     1       1.770   4.018  17.907  0.00  0.00    +0.000 A 
ATOM     19  C   UNL     1       1.528   3.127  18.948  0.00  0.00    +0.000 A 
BRANCH  19  20
ATOM     20  O   UNL     1       1.118   1.853  18.672  0.00  0.00    +0.000 OA
ATOM     21  H   UNL     1       1.886   1.260  18.735  0.00  0.00    +0.000 HD
ENDBRANCH  19  20
BRANCH  14  22
ATOM     22  C   UNL     1       1.427   2.546  21.402  0.00  0.00    +0.000 C 
BRANCH  22  23
ATOM     23  O   UNL     1       2.585   2.396  22.221  0.00  0.00    +0.000 OA
ATOM     24  H   UNL     1       3.189   1.813  21.732  0.00  0.00    +0.000 HD
ENDBRANCH  22  23
ENDBRANCH  14  22
ENDBRANCH   1  16
TORSDOF 5
ENDMDL
MODEL 3
REMARK VINA RESULT:      -7.8      4.963      7.468
REMARK  Name = 
REMARK  5 active torsions:
REMARK  status: ('A' for Active; 'I' for Inactive)
REMARK    1  A    between atoms: O_1  and  C_2
REMARK    2  A    between atoms: C_2  and  C_3
REMARK    3  A    between atoms: C_5  and  N_6
REMARK    4  A    between atoms: N_6  and  C_7
REMARK    5  A    between atoms: C_20  and  O_21
REMARK                            x       y       z     vdW  Elec       q    Type
REMARK                         _______ _______ _______ _____ _____    ______ ____
ROOT
ATOM      1  N   UNL     1       5.724   3.690  18.960  0.00  0.00    +0.000 N 
ATOM      2  H   UNL     1       6.225   2.807  18.938  0.00  0.00    +0.000 HD
ENDROOT
BRANCH   1   3
ATOM      3  C   UNL     1       6.312   4.680  18.135  0.00  0.00    +0.000 A 
ATOM      4  C   UNL     1       6.892   5.816  18.708  0.00  0.00    +0.000 A 
ATOM      5  C   UNL     1       7.503   6.735  17.884  0.00  0.00    +0.000 A 
ATOM      6  N   UNL     1       7.578   6.605  16.545  0.00  0.00    +0.000 NA
ATOM      7  C   UNL     1       7.000   5.532  15.979  0.00  0.00    +0.000 A 
ATOM      8  C   UNL     1       7.103   5.392  14.605  0.00  0.00    +0.000 A 
ATOM      9  C   UNL     1       6.530   4.307  13.945  0.00  0.00    +0.000 A 
ATOM     10 CL   UNL     1       6.709   4.152  12.241  0.00  0.00    +0.000 Cl
ATOM     11  C   UNL     1       5.825   3.344  14.655  0.00  0.00    +0.000 A 
ATOM     12  C   UNL     1       5.722   3.458  16.041  0.00  0.00    +0.000 A 
ATOM     13  C   UNL     1       6.317   4.542  16.725  0.00  0.00    +0.000 A 
ENDBRANCH   1   3
BRANCH   1  16
ATOM     14  C   UNL     1       2.303   4.658  20.112  0.00  0.00    +0.000 A 
ATOM     15  C   UNL     1       3.664   4.724  19.756  0.00  0.00    +0.000 A 
ATOM     16  C   UNL     1       4.368   3.590  19.334  0.00  0.00    +0.000 A 
ATOM     17  C   UNL     1       3.675   2.375  19.244  0.00  0.00    +0.000 A 
ATOM     18  C   UNL     1       2.320   2.292  19.561  0.00  0.00    +0.000 A 
ATOM     19  C   UNL     1       1.641   3.433  19.978  0.00  0.00    +0.000 A 
BRANCH  19  20
ATOM     20  O   UNL     1       0.304   3.365  20.254  0.00  0.00    +0.000 OA
ATOM     21  H   UNL     1       0.143   3.795  21.112  0.00  0.00    +0.000 HD
ENDBRANCH  19  20
BRANCH  14  22
ATOM     22  C   UNL     1       1.560   5.885  20.565  0.00  0.00    +0.000 C 
BRANCH  22  23
ATOM     23  O   UNL     1       2.419   7.024  20.560  0.00  0.00    +0.000 OA
ATOM     24  H   UNL     1       2.588   7.241  21.492  0.00  0.00    +0.000 HD
ENDBRANCH  22  23
ENDBRANCH  14  22
ENDBRANCH   1  16
TORSDOF 5
ENDMDL
MODEL 4
REMARK VINA RESULT:      -7.7      5.465      6.682
REMARK  Name = 
REMARK  5 active torsions:
REMARK  status: ('A' for Active; 'I' for Inactive)
REMARK    1  A    between atoms: O_1  and  C_2
REMARK    2  A    between atoms: C_2  and  C_3
REMARK    3  A    between atoms: C_5  and  N_6
REMARK    4  A    between atoms: N_6  and  C_7
REMARK    5  A    between atoms: C_20  and  O_21
REMARK                            x       y       z     vdW  Elec       q    Type
REMARK                         _______ _______ _______ _____ _____    ______ ____
ROOT
ATOM      1  N   UNL     1       4.827   2.756  17.130  0.00  0.00    +0.000 N 
ATOM      2  H   UNL     1       4.943   1.806  16.791  0.00  0.00    +0.000 HD
ENDROOT
BRANCH   1   3
ATOM      3  C   UNL     1       5.527   3.710  16.352  0.00  0.00    +0.000 A 
ATOM      4  C   UNL     1       5.481   3.646  14.957  0.00  0.00    +0.000 A 
ATOM      5  C   UNL     1       6.128   4.619  14.227  0.00  0.00    +0.000 A 
ATOM      6  N   UNL     1       6.810   5.639  14.783  0.00  0.00    +0.000 NA
ATOM      7  C   UNL     1       6.887   5.696  16.123  0.00  0.00    +0.000 A 
ATOM      8  C   UNL     1       7.569   6.762  16.687  0.00  0.00    +0.000 A 
ATOM      9  C   UNL     1       7.692   6.889  18.069  0.00  0.00    +0.000 A 
ATOM     10 CL   UNL     1       8.518   8.246  18.731  0.00  0.00    +0.000 Cl
ATOM     11  C   UNL     1       7.142   5.936  18.915  0.00  0.00    +0.000 A 
ATOM     12  C   UNL     1       6.439   4.863  18.369  0.00  0.00    +0.000 A 
ATOM     13  C   UNL     1       6.288   4.733  16.969  0.00  0.00    +0.000 A 
ENDBRANCH   1   3
BRANCH   1  16
ATOM     14  C   UNL     1       2.463   2.785  20.025  0.00  0.00    +0.000 A 
ATOM     15  C   UNL     1       3.605   2.560  19.232  0.00  0.00    +0.000 A 
ATOM     16  C   UNL     1       3.661   2.971  17.895  0.00  0.00    +0.000 A 
ATOM     17  C   UNL     1       2.554   3.645  17.361  0.00  0.00    +0.000 A 
ATOM     18  C   UNL     1       1.425   3.906  18.137  0.00  0.00    +0.000 A 
ATOM     19  C   UNL     1       1.392   3.489  19.463  0.00  0.00    +0.000 A 
BRANCH  19  20
ATOM     20  O   UNL     1       0.303   3.775  20.240  0.00  0.00    +0.000 OA
ATOM     21  H   UNL     1       0.426   3.358  21.110  0.00  0.00    +0.000 HD
ENDBRANCH  19  20
BRANCH  14  22
ATOM     22  C   UNL     1       2.417   2.336  21.461  0.00  0.00    +0.000 C 
BRANCH  22  23
ATOM     23  O   UNL     1       2.215   3.448  22.330  0.00  0.00    +0.000 OA
ATOM     24  H   UNL     1       2.299   3.104  23.235  0.00  0.00    +0.000 HD
ENDBRANCH  22  23
ENDBRANCH  14  22
ENDBRANCH   1  16
TORSDOF 5
ENDMDL
MODEL 5
REMARK VINA RESULT:      -7.5      5.232      7.359
REMARK  Name = 
REMARK  5 active torsions:
REMARK  status: ('A' for Active; 'I' for Inactive)
REMARK    1  A    between atoms: O_1  and  C_2
REMARK    2  A    between atoms: C_2  and  C_3
REMARK    3  A    between atoms: C_5  and  N_6
REMARK    4  A    between atoms: N_6  and  C_7
REMARK    5  A    between atoms: C_20  and  O_21
REMARK                            x       y       z     vdW  Elec       q    Type
REMARK                         _______ _______ _______ _____ _____    ______ ____
ROOT
ATOM      1  N   UNL     1       5.677   4.007  19.005  0.00  0.00    +0.000 N 
ATOM      2  H   UNL     1       6.135   3.104  19.075  0.00  0.00    +0.000 HD
ENDROOT
BRANCH   1   3
ATOM      3  C   UNL     1       6.340   4.896  18.123  0.00  0.00    +0.000 A 
ATOM      4  C   UNL     1       6.999   6.021  18.627  0.00  0.00    +0.000 A 
ATOM      5  C   UNL     1       7.680   6.837  17.751  0.00  0.00    +0.000 A 
ATOM      6  N   UNL     1       7.749   6.616  16.424  0.00  0.00    +0.000 NA
ATOM      7  C   UNL     1       7.095   5.554  15.923  0.00  0.00    +0.000 A 
ATOM      8  C   UNL     1       7.192   5.318  14.562  0.00  0.00    +0.000 A 
ATOM      9  C   UNL     1       6.542   4.239  13.968  0.00  0.00    +0.000 A 
ATOM     10 CL   UNL     1       6.715   3.961  12.279  0.00  0.00    +0.000 Cl
ATOM     11  C   UNL     1       5.766   3.378  14.733  0.00  0.00    +0.000 A 
ATOM     12  C   UNL     1       5.667   3.588  16.108  0.00  0.00    +0.000 A 
ATOM     13  C   UNL     1       6.339   4.668  16.726  0.00  0.00    +0.000 A 
ENDBRANCH   1   3
BRANCH   1  16
ATOM     14  C   UNL     1       2.155   2.827  19.423  0.00  0.00    +0.000 A 
ATOM     15  C   UNL     1       3.521   2.870  19.080  0.00  0.00    +0.000 A 
ATOM     16  C   UNL     1       4.306   4.001  19.337  0.00  0.00    +0.000 A 
ATOM     17  C   UNL     1       3.705   5.094  19.976  0.00  0.00    +0.000 A 
ATOM     18  C   UNL     1       2.363   5.061  20.352  0.00  0.00    +0.000 A 
ATOM     19  C   UNL     1       1.603   3.927  20.087  0.00  0.00    +0.000 A 
BRANCH  19  20
ATOM     20  O   UNL     1       0.296   3.875  20.487  0.00  0.00    +0.000 OA
ATOM     21  H   UNL     1       0.139   3.019  20.921  0.00  0.00    +0.000 HD
ENDBRANCH  19  20
BRANCH  14  22
ATOM     22  C   UNL     1       1.324   1.605  19.139  0.00  0.00    +0.000 C 
BRANCH  22  23
ATOM     23  O   UNL     1       0.191   1.940  18.341  0.00  0.00    +0.000 OA
ATOM     24  H   UNL     1      -0.339   1.129  18.269  0.00  0.00    +0.000 HD
ENDBRANCH  22  23
ENDBRANCH  14  22
ENDBRANCH   1  16
TORSDOF 5
ENDMDL
MODEL 6
REMARK VINA RESULT:      -7.5      5.683      7.567
REMARK  Name = 
REMARK  5 active torsions:
REMARK  status: ('A' for Active; 'I' for Inactive)
REMARK    1  A    between atoms: O_1  and  C_2
REMARK    2  A    between atoms: C_2  and  C_3
REMARK    3  A    between atoms: C_5  and  N_6
REMARK    4  A    between atoms: N_6  and  C_7
REMARK    5  A    between atoms: C_20  and  O_21
REMARK                            x       y       z     vdW  Elec       q    Type
REMARK                         _______ _______ _______ _____ _____    ______ ____
ROOT
ATOM      1  N   UNL     1       5.610   3.715  18.662  0.00  0.00    +0.000 N 
ATOM      2  H   UNL     1       6.074   2.812  18.634  0.00  0.00    +0.000 HD
ENDROOT
BRANCH   1   3
ATOM      3  C   UNL     1       6.272   4.701  17.889  0.00  0.00    +0.000 A 
ATOM      4  C   UNL     1       6.838   5.816  18.513  0.00  0.00    +0.000 A 
ATOM      5  C   UNL     1       7.522   6.731  17.742  0.00  0.00    +0.000 A 
ATOM      6  N   UNL     1       7.679   6.614  16.409  0.00  0.00    +0.000 NA
ATOM      7  C   UNL     1       7.115   5.561  15.794  0.00  0.00    +0.000 A 
ATOM      8  C   UNL     1       7.304   5.435  14.427  0.00  0.00    +0.000 A 
ATOM      9  C   UNL     1       6.750   4.371  13.718  0.00  0.00    +0.000 A 
ATOM     10 CL   UNL     1       7.035   4.232  12.027  0.00  0.00    +0.000 Cl
ATOM     11  C   UNL     1       5.980   3.417  14.368  0.00  0.00    +0.000 A 
ATOM     12  C   UNL     1       5.790   3.517  15.746  0.00  0.00    +0.000 A 
ATOM     13  C   UNL     1       6.364   4.579  16.481  0.00  0.00    +0.000 A 
ENDBRANCH   1   3
BRANCH   1  16
ATOM     14  C   UNL     1       2.424   2.826  20.403  0.00  0.00    +0.000 A 
ATOM     15  C   UNL     1       3.786   2.877  20.047  0.00  0.00    +0.000 A 
ATOM     16  C   UNL     1       4.236   3.663  18.980  0.00  0.00    +0.000 A 
ATOM     17  C   UNL     1       3.297   4.430  18.279  0.00  0.00    +0.000 A 
ATOM     18  C   UNL     1       1.948   4.420  18.633  0.00  0.00    +0.000 A 
ATOM     19  C   UNL     1       1.523   3.631  19.697  0.00  0.00    +0.000 A 
BRANCH  19  20
ATOM     20  O   UNL     1       0.209   3.645  20.073  0.00  0.00    +0.000 OA
ATOM     21  H   UNL     1      -0.248   4.344  19.575  0.00  0.00    +0.000 HD
ENDBRANCH  19  20
BRANCH  14  22
ATOM     22  C   UNL     1       1.955   1.976  21.552  0.00  0.00    +0.000 C 
BRANCH  22  23
ATOM     23  O   UNL     1       1.310   2.776  22.541  0.00  0.00    +0.000 OA
ATOM     24  H   UNL     1       0.730   3.387  22.059  0.00  0.00    +0.000 HD
ENDBRANCH  22  23
ENDBRANCH  14  22
ENDBRANCH   1  16
TORSDOF 5
ENDMDL
MODEL 7
REMARK VINA RESULT:      -7.5      4.441      7.400
REMARK  Name = 
REMARK  5 active torsions:
REMARK  status: ('A' for Active; 'I' for Inactive)
REMARK    1  A    between atoms: O_1  and  C_2
REMARK    2  A    between atoms: C_2  and  C_3
REMARK    3  A    between atoms: C_5  and  N_6
REMARK    4  A    between atoms: N_6  and  C_7
REMARK    5  A    between atoms: C_20  and  O_21
REMARK                            x       y       z     vdW  Elec       q    Type
REMARK                         _______ _______ _______ _____ _____    ______ ____
ROOT
ATOM      1  N   UNL     1       2.528   6.644  20.454  0.00  0.00    +0.000 N 
ATOM      2  H   UNL     1       2.945   6.518  21.371  0.00  0.00    +0.000 HD
ENDROOT
BRANCH   1   3
ATOM      3  C   UNL     1       2.383   5.429  19.740  0.00  0.00    +0.000 A 
ATOM      4  C   UNL     1       1.378   4.524  20.095  0.00  0.00    +0.000 A 
ATOM      5  C   UNL     1       1.227   3.376  19.348  0.00  0.00    +0.000 A 
ATOM      6  N   UNL     1       1.997   3.069  18.286  0.00  0.00    +0.000 NA
ATOM      7  C   UNL     1       2.985   3.917  17.953  0.00  0.00    +0.000 A 
ATOM      8  C   UNL     1       3.756   3.607  16.845  0.00  0.00    +0.000 A 
ATOM      9  C   UNL     1       4.799   4.435  16.437  0.00  0.00    +0.000 A 
ATOM     10 CL   UNL     1       5.712   4.032  15.035  0.00  0.00    +0.000 Cl
ATOM     11  C   UNL     1       5.099   5.590  17.146  0.00  0.00    +0.000 A 
ATOM     12  C   UNL     1       4.325   5.929  18.256  0.00  0.00    +0.000 A 
ATOM     13  C   UNL     1       3.251   5.108  18.668  0.00  0.00    +0.000 A 
ENDBRANCH   1   3
BRANCH   1  16
ATOM     14  C   UNL     1       0.269   9.497  21.310  0.00  0.00    +0.000 A 
ATOM     15  C   UNL     1       1.037   8.320  21.411  0.00  0.00    +0.000 A 
ATOM     16  C   UNL     1       1.746   7.811  20.317  0.00  0.00    +0.000 A 
ATOM     17  C   UNL     1       1.699   8.518  19.108  0.00  0.00    +0.000 A 
ATOM     18  C   UNL     1       0.970   9.702  18.993  0.00  0.00    +0.000 A 
ATOM     19  C   UNL     1       0.273  10.190  20.094  0.00  0.00    +0.000 A 
BRANCH  19  20
ATOM     20  O   UNL     1      -0.412  11.369  19.998  0.00  0.00    +0.000 OA
ATOM     21  H   UNL     1      -0.197  11.915  20.773  0.00  0.00    +0.000 HD
ENDBRANCH  19  20
BRANCH  14  22
ATOM     22  C   UNL     1      -0.489  10.031  22.495  0.00  0.00    +0.000 C 
BRANCH  22  23
ATOM     23  O   UNL     1       0.248   9.827  23.698  0.00  0.00    +0.000 OA
ATOM     24  H   UNL     1       0.307  10.694  24.131  0.00  0.00    +0.000 HD
ENDBRANCH  22  23
ENDBRANCH  14  22
ENDBRANCH   1  16
TORSDOF 5
ENDMDL
MODEL 8
REMARK VINA RESULT:      -7.3      4.789      7.230
REMARK  Name = 
REMARK  5 active torsions:
REMARK  status: ('A' for Active; 'I' for Inactive)
REMARK    1  A    between atoms: O_1  and  C_2
REMARK    2  A    between atoms: C_2  and  C_3
REMARK    3  A    between atoms: C_5  and  N_6
REMARK    4  A    between atoms: N_6  and  C_7
REMARK    5  A    between atoms: C_20  and  O_21
REMARK                            x       y       z     vdW  Elec       q    Type
REMARK                         _______ _______ _______ _____ _____    ______ ____
ROOT
ATOM      1  N   UNL     1       4.346   6.060  18.442  0.00  0.00    +0.000 N 
ATOM      2  H   UNL     1       4.358   7.044  18.692  0.00  0.00    +0.000 HD
ENDROOT
BRANCH   1   3
ATOM      3  C   UNL     1       5.604   5.589  17.992  0.00  0.00    +0.000 A 
ATOM      4  C   UNL     1       6.683   5.520  18.877  0.00  0.00    +0.000 A 
ATOM      5  C   UNL     1       7.880   5.007  18.425  0.00  0.00    +0.000 A 
ATOM      6  N   UNL     1       8.074   4.563  17.168  0.00  0.00    +0.000 NA
ATOM      7  C   UNL     1       7.052   4.650  16.300  0.00  0.00    +0.000 A 
ATOM      8  C   UNL     1       7.252   4.167  15.017  0.00  0.00    +0.000 A 
ATOM      9  C   UNL     1       6.242   4.223  14.059  0.00  0.00    +0.000 A 
ATOM     10 CL   UNL     1       6.519   3.583  12.486  0.00  0.00    +0.000 Cl
ATOM     11  C   UNL     1       5.009   4.781  14.369  0.00  0.00    +0.000 A 
ATOM     12  C   UNL     1       4.782   5.259  15.659  0.00  0.00    +0.000 A 
ATOM     13  C   UNL     1       5.791   5.189  16.647  0.00  0.00    +0.000 A 
ENDBRANCH   1   3
BRANCH   1  16
ATOM     14  C   UNL     1       2.006   3.245  19.199  0.00  0.00    +0.000 A 
ATOM     15  C   UNL     1       3.003   4.029  18.586  0.00  0.00    +0.000 A 
ATOM     16  C   UNL     1       3.326   5.307  19.060  0.00  0.00    +0.000 A 
ATOM     17  C   UNL     1       2.648   5.786  20.189  0.00  0.00    +0.000 A 
ATOM     18  C   UNL     1       1.680   5.015  20.831  0.00  0.00    +0.000 A 
ATOM     19  C   UNL     1       1.376   3.748  20.343  0.00  0.00    +0.000 A 
BRANCH  19  20
ATOM     20  O   UNL     1       0.455   2.972  20.990  0.00  0.00    +0.000 OA
ATOM     21  H   UNL     1       0.396   2.116  20.533  0.00  0.00    +0.000 HD
ENDBRANCH  19  20
BRANCH  14  22
ATOM     22  C   UNL     1       1.670   1.874  18.678  0.00  0.00    +0.000 C 
BRANCH  22  23
ATOM     23  O   UNL     1       0.283   1.783  18.359  0.00  0.00    +0.000 OA
ATOM     24  H   UNL     1       0.138   0.877  18.039  0.00  0.00    +0.000 HD
ENDBRANCH  22  23
ENDBRANCH  14  22
ENDBRANCH   1  16
TORSDOF 5
ENDMDL
MODEL 9
REMARK VINA RESULT:      -7.3      1.209      1.570
REMARK  Name = 
REMARK  5 active torsions:
REMARK  status: ('A' for Active; 'I' for Inactive)
REMARK    1  A    between atoms: O_1  and  C_2
REMARK    2  A    between atoms: C_2  and  C_3
REMARK    3  A    between atoms: C_5  and  N_6
REMARK    4  A    between atoms: N_6  and  C_7
REMARK    5  A    between atoms: C_20  and  O_21
REMARK                            x       y       z     vdW  Elec       q    Type
REMARK                         _______ _______ _______ _____ _____    ______ ____
ROOT
ATOM      1  N   UNL     1       2.369   6.923  20.314  0.00  0.00    +0.000 N 
ATOM      2  H   UNL     1       2.851   7.070  21.196  0.00  0.00    +0.000 HD
ENDROOT
BRANCH   1   3
ATOM      3  C   UNL     1       1.766   8.102  19.811  0.00  0.00    +0.000 A 
ATOM      4  C   UNL     1       1.908   8.441  18.462  0.00  0.00    +0.000 A 
ATOM      5  C   UNL     1       1.266   9.565  17.990  0.00  0.00    +0.000 A 
ATOM      6  N   UNL     1       0.500  10.365  18.758  0.00  0.00    +0.000 NA
ATOM      7  C   UNL     1       0.379  10.066  20.062  0.00  0.00    +0.000 A 
ATOM      8  C   UNL     1      -0.430  10.880  20.839  0.00  0.00    +0.000 A 
ATOM      9  C   UNL     1      -0.605  10.635  22.199  0.00  0.00    +0.000 A 
ATOM     10 CL   UNL     1      -1.645  11.649  23.122  0.00  0.00    +0.000 Cl
ATOM     11  C   UNL     1       0.044   9.572  22.812  0.00  0.00    +0.000 A 
ATOM     12  C   UNL     1       0.851   8.732  22.046  0.00  0.00    +0.000 A 
ATOM     13  C   UNL     1       1.020   8.956  20.660  0.00  0.00    +0.000 A 
ENDBRANCH   1   3
BRANCH   1  16
ATOM     14  C   UNL     1       4.586   4.738  18.245  0.00  0.00    +0.000 A 
ATOM     15  C   UNL     1       4.093   5.839  18.973  0.00  0.00    +0.000 A 
ATOM     16  C   UNL     1       2.827   5.816  19.569  0.00  0.00    +0.000 A 
ATOM     17  C   UNL     1       2.058   4.651  19.449  0.00  0.00    +0.000 A 
ATOM     18  C   UNL     1       2.538   3.538  18.759  0.00  0.00    +0.000 A 
ATOM     19  C   UNL     1       3.799   3.583  18.175  0.00  0.00    +0.000 A 
BRANCH  19  20
ATOM     20  O   UNL     1       4.290   2.482  17.530  0.00  0.00    +0.000 OA
ATOM     21  H   UNL     1       3.642   1.762  17.610  0.00  0.00    +0.000 HD
ENDBRANCH  19  20
BRANCH  14  22
ATOM     22  C   UNL     1       5.949   4.778  17.609  0.00  0.00    +0.000 C 
BRANCH  22  23
ATOM     23  O   UNL     1       6.879   4.001  18.361  0.00  0.00    +0.000 OA
ATOM     24  H   UNL     1       7.226   3.329  17.752  0.00  0.00    +0.000 HD
ENDBRANCH  22  23
ENDBRANCH  14  22
ENDBRANCH   1  16
TORSDOF 5
ENDMDL
