MODEL 1
REMARK VINA RESULT:      -7.8      0.000      0.000
REMARK  Name = 
REMARK  13 active torsions:
REMARK  status: ('A' for Active; 'I' for Inactive)
REMARK    1  A    between atoms: C_1  and  C_2
REMARK    2  A    between atoms: C_2  and  O_3
REMARK    3  A    between atoms: O_3  and  C_4
REMARK    4  A    between atoms: C_7  and  C_8
REMARK    5  A    between atoms: C_8  and  C_9
REMARK    6  A    between atoms: C_13  and  C_14
REMARK    7  A    between atoms: N_16  and  C_17
REMARK    8  A    between atoms: N_16  and  C_19
REMARK    9  A    between atoms: C_17  and  C_18
REMARK   10  A    between atoms: C_19  and  C_20
REMARK   11  A    between atoms: N_24  and  C_25
REMARK   12  A    between atoms: C_25  and  C_26
REMARK   13  A    between atoms: C_26  and  N_27
REMARK                            x       y       z     vdW  Elec       q    Type
REMARK                         _______ _______ _______ _____ _____    ______ ____
ROOT
ATOM      1  C   UNL     1       0.366  10.822  18.938  0.00  0.00    +0.000 A 
ATOM      2  N   UNL     1       1.140  10.044  18.189  0.00  0.00    +0.000 NA
ATOM      3  C   UNL     1       1.482   8.962  18.951  0.00  0.00    +0.000 A 
ATOM      4  C   UNL     1       2.226   7.812  18.603  0.00  0.00    +0.000 A 
ATOM      5  C   UNL     1       2.404   6.782  19.537  0.00  0.00    +0.000 A 
ATOM      6  C   UNL     1       1.850   6.952  20.823  0.00  0.00    +0.000 A 
ATOM      7  C   UNL     1       1.133   8.103  21.199  0.00  0.00    +0.000 A 
ATOM      8  C   UNL     1       0.967   9.101  20.230  0.00  0.00    +0.000 A 
ATOM      9  N   UNL     1       0.346  10.360  20.245  0.00  0.00    +0.000 N 
ENDROOT
BRANCH   5  10
ATOM     10  C   UNL     1       3.281   5.573  19.328  0.00  0.00    +0.000 C 
ATOM     11  O   UNL     1       4.480   5.820  19.151  0.00  0.00    +0.000 OA
ATOM     12  N   UNL     1       2.820   4.238  19.315  0.00  0.00    +0.000 N 
BRANCH  12  13
ATOM     13  C   UNL     1       1.438   3.812  19.569  0.00  0.00    +0.000 C 
ATOM     14  C   UNL     1       1.179   3.130  20.910  0.00  0.00    +0.000 C 
ENDBRANCH  12  13
BRANCH  12  15
ATOM     15  C   UNL     1       3.764   3.233  18.789  0.00  0.00    +0.000 C 
ATOM     16  C   UNL     1       3.107   2.278  17.803  0.00  0.00    +0.000 C 
ENDBRANCH  12  15
ENDBRANCH   5  10
BRANCH   1  17
ATOM     17  C   UNL     1      -0.539  11.845  18.318  0.00  0.00    +0.000 C 
BRANCH  17  21
ATOM     18  C   UNL     1      -4.848  11.336  18.066  0.00  0.00    +0.000 A 
ATOM     19  C   UNL     1      -4.309  12.072  19.116  0.00  0.00    +0.000 A 
ATOM     20  C   UNL     1      -2.908  12.207  19.251  0.00  0.00    +0.000 A 
ATOM     21  C   UNL     1      -2.037  11.599  18.332  0.00  0.00    +0.000 A 
ATOM     22  C   UNL     1      -2.601  10.869  17.276  0.00  0.00    +0.000 A 
ATOM     23  C   UNL     1      -3.987  10.722  17.156  0.00  0.00    +0.000 A 
BRANCH  18  24
ATOM     24  O   UNL     1      -6.175  11.124  17.819  0.00  0.00    +0.000 OA
BRANCH  24  26
ATOM     25  C   UNL     1      -7.017   9.530  19.368  0.00  0.00    +0.000 C 
ATOM     26  C   UNL     1      -7.021  10.997  18.961  0.00  0.00    +0.000 C 
ENDBRANCH  24  26
ENDBRANCH  18  24
ENDBRANCH  17  21
ENDBRANCH   1  17
BRANCH   9  27
ATOM     27  C   UNL     1      -0.204  10.871  21.496  0.00  0.00    +0.000 C 
BRANCH  27  28
ATOM     28  C   UNL     1      -0.112  12.332  22.008  0.00  0.00    +0.000 C 
BRANCH  28  29
ATOM     29  N   UNL     1      -1.118  12.652  23.082  0.00  0.00    +0.000 NA
ATOM     30  C   UNL     1      -1.261  14.109  23.278  0.00  0.00    +0.000 C 
ATOM     31  C   UNL     1      -2.236  14.473  24.408  0.00  0.00    +0.000 C 
ATOM     32  C   UNL     1      -3.605  13.827  24.216  0.00  0.00    +0.000 C 
ATOM     33  C   UNL     1      -3.443  12.339  23.974  0.00  0.00    +0.000 C 
ATOM     34  C   UNL     1      -2.437  12.030  22.862  0.00  0.00    +0.000 C 
ENDBRANCH  28  29
ENDBRANCH  27  28
ENDBRANCH   9  27
TORSDOF 10
ENDMDL
MODEL 2
REMARK VINA RESULT:      -7.7      3.158     10.185
REMARK  Name = 
REMARK  13 active torsions:
REMARK  status: ('A' for Active; 'I' for Inactive)
REMARK    1  A    between atoms: C_1  and  C_2
REMARK    2  A    between atoms: C_2  and  O_3
REMARK    3  A    between atoms: O_3  and  C_4
REMARK    4  A    between atoms: C_7  and  C_8
REMARK    5  A    between atoms: C_8  and  C_9
REMARK    6  A    between atoms: C_13  and  C_14
REMARK    7  A    between atoms: N_16  and  C_17
REMARK    8  A    between atoms: N_16  and  C_19
REMARK    9  A    between atoms: C_17  and  C_18
REMARK   10  A    between atoms: C_19  and  C_20
REMARK   11  A    between atoms: N_24  and  C_25
REMARK   12  A    between atoms: C_25  and  C_26
REMARK   13  A    between atoms: C_26  and  N_27
REMARK                            x       y       z     vdW  Elec       q    Type
REMARK                         _______ _______ _______ _____ _____    ______ ____
ROOT
ATOM      1  C   UNL     1       3.736   6.141  18.869  0.00  0.00    +0.000 A 
ATOM      2  N   UNL     1       3.423   7.157  18.072  0.00  0.00    +0.000 NA
ATOM      3  C   UNL     1       2.457   7.885  18.710  0.00  0.00    +0.000 A 
ATOM      4  C   UNL     1       1.841   9.099  18.326  0.00  0.00    +0.000 A 
ATOM      5  C   UNL     1       0.909   9.712  19.175  0.00  0.00    +0.000 A 
ATOM      6  C   UNL     1       0.595   9.066  20.388  0.00  0.00    +0.000 A 
ATOM      7  C   UNL     1       1.174   7.843  20.775  0.00  0.00    +0.000 A 
ATOM      8  C   UNL     1       2.110   7.272  19.903  0.00  0.00    +0.000 A 
ATOM      9  N   UNL     1       2.858   6.085  19.941  0.00  0.00    +0.000 N 
ENDROOT
BRANCH   5  10
ATOM     10  C   UNL     1       0.094  10.930  18.820  0.00  0.00    +0.000 C 
ATOM     11  O   UNL     1       0.481  11.987  19.334  0.00  0.00    +0.000 OA
ATOM     12  N   UNL     1      -1.039  10.922  17.978  0.00  0.00    +0.000 N 
BRANCH  12  13
ATOM     13  C   UNL     1      -1.562   9.749  17.265  0.00  0.00    +0.000 C 
ATOM     14  C   UNL     1      -2.818   9.978  16.427  0.00  0.00    +0.000 C 
ENDBRANCH  12  13
BRANCH  12  15
ATOM     15  C   UNL     1      -1.873  12.139  18.005  0.00  0.00    +0.000 C 
ATOM     16  C   UNL     1      -2.828  12.164  19.191  0.00  0.00    +0.000 C 
ENDBRANCH  12  15
ENDBRANCH   5  10
BRANCH   1  17
ATOM     17  C   UNL     1       5.032   5.402  18.712  0.00  0.00    +0.000 C 
BRANCH  17  21
ATOM     18  C   UNL     1       6.240   4.329  14.677  0.00  0.00    +0.000 A 
ATOM     19  C   UNL     1       4.909   4.181  15.052  0.00  0.00    +0.000 A 
ATOM     20  C   UNL     1       4.500   4.472  16.374  0.00  0.00    +0.000 A 
ATOM     21  C   UNL     1       5.429   4.910  17.332  0.00  0.00    +0.000 A 
ATOM     22  C   UNL     1       6.765   5.062  16.931  0.00  0.00    +0.000 A 
ATOM     23  C   UNL     1       7.168   4.756  15.627  0.00  0.00    +0.000 A 
BRANCH  18  24
ATOM     24  O   UNL     1       6.768   4.083  13.441  0.00  0.00    +0.000 OA
BRANCH  24  26
ATOM     25  C   UNL     1       6.346   2.338  11.883  0.00  0.00    +0.000 C 
ATOM     26  C   UNL     1       5.850   3.670  12.429  0.00  0.00    +0.000 C 
ENDBRANCH  24  26
ENDBRANCH  18  24
ENDBRANCH  17  21
ENDBRANCH   1  17
BRANCH   9  27
ATOM     27  C   UNL     1       2.638   5.136  21.027  0.00  0.00    +0.000 C 
BRANCH  27  28
ATOM     28  C   UNL     1       1.665   3.927  21.003  0.00  0.00    +0.000 C 
BRANCH  28  29
ATOM     29  N   UNL     1       2.130   2.806  20.112  0.00  0.00    +0.000 NA
ATOM     30  C   UNL     1       1.830   3.079  18.691  0.00  0.00    +0.000 C 
ATOM     31  C   UNL     1       2.236   1.929  17.757  0.00  0.00    +0.000 C 
ATOM     32  C   UNL     1       3.702   1.544  17.924  0.00  0.00    +0.000 C 
ATOM     33  C   UNL     1       4.010   1.307  19.390  0.00  0.00    +0.000 C 
ATOM     34  C   UNL     1       3.555   2.467  20.281  0.00  0.00    +0.000 C 
ENDBRANCH  28  29
ENDBRANCH  27  28
ENDBRANCH   9  27
TORSDOF 10
ENDMDL
MODEL 3
REMARK VINA RESULT:      -7.7      1.541      2.124
REMARK  Name = 
REMARK  13 active torsions:
REMARK  status: ('A' for Active; 'I' for Inactive)
REMARK    1  A    between atoms: C_1  and  C_2
REMARK    2  A    between atoms: C_2  and  O_3
REMARK    3  A    between atoms: O_3  and  C_4
REMARK    4  A    between atoms: C_7  and  C_8
REMARK    5  A    between atoms: C_8  and  C_9
REMARK    6  A    between atoms: C_13  and  C_14
REMARK    7  A    between atoms: N_16  and  C_17
REMARK    8  A    between atoms: N_16  and  C_19
REMARK    9  A    between atoms: C_17  and  C_18
REMARK   10  A    between atoms: C_19  and  C_20
REMARK   11  A    between atoms: N_24  and  C_25
REMARK   12  A    between atoms: C_25  and  C_26
REMARK   13  A    between atoms: C_26  and  N_27
REMARK                            x       y       z     vdW  Elec       q    Type
REMARK                         _______ _______ _______ _____ _____    ______ ____
ROOT
ATOM      1  C   UNL     1       0.633  10.974  19.060  0.00  0.00    +0.000 A 
ATOM      2  N   UNL     1       1.183  10.352  18.022  0.00  0.00    +0.000 NA
ATOM      3  C   UNL     1       1.628   9.139  18.469  0.00  0.00    +0.000 A 
ATOM      4  C   UNL     1       2.217   8.074  17.750  0.00  0.00    +0.000 A 
ATOM      5  C   UNL     1       2.542   6.879  18.407  0.00  0.00    +0.000 A 
ATOM      6  C   UNL     1       2.292   6.797  19.793  0.00  0.00    +0.000 A 
ATOM      7  C   UNL     1       1.735   7.857  20.532  0.00  0.00    +0.000 A 
ATOM      8  C   UNL     1       1.413   9.027  19.833  0.00  0.00    +0.000 A 
ATOM      9  N   UNL     1       0.876  10.264  20.226  0.00  0.00    +0.000 N 
ENDROOT
BRANCH   5  10
ATOM     10  C   UNL     1       3.288   5.728  17.780  0.00  0.00    +0.000 C 
ATOM     11  O   UNL     1       2.654   4.668  17.712  0.00  0.00    +0.000 OA
ATOM     12  N   UNL     1       4.613   5.796  17.298  0.00  0.00    +0.000 N 
BRANCH  12  13
ATOM     13  C   UNL     1       5.449   7.004  17.269  0.00  0.00    +0.000 C 
ATOM     14  C   UNL     1       6.940   6.796  17.522  0.00  0.00    +0.000 C 
ENDBRANCH  12  13
BRANCH  12  15
ATOM     15  C   UNL     1       5.265   4.503  17.014  0.00  0.00    +0.000 C 
ATOM     16  C   UNL     1       5.361   4.215  15.522  0.00  0.00    +0.000 C 
ENDBRANCH  12  15
ENDBRANCH   5  10
BRANCH   1  17
ATOM     17  C   UNL     1      -0.331  12.106  18.866  0.00  0.00    +0.000 C 
BRANCH  17  21
ATOM     18  C   UNL     1      -4.570  11.402  18.214  0.00  0.00    +0.000 A 
ATOM     19  C   UNL     1      -4.165  12.146  19.318  0.00  0.00    +0.000 A 
ATOM     20  C   UNL     1      -2.790  12.343  19.582  0.00  0.00    +0.000 A 
ATOM     21  C   UNL     1      -1.811  11.790  18.740  0.00  0.00    +0.000 A 
ATOM     22  C   UNL     1      -2.242  11.052  17.628  0.00  0.00    +0.000 A 
ATOM     23  C   UNL     1      -3.602  10.844  17.380  0.00  0.00    +0.000 A 
BRANCH  18  24
ATOM     24  O   UNL     1      -5.859  11.133  17.845  0.00  0.00    +0.000 OA
BRANCH  24  26
ATOM     25  C   UNL     1      -6.834   9.535  19.310  0.00  0.00    +0.000 C 
ATOM     26  C   UNL     1      -6.808  11.002  18.902  0.00  0.00    +0.000 C 
ENDBRANCH  24  26
ENDBRANCH  18  24
ENDBRANCH  17  21
ENDBRANCH   1  17
BRANCH   9  27
ATOM     27  C   UNL     1       0.640  10.522  21.642  0.00  0.00    +0.000 C 
BRANCH  27  28
ATOM     28  C   UNL     1      -0.728  10.456  22.370  0.00  0.00    +0.000 C 
BRANCH  28  29
ATOM     29  N   UNL     1      -1.118  11.753  23.027  0.00  0.00    +0.000 NA
ATOM     30  C   UNL     1      -0.519  12.914  22.337  0.00  0.00    +0.000 C 
ATOM     31  C   UNL     1      -0.846  14.254  23.016  0.00  0.00    +0.000 C 
ATOM     32  C   UNL     1      -2.347  14.457  23.190  0.00  0.00    +0.000 C 
ATOM     33  C   UNL     1      -2.959  13.242  23.860  0.00  0.00    +0.000 C 
ATOM     34  C   UNL     1      -2.575  11.933  23.166  0.00  0.00    +0.000 C 
ENDBRANCH  28  29
ENDBRANCH  27  28
ENDBRANCH   9  27
TORSDOF 10
ENDMDL
MODEL 4
REMARK VINA RESULT:      -7.7      3.696     10.252
REMARK  Name = 
REMARK  13 active torsions:
REMARK  status: ('A' for Active; 'I' for Inactive)
REMARK    1  A    between atoms: C_1  and  C_2
REMARK    2  A    between atoms: C_2  and  O_3
REMARK    3  A    between atoms: O_3  and  C_4
REMARK    4  A    between atoms: C_7  and  C_8
REMARK    5  A    between atoms: C_8  and  C_9
REMARK    6  A    between atoms: C_13  and  C_14
REMARK    7  A    between atoms: N_16  and  C_17
REMARK    8  A    between atoms: N_16  and  C_19
REMARK    9  A    between atoms: C_17  and  C_18
REMARK   10  A    between atoms: C_19  and  C_20
REMARK   11  A    between atoms: N_24  and  C_25
REMARK   12  A    between atoms: C_25  and  C_26
REMARK   13  A    between atoms: C_26  and  N_27
REMARK                            x       y       z     vdW  Elec       q    Type
REMARK                         _______ _______ _______ _____ _____    ______ ____
ROOT
ATOM      1  C   UNL     1       3.615   6.359  18.974  0.00  0.00    +0.000 A 
ATOM      2  N   UNL     1       3.358   7.394  18.182  0.00  0.00    +0.000 NA
ATOM      3  C   UNL     1       2.344   8.104  18.762  0.00  0.00    +0.000 A 
ATOM      4  C   UNL     1       1.753   9.325  18.362  0.00  0.00    +0.000 A 
ATOM      5  C   UNL     1       0.756   9.914  19.152  0.00  0.00    +0.000 A 
ATOM      6  C   UNL     1       0.353   9.236  20.322  0.00  0.00    +0.000 A 
ATOM      7  C   UNL     1       0.907   8.005  20.721  0.00  0.00    +0.000 A 
ATOM      8  C   UNL     1       1.909   7.460  19.909  0.00  0.00    +0.000 A 
ATOM      9  N   UNL     1       2.659   6.274  19.974  0.00  0.00    +0.000 N 
ENDROOT
BRANCH   5  10
ATOM     10  C   UNL     1      -0.036  11.138  18.767  0.00  0.00    +0.000 C 
ATOM     11  O   UNL     1      -1.174  10.913  18.338  0.00  0.00    +0.000 OA
ATOM     12  N   UNL     1       0.440  12.464  18.860  0.00  0.00    +0.000 N 
BRANCH  12  13
ATOM     13  C   UNL     1       1.744  12.866  19.403  0.00  0.00    +0.000 C 
ATOM     14  C   UNL     1       2.846  13.129  18.380  0.00  0.00    +0.000 C 
ENDBRANCH  12  13
BRANCH  12  15
ATOM     15  C   UNL     1      -0.354  13.486  18.150  0.00  0.00    +0.000 C 
ATOM     16  C   UNL     1      -0.337  14.833  18.860  0.00  0.00    +0.000 C 
ENDBRANCH  12  15
ENDBRANCH   5  10
BRANCH   1  17
ATOM     17  C   UNL     1       4.923   5.629  18.898  0.00  0.00    +0.000 C 
BRANCH  17  21
ATOM     18  C   UNL     1       6.235   4.164  15.022  0.00  0.00    +0.000 A 
ATOM     19  C   UNL     1       4.873   4.248  15.294  0.00  0.00    +0.000 A 
ATOM     20  C   UNL     1       4.421   4.670  16.566  0.00  0.00    +0.000 A 
ATOM     21  C   UNL     1       5.336   5.007  17.576  0.00  0.00    +0.000 A 
ATOM     22  C   UNL     1       6.704   4.925  17.278  0.00  0.00    +0.000 A 
ATOM     23  C   UNL     1       7.147   4.490  16.025  0.00  0.00    +0.000 A 
BRANCH  18  24
ATOM     24  O   UNL     1       6.805   3.772  13.844  0.00  0.00    +0.000 OA
BRANCH  24  26
ATOM     25  C   UNL     1       5.674   2.861  11.962  0.00  0.00    +0.000 C 
ATOM     26  C   UNL     1       6.118   4.145  12.650  0.00  0.00    +0.000 C 
ENDBRANCH  24  26
ENDBRANCH  18  24
ENDBRANCH  17  21
ENDBRANCH   1  17
BRANCH   9  27
ATOM     27  C   UNL     1       2.360   5.297  21.016  0.00  0.00    +0.000 C 
BRANCH  27  28
ATOM     28  C   UNL     1       1.400   4.086  20.888  0.00  0.00    +0.000 C 
BRANCH  28  29
ATOM     29  N   UNL     1       1.964   2.963  20.059  0.00  0.00    +0.000 NA
ATOM     30  C   UNL     1       1.705   3.166  18.618  0.00  0.00    +0.000 C 
ATOM     31  C   UNL     1       2.214   2.009  17.745  0.00  0.00    +0.000 C 
ATOM     32  C   UNL     1       3.693   1.719  17.981  0.00  0.00    +0.000 C 
ATOM     33  C   UNL     1       3.956   1.555  19.465  0.00  0.00    +0.000 C 
ATOM     34  C   UNL     1       3.399   2.716  20.293  0.00  0.00    +0.000 C 
ENDBRANCH  28  29
ENDBRANCH  27  28
ENDBRANCH   9  27
TORSDOF 10
ENDMDL
MODEL 5
REMARK VINA RESULT:      -7.6      0.751      1.144
REMARK  Name = 
REMARK  13 active torsions:
REMARK  status: ('A' for Active; 'I' for Inactive)
REMARK    1  A    between atoms: C_1  and  C_2
REMARK    2  A    between atoms: C_2  and  O_3
REMARK    3  A    between atoms: O_3  and  C_4
REMARK    4  A    between atoms: C_7  and  C_8
REMARK    5  A    between atoms: C_8  and  C_9
REMARK    6  A    between atoms: C_13  and  C_14
REMARK    7  A    between atoms: N_16  and  C_17
REMARK    8  A    between atoms: N_16  and  C_19
REMARK    9  A    between atoms: C_17  and  C_18
REMARK   10  A    between atoms: C_19  and  C_20
REMARK   11  A    between atoms: N_24  and  C_25
REMARK   12  A    between atoms: C_25  and  C_26
REMARK   13  A    between atoms: C_26  and  N_27
REMARK                            x       y       z     vdW  Elec       q    Type
REMARK                         _______ _______ _______ _____ _____    ______ ____
ROOT
ATOM      1  C   UNL     1       0.533  10.796  18.823  0.00  0.00    +0.000 A 
ATOM      2  N   UNL     1       1.315  10.020  18.081  0.00  0.00    +0.000 NA
ATOM      3  C   UNL     1       1.626   8.922  18.834  0.00  0.00    +0.000 A 
ATOM      4  C   UNL     1       2.364   7.768  18.485  0.00  0.00    +0.000 A 
ATOM      5  C   UNL     1       2.507   6.722  19.408  0.00  0.00    +0.000 A 
ATOM      6  C   UNL     1       1.924   6.879  20.682  0.00  0.00    +0.000 A 
ATOM      7  C   UNL     1       1.212   8.033  21.059  0.00  0.00    +0.000 A 
ATOM      8  C   UNL     1       1.082   9.048  20.102  0.00  0.00    +0.000 A 
ATOM      9  N   UNL     1       0.476  10.314  20.122  0.00  0.00    +0.000 N 
ENDROOT
BRANCH   5  10
ATOM     10  C   UNL     1       3.374   5.505  19.200  0.00  0.00    +0.000 C 
ATOM     11  O   UNL     1       4.587   5.695  19.348  0.00  0.00    +0.000 OA
ATOM     12  N   UNL     1       2.892   4.224  18.853  0.00  0.00    +0.000 N 
BRANCH  12  13
ATOM     13  C   UNL     1       1.477   3.858  18.705  0.00  0.00    +0.000 C 
ATOM     14  C   UNL     1       0.748   3.458  19.986  0.00  0.00    +0.000 C 
ENDBRANCH  12  13
BRANCH  12  15
ATOM     15  C   UNL     1       3.905   3.255  18.393  0.00  0.00    +0.000 C 
ATOM     16  C   UNL     1       3.299   1.903  18.041  0.00  0.00    +0.000 C 
ENDBRANCH  12  15
ENDBRANCH   5  10
BRANCH   1  17
ATOM     17  C   UNL     1      -0.344  11.840  18.198  0.00  0.00    +0.000 C 
BRANCH  17  21
ATOM     18  C   UNL     1      -4.660  11.434  17.878  0.00  0.00    +0.000 A 
ATOM     19  C   UNL     1      -4.111  11.986  19.031  0.00  0.00    +0.000 A 
ATOM     20  C   UNL     1      -2.708  12.080  19.183  0.00  0.00    +0.000 A 
ATOM     21  C   UNL     1      -1.845  11.614  18.176  0.00  0.00    +0.000 A 
ATOM     22  C   UNL     1      -2.419  11.070  17.018  0.00  0.00    +0.000 A 
ATOM     23  C   UNL     1      -3.807  10.963  16.880  0.00  0.00    +0.000 A 
BRANCH  18  24
ATOM     24  O   UNL     1      -5.990  11.282  17.604  0.00  0.00    +0.000 OA
BRANCH  24  26
ATOM     25  C   UNL     1      -7.560  12.668  18.729  0.00  0.00    +0.000 C 
ATOM     26  C   UNL     1      -6.748  12.482  17.454  0.00  0.00    +0.000 C 
ENDBRANCH  24  26
ENDBRANCH  18  24
ENDBRANCH  17  21
ENDBRANCH   1  17
BRANCH   9  27
ATOM     27  C   UNL     1      -0.098  10.812  21.367  0.00  0.00    +0.000 C 
BRANCH  27  28
ATOM     28  C   UNL     1       0.034  12.254  21.925  0.00  0.00    +0.000 C 
BRANCH  28  29
ATOM     29  N   UNL     1      -1.277  12.839  22.380  0.00  0.00    +0.000 NA
ATOM     30  C   UNL     1      -2.119  11.829  23.054  0.00  0.00    +0.000 C 
ATOM     31  C   UNL     1      -3.491  12.375  23.480  0.00  0.00    +0.000 C 
ATOM     32  C   UNL     1      -3.367  13.625  24.346  0.00  0.00    +0.000 C 
ATOM     33  C   UNL     1      -2.466  14.638  23.665  0.00  0.00    +0.000 C 
ATOM     34  C   UNL     1      -1.128  14.035  23.230  0.00  0.00    +0.000 C 
ENDBRANCH  28  29
ENDBRANCH  27  28
ENDBRANCH   9  27
TORSDOF 10
ENDMDL
MODEL 6
REMARK VINA RESULT:      -7.5      0.925      1.108
REMARK  Name = 
REMARK  13 active torsions:
REMARK  status: ('A' for Active; 'I' for Inactive)
REMARK    1  A    between atoms: C_1  and  C_2
REMARK    2  A    between atoms: C_2  and  O_3
REMARK    3  A    between atoms: O_3  and  C_4
REMARK    4  A    between atoms: C_7  and  C_8
REMARK    5  A    between atoms: C_8  and  C_9
REMARK    6  A    between atoms: C_13  and  C_14
REMARK    7  A    between atoms: N_16  and  C_17
REMARK    8  A    between atoms: N_16  and  C_19
REMARK    9  A    between atoms: C_17  and  C_18
REMARK   10  A    between atoms: C_19  and  C_20
REMARK   11  A    between atoms: N_24  and  C_25
REMARK   12  A    between atoms: C_25  and  C_26
REMARK   13  A    between atoms: C_26  and  N_27
REMARK                            x       y       z     vdW  Elec       q    Type
REMARK                         _______ _______ _______ _____ _____    ______ ____
ROOT
ATOM      1  C   UNL     1       0.370  10.956  18.901  0.00  0.00    +0.000 A 
ATOM      2  N   UNL     1       1.137  10.169  18.154  0.00  0.00    +0.000 NA
ATOM      3  C   UNL     1       1.472   9.088  18.921  0.00  0.00    +0.000 A 
ATOM      4  C   UNL     1       2.206   7.930  18.576  0.00  0.00    +0.000 A 
ATOM      5  C   UNL     1       2.378   6.902  19.515  0.00  0.00    +0.000 A 
ATOM      6  C   UNL     1       1.826   7.082  20.800  0.00  0.00    +0.000 A 
ATOM      7  C   UNL     1       1.118   8.240  21.173  0.00  0.00    +0.000 A 
ATOM      8  C   UNL     1       0.959   9.235  20.199  0.00  0.00    +0.000 A 
ATOM      9  N   UNL     1       0.348  10.499  20.210  0.00  0.00    +0.000 N 
ENDROOT
BRANCH   5  10
ATOM     10  C   UNL     1       3.245   5.686  19.309  0.00  0.00    +0.000 C 
ATOM     11  O   UNL     1       4.449   5.856  19.535  0.00  0.00    +0.000 OA
ATOM     12  N   UNL     1       2.773   4.425  18.883  0.00  0.00    +0.000 N 
BRANCH  12  13
ATOM     13  C   UNL     1       1.366   4.080  18.637  0.00  0.00    +0.000 C 
ATOM     14  C   UNL     1       1.006   2.601  18.755  0.00  0.00    +0.000 C 
ENDBRANCH  12  13
BRANCH  12  15
ATOM     15  C   UNL     1       3.803   3.464  18.443  0.00  0.00    +0.000 C 
ATOM     16  C   UNL     1       4.142   3.609  16.966  0.00  0.00    +0.000 C 
ENDBRANCH  12  15
ENDBRANCH   5  10
BRANCH   1  17
ATOM     17  C   UNL     1      -0.528  11.983  18.278  0.00  0.00    +0.000 C 
BRANCH  17  21
ATOM     18  C   UNL     1      -4.826  11.465  17.891  0.00  0.00    +0.000 A 
ATOM     19  C   UNL     1      -4.305  11.972  19.077  0.00  0.00    +0.000 A 
ATOM     20  C   UNL     1      -2.907  12.100  19.249  0.00  0.00    +0.000 A 
ATOM     21  C   UNL     1      -2.021  11.714  18.229  0.00  0.00    +0.000 A 
ATOM     22  C   UNL     1      -2.568  11.215  17.038  0.00  0.00    +0.000 A 
ATOM     23  C   UNL     1      -3.950  11.073  16.879  0.00  0.00    +0.000 A 
BRANCH  18  24
ATOM     24  O   UNL     1      -6.148  11.288  17.596  0.00  0.00    +0.000 OA
BRANCH  24  26
ATOM     25  C   UNL     1      -6.896  13.456  16.969  0.00  0.00    +0.000 C 
ATOM     26  C   UNL     1      -7.033  12.336  17.991  0.00  0.00    +0.000 C 
ENDBRANCH  24  26
ENDBRANCH  18  24
ENDBRANCH  17  21
ENDBRANCH   1  17
BRANCH   9  27
ATOM     27  C   UNL     1      -0.197  11.019  21.460  0.00  0.00    +0.000 C 
BRANCH  27  28
ATOM     28  C   UNL     1      -0.067  12.475  21.980  0.00  0.00    +0.000 C 
BRANCH  28  29
ATOM     29  N   UNL     1      -1.278  12.946  22.742  0.00  0.00    +0.000 NA
ATOM     30  C   UNL     1      -1.935  14.086  22.070  0.00  0.00    +0.000 C 
ATOM     31  C   UNL     1      -3.140  14.632  22.850  0.00  0.00    +0.000 C 
ATOM     32  C   UNL     1      -4.161  13.543  23.166  0.00  0.00    +0.000 C 
ATOM     33  C   UNL     1      -3.470  12.361  23.816  0.00  0.00    +0.000 C 
ATOM     34  C   UNL     1      -2.256  11.878  23.018  0.00  0.00    +0.000 C 
ENDBRANCH  28  29
ENDBRANCH  27  28
ENDBRANCH   9  27
TORSDOF 10
ENDMDL
MODEL 7
REMARK VINA RESULT:      -7.5      1.623      2.403
REMARK  Name = 
REMARK  13 active torsions:
REMARK  status: ('A' for Active; 'I' for Inactive)
REMARK    1  A    between atoms: C_1  and  C_2
REMARK    2  A    between atoms: C_2  and  O_3
REMARK    3  A    between atoms: O_3  and  C_4
REMARK    4  A    between atoms: C_7  and  C_8
REMARK    5  A    between atoms: C_8  and  C_9
REMARK    6  A    between atoms: C_13  and  C_14
REMARK    7  A    between atoms: N_16  and  C_17
REMARK    8  A    between atoms: N_16  and  C_19
REMARK    9  A    between atoms: C_17  and  C_18
REMARK   10  A    between atoms: C_19  and  C_20
REMARK   11  A    between atoms: N_24  and  C_25
REMARK   12  A    between atoms: C_25  and  C_26
REMARK   13  A    between atoms: C_26  and  N_27
REMARK                            x       y       z     vdW  Elec       q    Type
REMARK                         _______ _______ _______ _____ _____    ______ ____
ROOT
ATOM      1  C   UNL     1       0.822  10.875  19.037  0.00  0.00    +0.000 A 
ATOM      2  N   UNL     1       1.399  10.251  18.015  0.00  0.00    +0.000 NA
ATOM      3  C   UNL     1       1.779   9.016  18.461  0.00  0.00    +0.000 A 
ATOM      4  C   UNL     1       2.365   7.941  17.752  0.00  0.00    +0.000 A 
ATOM      5  C   UNL     1       2.617   6.726  18.404  0.00  0.00    +0.000 A 
ATOM      6  C   UNL     1       2.299   6.631  19.775  0.00  0.00    +0.000 A 
ATOM      7  C   UNL     1       1.744   7.699  20.505  0.00  0.00    +0.000 A 
ATOM      8  C   UNL     1       1.496   8.890  19.811  0.00  0.00    +0.000 A 
ATOM      9  N   UNL     1       0.984  10.139  20.200  0.00  0.00    +0.000 N 
ENDROOT
BRANCH   5  10
ATOM     10  C   UNL     1       3.351   5.559  17.793  0.00  0.00    +0.000 C 
ATOM     11  O   UNL     1       2.728   4.491  17.790  0.00  0.00    +0.000 OA
ATOM     12  N   UNL     1       4.656   5.622  17.258  0.00  0.00    +0.000 N 
BRANCH  12  13
ATOM     13  C   UNL     1       5.476   6.836  17.151  0.00  0.00    +0.000 C 
ATOM     14  C   UNL     1       6.930   6.708  17.601  0.00  0.00    +0.000 C 
ENDBRANCH  12  13
BRANCH  12  15
ATOM     15  C   UNL     1       5.312   4.325  16.998  0.00  0.00    +0.000 C 
ATOM     16  C   UNL     1       5.540   4.075  15.514  0.00  0.00    +0.000 C 
ENDBRANCH  12  15
ENDBRANCH   5  10
BRANCH   1  17
ATOM     17  C   UNL     1      -0.093  12.043  18.816  0.00  0.00    +0.000 C 
BRANCH  17  21
ATOM     18  C   UNL     1      -4.280  11.081  18.157  0.00  0.00    +0.000 A 
ATOM     19  C   UNL     1      -3.322  10.600  17.270  0.00  0.00    +0.000 A 
ATOM     20  C   UNL     1      -1.959  10.943  17.431  0.00  0.00    +0.000 A 
ATOM     21  C   UNL     1      -1.550  11.777  18.485  0.00  0.00    +0.000 A 
ATOM     22  C   UNL     1      -2.530  12.243  19.373  0.00  0.00    +0.000 A 
ATOM     23  C   UNL     1      -3.879  11.916  19.200  0.00  0.00    +0.000 A 
BRANCH  18  24
ATOM     24  O   UNL     1      -5.622  10.830  18.117  0.00  0.00    +0.000 OA
BRANCH  24  26
ATOM     25  C   UNL     1      -6.652  12.712  17.093  0.00  0.00    +0.000 C 
ATOM     26  C   UNL     1      -6.483  11.935  18.391  0.00  0.00    +0.000 C 
ENDBRANCH  24  26
ENDBRANCH  18  24
ENDBRANCH  17  21
ENDBRANCH   1  17
BRANCH   9  27
ATOM     27  C   UNL     1       0.690  10.384  21.608  0.00  0.00    +0.000 C 
BRANCH  27  28
ATOM     28  C   UNL     1      -0.718  10.421  22.257  0.00  0.00    +0.000 C 
BRANCH  28  29
ATOM     29  N   UNL     1      -1.034  11.734  22.921  0.00  0.00    +0.000 NA
ATOM     30  C   UNL     1      -0.423  12.870  22.200  0.00  0.00    +0.000 C 
ATOM     31  C   UNL     1      -0.674  14.223  22.883  0.00  0.00    +0.000 C 
ATOM     32  C   UNL     1      -2.159  14.482  23.117  0.00  0.00    +0.000 C 
ATOM     33  C   UNL     1      -2.786  13.293  23.819  0.00  0.00    +0.000 C 
ATOM     34  C   UNL     1      -2.477  11.967  23.118  0.00  0.00    +0.000 C 
ENDBRANCH  28  29
ENDBRANCH  27  28
ENDBRANCH   9  27
TORSDOF 10
ENDMDL
MODEL 8
REMARK VINA RESULT:      -7.4      3.203     10.135
REMARK  Name = 
REMARK  13 active torsions:
REMARK  status: ('A' for Active; 'I' for Inactive)
REMARK    1  A    between atoms: C_1  and  C_2
REMARK    2  A    between atoms: C_2  and  O_3
REMARK    3  A    between atoms: O_3  and  C_4
REMARK    4  A    between atoms: C_7  and  C_8
REMARK    5  A    between atoms: C_8  and  C_9
REMARK    6  A    between atoms: C_13  and  C_14
REMARK    7  A    between atoms: N_16  and  C_17
REMARK    8  A    between atoms: N_16  and  C_19
REMARK    9  A    between atoms: C_17  and  C_18
REMARK   10  A    between atoms: C_19  and  C_20
REMARK   11  A    between atoms: N_24  and  C_25
REMARK   12  A    between atoms: C_25  and  C_26
REMARK   13  A    between atoms: C_26  and  N_27
REMARK                            x       y       z     vdW  Elec       q    Type
REMARK                         _______ _______ _______ _____ _____    ______ ____
ROOT
ATOM      1  C   UNL     1       3.347   6.782  18.584  0.00  0.00    +0.000 A 
ATOM      2  N   UNL     1       3.035   7.836  17.838  0.00  0.00    +0.000 NA
ATOM      3  C   UNL     1       2.087   8.547  18.521  0.00  0.00    +0.000 A 
ATOM      4  C   UNL     1       1.480   9.782  18.200  0.00  0.00    +0.000 A 
ATOM      5  C   UNL     1       0.567  10.367  19.088  0.00  0.00    +0.000 A 
ATOM      6  C   UNL     1       0.260   9.672  20.276  0.00  0.00    +0.000 A 
ATOM      7  C   UNL     1       0.831   8.426  20.599  0.00  0.00    +0.000 A 
ATOM      8  C   UNL     1       1.748   7.885  19.690  0.00  0.00    +0.000 A 
ATOM      9  N   UNL     1       2.483   6.688  19.664  0.00  0.00    +0.000 N 
ENDROOT
BRANCH   5  10
ATOM     10  C   UNL     1      -0.239  11.609  18.799  0.00  0.00    +0.000 C 
ATOM     11  O   UNL     1      -1.026  11.514  17.850  0.00  0.00    +0.000 OA
ATOM     12  N   UNL     1      -0.136  12.819  19.519  0.00  0.00    +0.000 N 
BRANCH  12  13
ATOM     13  C   UNL     1       0.715  13.041  20.696  0.00  0.00    +0.000 C 
ATOM     14  C   UNL     1      -0.012  13.318  22.009  0.00  0.00    +0.000 C 
ENDBRANCH  12  13
BRANCH  12  15
ATOM     15  C   UNL     1      -0.767  13.998  18.895  0.00  0.00    +0.000 C 
ATOM     16  C   UNL     1       0.199  15.166  18.748  0.00  0.00    +0.000 C 
ENDBRANCH  12  15
ENDBRANCH   5  10
BRANCH   1  17
ATOM     17  C   UNL     1       4.632   6.037  18.377  0.00  0.00    +0.000 C 
BRANCH  17  21
ATOM     18  C   UNL     1       5.837   4.379  14.544  0.00  0.00    +0.000 A 
ATOM     19  C   UNL     1       5.992   5.741  14.776  0.00  0.00    +0.000 A 
ATOM     20  C   UNL     1       5.558   6.315  15.994  0.00  0.00    +0.000 A 
ATOM     21  C   UNL     1       4.961   5.522  16.987  0.00  0.00    +0.000 A 
ATOM     22  C   UNL     1       4.823   4.149  16.737  0.00  0.00    +0.000 A 
ATOM     23  C   UNL     1       5.236   3.588  15.524  0.00  0.00    +0.000 A 
BRANCH  18  24
ATOM     24  O   UNL     1       6.208   3.699  13.418  0.00  0.00    +0.000 OA
BRANCH  24  26
ATOM     25  C   UNL     1       5.547   2.313  11.604  0.00  0.00    +0.000 C 
ATOM     26  C   UNL     1       5.217   3.568  12.400  0.00  0.00    +0.000 C 
ENDBRANCH  24  26
ENDBRANCH  18  24
ENDBRANCH  17  21
ENDBRANCH   1  17
BRANCH   9  27
ATOM     27  C   UNL     1       2.266   5.694  20.710  0.00  0.00    +0.000 C 
BRANCH  27  28
ATOM     28  C   UNL     1       1.275   4.501  20.648  0.00  0.00    +0.000 C 
BRANCH  28  29
ATOM     29  N   UNL     1       1.884   3.250  20.072  0.00  0.00    +0.000 NA
ATOM     30  C   UNL     1       1.558   3.095  18.639  0.00  0.00    +0.000 C 
ATOM     31  C   UNL     1       2.113   1.798  18.031  0.00  0.00    +0.000 C 
ATOM     32  C   UNL     1       3.616   1.659  18.251  0.00  0.00    +0.000 C 
ATOM     33  C   UNL     1       3.945   1.861  19.717  0.00  0.00    +0.000 C 
ATOM     34  C   UNL     1       3.340   3.150  20.282  0.00  0.00    +0.000 C 
ENDBRANCH  28  29
ENDBRANCH  27  28
ENDBRANCH   9  27
TORSDOF 10
ENDMDL
MODEL 9
REMARK VINA RESULT:      -7.3      0.705      1.145
REMARK  Name = 
REMARK  13 active torsions:
REMARK  status: ('A' for Active; 'I' for Inactive)
REMARK    1  A    between atoms: C_1  and  C_2
REMARK    2  A    between atoms: C_2  and  O_3
REMARK    3  A    between atoms: O_3  and  C_4
REMARK    4  A    between atoms: C_7  and  C_8
REMARK    5  A    between atoms: C_8  and  C_9
REMARK    6  A    between atoms: C_13  and  C_14
REMARK    7  A    between atoms: N_16  and  C_17
REMARK    8  A    between atoms: N_16  and  C_19
REMARK    9  A    between atoms: C_17  and  C_18
REMARK   10  A    between atoms: C_19  and  C_20
REMARK   11  A    between atoms: N_24  and  C_25
REMARK   12  A    between atoms: C_25  and  C_26
REMARK   13  A    between atoms: C_26  and  N_27
REMARK                            x       y       z     vdW  Elec       q    Type
REMARK                         _______ _______ _______ _____ _____    ______ ____
ROOT
ATOM      1  C   UNL     1       0.468  10.875  19.020  0.00  0.00    +0.000 A 
ATOM      2  N   UNL     1       1.147  10.044  18.236  0.00  0.00    +0.000 NA
ATOM      3  C   UNL     1       1.514   8.975  19.004  0.00  0.00    +0.000 A 
ATOM      4  C   UNL     1       2.184   7.786  18.634  0.00  0.00    +0.000 A 
ATOM      5  C   UNL     1       2.405   6.780  19.585  0.00  0.00    +0.000 A 
ATOM      6  C   UNL     1       1.969   7.011  20.906  0.00  0.00    +0.000 A 
ATOM      7  C   UNL     1       1.328   8.201  21.302  0.00  0.00    +0.000 A 
ATOM      8  C   UNL     1       1.116   9.173  20.316  0.00  0.00    +0.000 A 
ATOM      9  N   UNL     1       0.543  10.455  20.340  0.00  0.00    +0.000 N 
ENDROOT
BRANCH   5  10
ATOM     10  C   UNL     1       3.217   5.532  19.344  0.00  0.00    +0.000 C 
ATOM     11  O   UNL     1       4.436   5.659  19.517  0.00  0.00    +0.000 OA
ATOM     12  N   UNL     1       2.681   4.290  18.943  0.00  0.00    +0.000 N 
BRANCH  12  13
ATOM     13  C   UNL     1       1.254   3.996  18.761  0.00  0.00    +0.000 C 
ATOM     14  C   UNL     1       0.865   2.519  18.761  0.00  0.00    +0.000 C 
ENDBRANCH  12  13
BRANCH  12  15
ATOM     15  C   UNL     1       3.655   3.291  18.461  0.00  0.00    +0.000 C 
ATOM     16  C   UNL     1       4.071   3.533  17.017  0.00  0.00    +0.000 C 
ENDBRANCH  12  15
ENDBRANCH   5  10
BRANCH   1  17
ATOM     17  C   UNL     1      -0.450  11.911  18.444  0.00  0.00    +0.000 C 
BRANCH  17  21
ATOM     18  C   UNL     1      -4.642  10.803  18.152  0.00  0.00    +0.000 A 
ATOM     19  C   UNL     1      -3.687  10.030  17.502  0.00  0.00    +0.000 A 
ATOM     20  C   UNL     1      -2.322  10.400  17.536  0.00  0.00    +0.000 A 
ATOM     21  C   UNL     1      -1.909  11.553  18.223  0.00  0.00    +0.000 A 
ATOM     22  C   UNL     1      -2.887  12.313  18.880  0.00  0.00    +0.000 A 
ATOM     23  C   UNL     1      -4.238  11.955  18.828  0.00  0.00    +0.000 A 
BRANCH  18  24
ATOM     24  O   UNL     1      -5.987  10.564  18.198  0.00  0.00    +0.000 OA
BRANCH  24  26
ATOM     25  C   UNL     1      -7.037   9.013  19.662  0.00  0.00    +0.000 C 
ATOM     26  C   UNL     1      -6.569  10.452  19.496  0.00  0.00    +0.000 C 
ENDBRANCH  24  26
ENDBRANCH  18  24
ENDBRANCH  17  21
ENDBRANCH   1  17
BRANCH   9  27
ATOM     27  C   UNL     1       0.121  11.025  21.614  0.00  0.00    +0.000 C 
BRANCH  27  28
ATOM     28  C   UNL     1      -1.257  10.822  22.297  0.00  0.00    +0.000 C 
BRANCH  28  29
ATOM     29  N   UNL     1      -1.656  11.967  23.189  0.00  0.00    +0.000 NA
ATOM     30  C   UNL     1      -0.958  13.215  22.817  0.00  0.00    +0.000 C 
ATOM     31  C   UNL     1      -1.294  14.394  23.745  0.00  0.00    +0.000 C 
ATOM     32  C   UNL     1      -2.797  14.636  23.843  0.00  0.00    +0.000 C 
ATOM     33  C   UNL     1      -3.507  13.340  24.183  0.00  0.00    +0.000 C 
ATOM     34  C   UNL     1      -3.112  12.191  23.252  0.00  0.00    +0.000 C 
ENDBRANCH  28  29
ENDBRANCH  27  28
ENDBRANCH   9  27
TORSDOF 10
ENDMDL
