MODEL 1
REMARK VINA RESULT:      -7.4      0.000      0.000
REMARK  Name = 
REMARK  6 active torsions:
REMARK  status: ('A' for Active; 'I' for Inactive)
REMARK    1  A    between atoms: C_1  and  C_2
REMARK    2  A    between atoms: C_2  and  C_3
REMARK    3  A    between atoms: C_2  and  C_4
REMARK    4  A    between atoms: C_4  and  N_5
REMARK    5  A    between atoms: C_9  and  C_10
REMARK    6  A    between atoms: N_12  and  C_13
REMARK                            x       y       z     vdW  Elec       q    Type
REMARK                         _______ _______ _______ _____ _____    ______ ____
ROOT
ATOM      1  N   UNL     1       4.864   6.847  16.506  0.00  0.00    +0.000 NA
ATOM      2  C   UNL     1       5.168   5.990  15.345  0.00  0.00    +0.000 C 
ATOM      3  C   UNL     1       6.431   5.089  15.465  0.00  0.00    +0.000 C 
ATOM      4  C   UNL     1       6.275   3.980  16.489  0.00  0.00    +0.000 C 
ATOM      5  C   UNL     1       6.669   4.645  17.821  0.00  0.00    +0.000 C 
ATOM      6  C   UNL     1       7.105   6.044  17.385  0.00  0.00    +0.000 C 
ATOM      7  C   UNL     1       6.032   7.143  17.336  0.00  0.00    +0.000 C 
ATOM      8  O   UNL     1       7.526   5.851  16.011  0.00  0.00    +0.000 OA
ENDROOT
BRANCH   5   9
ATOM      9  C   UNL     1       5.581   4.430  18.863  0.00  0.00    +0.000 C 
ATOM     10  O   UNL     1       5.530   5.188  19.836  0.00  0.00    +0.000 OA
ATOM     11  N   UNL     1       4.645   3.438  18.627  0.00  0.00    +0.000 N 
ATOM     12  H   UNL     1       4.845   2.743  17.918  0.00  0.00    +0.000 HD
BRANCH  11  13
ATOM     13  C   UNL     1       3.587   3.136  19.527  0.00  0.00    +0.000 A 
ATOM     14  C   UNL     1       2.249   3.394  19.237  0.00  0.00    +0.000 A 
ATOM     15  C   UNL     1       1.259   3.154  20.190  0.00  0.00    +0.000 A 
ATOM     16  C   UNL     1       1.645   2.639  21.415  0.00  0.00    +0.000 A 
ATOM     17  N   UNL     1       2.922   2.334  21.727  0.00  0.00    +0.000 NA
ATOM     18  C   UNL     1       3.857   2.579  20.776  0.00  0.00    +0.000 A 
ENDBRANCH  11  13
ENDBRANCH   5   9
BRANCH   1  19
ATOM     19  C   UNL     1       3.580   6.594  17.158  0.00  0.00    +0.000 C 
BRANCH  19  21
ATOM     20  C   UNL     1       2.260   8.728  17.670  0.00  0.00    +0.000 C 
ATOM     21  C   UNL     1       3.171   7.633  18.231  0.00  0.00    +0.000 C 
ATOM     22  C   UNL     1       2.519   6.953  19.434  0.00  0.00    +0.000 C 
ENDBRANCH  19  21
ENDBRANCH   1  19
TORSDOF 4
ENDMDL
MODEL 2
REMARK VINA RESULT:      -7.2      1.850      5.353
REMARK  Name = 
REMARK  6 active torsions:
REMARK  status: ('A' for Active; 'I' for Inactive)
REMARK    1  A    between atoms: C_1  and  C_2
REMARK    2  A    between atoms: C_2  and  C_3
REMARK    3  A    between atoms: C_2  and  C_4
REMARK    4  A    between atoms: C_4  and  N_5
REMARK    5  A    between atoms: C_9  and  C_10
REMARK    6  A    between atoms: N_12  and  C_13
REMARK                            x       y       z     vdW  Elec       q    Type
REMARK                         _______ _______ _______ _____ _____    ______ ____
ROOT
ATOM      1  N   UNL     1       1.951   5.197  19.818  0.00  0.00    +0.000 NA
ATOM      2  C   UNL     1       2.022   4.653  21.189  0.00  0.00    +0.000 C 
ATOM      3  C   UNL     1       2.207   3.113  21.311  0.00  0.00    +0.000 C 
ATOM      4  C   UNL     1       3.570   2.639  20.842  0.00  0.00    +0.000 C 
ATOM      5  C   UNL     1       3.402   2.460  19.322  0.00  0.00    +0.000 C 
ATOM      6  C   UNL     1       1.918   2.761  19.109  0.00  0.00    +0.000 C 
ATOM      7  C   UNL     1       1.517   4.216  18.823  0.00  0.00    +0.000 C 
ATOM      8  O   UNL     1       1.323   2.440  20.392  0.00  0.00    +0.000 OA
ENDROOT
BRANCH   5   9
ATOM      9  C   UNL     1       4.490   3.217  18.575  0.00  0.00    +0.000 C 
ATOM     10  O   UNL     1       5.387   3.765  19.223  0.00  0.00    +0.000 OA
ATOM     11  N   UNL     1       4.469   3.185  17.192  0.00  0.00    +0.000 N 
ATOM     12  H   UNL     1       3.622   2.880  16.728  0.00  0.00    +0.000 HD
BRANCH  11  13
ATOM     13  C   UNL     1       5.424   3.858  16.382  0.00  0.00    +0.000 A 
ATOM     14  C   UNL     1       5.221   4.118  15.028  0.00  0.00    +0.000 A 
ATOM     15  C   UNL     1       6.226   4.707  14.262  0.00  0.00    +0.000 A 
ATOM     16  C   UNL     1       7.414   5.037  14.889  0.00  0.00    +0.000 A 
ATOM     17  N   UNL     1       7.643   4.843  16.205  0.00  0.00    +0.000 NA
ATOM     18  C   UNL     1       6.643   4.269  16.919  0.00  0.00    +0.000 A 
ENDBRANCH  11  13
ENDBRANCH   5   9
BRANCH   1  19
ATOM     19  C   UNL     1       3.002   6.149  19.463  0.00  0.00    +0.000 C 
BRANCH  19  21
ATOM     20  C   UNL     1       2.115   8.167  18.160  0.00  0.00    +0.000 C 
ATOM     21  C   UNL     1       2.839   6.820  18.078  0.00  0.00    +0.000 C 
ATOM     22  C   UNL     1       4.189   6.976  17.379  0.00  0.00    +0.000 C 
ENDBRANCH  19  21
ENDBRANCH   1  19
TORSDOF 4
ENDMDL
MODEL 3
REMARK VINA RESULT:      -7.0      0.709      1.080
REMARK  Name = 
REMARK  6 active torsions:
REMARK  status: ('A' for Active; 'I' for Inactive)
REMARK    1  A    between atoms: C_1  and  C_2
REMARK    2  A    between atoms: C_2  and  C_3
REMARK    3  A    between atoms: C_2  and  C_4
REMARK    4  A    between atoms: C_4  and  N_5
REMARK    5  A    between atoms: C_9  and  C_10
REMARK    6  A    between atoms: N_12  and  C_13
REMARK                            x       y       z     vdW  Elec       q    Type
REMARK                         _______ _______ _______ _____ _____    ______ ____
ROOT
ATOM      1  N   UNL     1       4.948   6.846  16.449  0.00  0.00    +0.000 NA
ATOM      2  C   UNL     1       5.228   6.025  15.254  0.00  0.00    +0.000 C 
ATOM      3  C   UNL     1       6.486   5.113  15.325  0.00  0.00    +0.000 C 
ATOM      4  C   UNL     1       6.339   3.972  16.314  0.00  0.00    +0.000 C 
ATOM      5  C   UNL     1       6.758   4.589  17.661  0.00  0.00    +0.000 C 
ATOM      6  C   UNL     1       7.196   5.999  17.265  0.00  0.00    +0.000 C 
ATOM      7  C   UNL     1       6.131   7.106  17.269  0.00  0.00    +0.000 C 
ATOM      8  O   UNL     1       7.595   5.850  15.879  0.00  0.00    +0.000 OA
ENDROOT
BRANCH   5   9
ATOM      9  C   UNL     1       5.685   4.347  18.712  0.00  0.00    +0.000 C 
ATOM     10  O   UNL     1       5.783   4.911  19.805  0.00  0.00    +0.000 OA
ATOM     11  N   UNL     1       4.599   3.564  18.360  0.00  0.00    +0.000 N 
ATOM     12  H   UNL     1       4.665   2.990  17.528  0.00  0.00    +0.000 HD
BRANCH  11  13
ATOM     13  C   UNL     1       3.537   3.258  19.255  0.00  0.00    +0.000 A 
ATOM     14  C   UNL     1       3.748   2.791  20.550  0.00  0.00    +0.000 A 
ATOM     15  C   UNL     1       2.670   2.428  21.357  0.00  0.00    +0.000 A 
ATOM     16  C   UNL     1       1.394   2.561  20.838  0.00  0.00    +0.000 A 
ATOM     17  N   UNL     1       1.137   3.046  19.605  0.00  0.00    +0.000 NA
ATOM     18  C   UNL     1       2.210   3.391  18.849  0.00  0.00    +0.000 A 
ENDBRANCH  11  13
ENDBRANCH   5   9
BRANCH   1  19
ATOM     19  C   UNL     1       3.672   6.579  17.111  0.00  0.00    +0.000 C 
BRANCH  19  21
ATOM     20  C   UNL     1       2.339   8.681  17.712  0.00  0.00    +0.000 C 
ATOM     21  C   UNL     1       3.284   7.588  18.219  0.00  0.00    +0.000 C 
ATOM     22  C   UNL     1       2.680   6.873  19.428  0.00  0.00    +0.000 C 
ENDBRANCH  19  21
ENDBRANCH   1  19
TORSDOF 4
ENDMDL
MODEL 4
REMARK VINA RESULT:      -7.0      2.248      5.523
REMARK  Name = 
REMARK  6 active torsions:
REMARK  status: ('A' for Active; 'I' for Inactive)
REMARK    1  A    between atoms: C_1  and  C_2
REMARK    2  A    between atoms: C_2  and  C_3
REMARK    3  A    between atoms: C_2  and  C_4
REMARK    4  A    between atoms: C_4  and  N_5
REMARK    5  A    between atoms: C_9  and  C_10
REMARK    6  A    between atoms: N_12  and  C_13
REMARK                            x       y       z     vdW  Elec       q    Type
REMARK                         _______ _______ _______ _____ _____    ______ ____
ROOT
ATOM      1  N   UNL     1       1.776   4.990  20.244  0.00  0.00    +0.000 NA
ATOM      2  C   UNL     1       2.580   4.433  21.349  0.00  0.00    +0.000 C 
ATOM      3  C   UNL     1       2.736   2.886  21.376  0.00  0.00    +0.000 C 
ATOM      4  C   UNL     1       3.582   2.354  20.234  0.00  0.00    +0.000 C 
ATOM      5  C   UNL     1       2.584   2.195  19.072  0.00  0.00    +0.000 C 
ATOM      6  C   UNL     1       1.249   2.564  19.721  0.00  0.00    +0.000 C 
ATOM      7  C   UNL     1       0.819   4.038  19.681  0.00  0.00    +0.000 C 
ATOM      8  O   UNL     1       1.462   2.260  21.123  0.00  0.00    +0.000 OA
ENDROOT
BRANCH   5   9
ATOM      9  C   UNL     1       3.098   2.907  17.830  0.00  0.00    +0.000 C 
ATOM     10  O   UNL     1       2.316   3.120  16.899  0.00  0.00    +0.000 OA
ATOM     11  N   UNL     1       4.406   3.359  17.837  0.00  0.00    +0.000 N 
ATOM     12  H   UNL     1       5.039   2.999  18.541  0.00  0.00    +0.000 HD
BRANCH  11  13
ATOM     13  C   UNL     1       5.004   4.030  16.736  0.00  0.00    +0.000 A 
ATOM     14  C   UNL     1       5.669   3.361  15.711  0.00  0.00    +0.000 A 
ATOM     15  C   UNL     1       6.309   4.073  14.697  0.00  0.00    +0.000 A 
ATOM     16  C   UNL     1       6.248   5.455  14.735  0.00  0.00    +0.000 A 
ATOM     17  N   UNL     1       5.583   6.148  15.683  0.00  0.00    +0.000 NA
ATOM     18  C   UNL     1       4.971   5.421  16.652  0.00  0.00    +0.000 A 
ENDBRANCH  11  13
ENDBRANCH   5   9
BRANCH   1  19
ATOM     19  C   UNL     1       2.486   5.897  19.343  0.00  0.00    +0.000 C 
BRANCH  19  21
ATOM     20  C   UNL     1       2.061   8.258  18.450  0.00  0.00    +0.000 C 
ATOM     21  C   UNL     1       2.352   7.401  19.684  0.00  0.00    +0.000 C 
ATOM     22  C   UNL     1       1.291   7.628  20.761  0.00  0.00    +0.000 C 
ENDBRANCH  19  21
ENDBRANCH   1  19
TORSDOF 4
ENDMDL
MODEL 5
REMARK VINA RESULT:      -6.9      1.956      5.292
REMARK  Name = 
REMARK  6 active torsions:
REMARK  status: ('A' for Active; 'I' for Inactive)
REMARK    1  A    between atoms: C_1  and  C_2
REMARK    2  A    between atoms: C_2  and  C_3
REMARK    3  A    between atoms: C_2  and  C_4
REMARK    4  A    between atoms: C_4  and  N_5
REMARK    5  A    between atoms: C_9  and  C_10
REMARK    6  A    between atoms: N_12  and  C_13
REMARK                            x       y       z     vdW  Elec       q    Type
REMARK                         _______ _______ _______ _____ _____    ______ ____
ROOT
ATOM      1  N   UNL     1       1.760   4.867  19.373  0.00  0.00    +0.000 NA
ATOM      2  C   UNL     1       1.909   4.144  20.651  0.00  0.00    +0.000 C 
ATOM      3  C   UNL     1       2.369   2.661  20.554  0.00  0.00    +0.000 C 
ATOM      4  C   UNL     1       3.803   2.514  20.079  0.00  0.00    +0.000 C 
ATOM      5  C   UNL     1       3.692   2.540  18.543  0.00  0.00    +0.000 C 
ATOM      6  C   UNL     1       2.182   2.600  18.314  0.00  0.00    +0.000 C 
ATOM      7  C   UNL     1       1.527   3.987  18.227  0.00  0.00    +0.000 C 
ATOM      8  O   UNL     1       1.637   1.988  19.510  0.00  0.00    +0.000 OA
ENDROOT
BRANCH   5   9
ATOM      9  C   UNL     1       4.636   3.583  17.961  0.00  0.00    +0.000 C 
ATOM     10  O   UNL     1       4.799   3.623  16.739  0.00  0.00    +0.000 OA
ATOM     11  N   UNL     1       5.206   4.497  18.831  0.00  0.00    +0.000 N 
ATOM     12  H   UNL     1       5.180   4.301  19.824  0.00  0.00    +0.000 HD
BRANCH  11  13
ATOM     13  C   UNL     1       6.109   5.512  18.411  0.00  0.00    +0.000 A 
ATOM     14  C   UNL     1       7.331   5.745  19.036  0.00  0.00    +0.000 A 
ATOM     15  C   UNL     1       8.141   6.808  18.637  0.00  0.00    +0.000 A 
ATOM     16  C   UNL     1       7.700   7.606  17.596  0.00  0.00    +0.000 A 
ATOM     17  N   UNL     1       6.544   7.396  16.931  0.00  0.00    +0.000 NA
ATOM     18  C   UNL     1       5.784   6.352  17.347  0.00  0.00    +0.000 A 
ENDBRANCH  11  13
ENDBRANCH   5   9
BRANCH   1  19
ATOM     19  C   UNL     1       2.624   6.034  19.205  0.00  0.00    +0.000 C 
BRANCH  19  21
ATOM     20  C   UNL     1       1.694   8.117  20.367  0.00  0.00    +0.000 C 
ATOM     21  C   UNL     1       1.882   7.382  19.037  0.00  0.00    +0.000 C 
ATOM     22  C   UNL     1       2.592   8.279  18.022  0.00  0.00    +0.000 C 
ENDBRANCH  19  21
ENDBRANCH   1  19
TORSDOF 4
ENDMDL
MODEL 6
REMARK VINA RESULT:      -6.9      2.332      5.530
REMARK  Name = 
REMARK  6 active torsions:
REMARK  status: ('A' for Active; 'I' for Inactive)
REMARK    1  A    between atoms: C_1  and  C_2
REMARK    2  A    between atoms: C_2  and  C_3
REMARK    3  A    between atoms: C_2  and  C_4
REMARK    4  A    between atoms: C_4  and  N_5
REMARK    5  A    between atoms: C_9  and  C_10
REMARK    6  A    between atoms: N_12  and  C_13
REMARK                            x       y       z     vdW  Elec       q    Type
REMARK                         _______ _______ _______ _____ _____    ______ ____
ROOT
ATOM      1  N   UNL     1       1.865   4.985  20.392  0.00  0.00    +0.000 NA
ATOM      2  C   UNL     1       2.645   4.331  21.460  0.00  0.00    +0.000 C 
ATOM      3  C   UNL     1       2.713   2.778  21.413  0.00  0.00    +0.000 C 
ATOM      4  C   UNL     1       3.516   2.253  20.237  0.00  0.00    +0.000 C 
ATOM      5  C   UNL     1       2.500   2.206  19.081  0.00  0.00    +0.000 C 
ATOM      6  C   UNL     1       1.195   2.620  19.762  0.00  0.00    +0.000 C 
ATOM      7  C   UNL     1       0.849   4.117  19.796  0.00  0.00    +0.000 C 
ATOM      8  O   UNL     1       1.403   2.239  21.146  0.00  0.00    +0.000 OA
ENDROOT
BRANCH   5   9
ATOM      9  C   UNL     1       3.043   2.946  17.867  0.00  0.00    +0.000 C 
ATOM     10  O   UNL     1       2.274   3.215  16.941  0.00  0.00    +0.000 OA
ATOM     11  N   UNL     1       4.364   3.358  17.898  0.00  0.00    +0.000 N 
ATOM     12  H   UNL     1       4.981   2.954  18.592  0.00  0.00    +0.000 HD
BRANCH  11  13
ATOM     13  C   UNL     1       4.989   4.049  16.824  0.00  0.00    +0.000 A 
ATOM     14  C   UNL     1       4.844   5.419  16.618  0.00  0.00    +0.000 A 
ATOM     15  C   UNL     1       5.411   6.032  15.502  0.00  0.00    +0.000 A 
ATOM     16  C   UNL     1       6.132   5.244  14.622  0.00  0.00    +0.000 A 
ATOM     17  N   UNL     1       6.336   3.921  14.800  0.00  0.00    +0.000 NA
ATOM     18  C   UNL     1       5.770   3.360  15.898  0.00  0.00    +0.000 A 
ENDBRANCH  11  13
ENDBRANCH   5   9
BRANCH   1  19
ATOM     19  C   UNL     1       2.618   5.891  19.526  0.00  0.00    +0.000 C 
BRANCH  19  21
ATOM     20  C   UNL     1       1.673   8.091  20.432  0.00  0.00    +0.000 C 
ATOM     21  C   UNL     1       1.906   7.224  19.192  0.00  0.00    +0.000 C 
ATOM     22  C   UNL     1       2.670   8.005  18.123  0.00  0.00    +0.000 C 
ENDBRANCH  19  21
ENDBRANCH   1  19
TORSDOF 4
ENDMDL
MODEL 7
REMARK VINA RESULT:      -6.8      2.131      5.423
REMARK  Name = 
REMARK  6 active torsions:
REMARK  status: ('A' for Active; 'I' for Inactive)
REMARK    1  A    between atoms: C_1  and  C_2
REMARK    2  A    between atoms: C_2  and  C_3
REMARK    3  A    between atoms: C_2  and  C_4
REMARK    4  A    between atoms: C_4  and  N_5
REMARK    5  A    between atoms: C_9  and  C_10
REMARK    6  A    between atoms: N_12  and  C_13
REMARK                            x       y       z     vdW  Elec       q    Type
REMARK                         _______ _______ _______ _____ _____    ______ ____
ROOT
ATOM      1  N   UNL     1       2.134   5.186  20.372  0.00  0.00    +0.000 NA
ATOM      2  C   UNL     1       2.654   4.354  21.475  0.00  0.00    +0.000 C 
ATOM      3  C   UNL     1       2.462   2.817  21.328  0.00  0.00    +0.000 C 
ATOM      4  C   UNL     1       3.303   2.216  20.218  0.00  0.00    +0.000 C 
ATOM      5  C   UNL     1       2.444   2.406  18.954  0.00  0.00    +0.000 C 
ATOM      6  C   UNL     1       1.155   3.011  19.510  0.00  0.00    +0.000 C 
ATOM      7  C   UNL     1       1.067   4.542  19.607  0.00  0.00    +0.000 C 
ATOM      8  O   UNL     1       1.122   2.533  20.878  0.00  0.00    +0.000 OA
ENDROOT
BRANCH   5   9
ATOM      9  C   UNL     1       3.250   3.095  17.863  0.00  0.00    +0.000 C 
ATOM     10  O   UNL     1       2.658   3.543  16.877  0.00  0.00    +0.000 OA
ATOM     11  N   UNL     1       4.609   3.262  18.070  0.00  0.00    +0.000 N 
ATOM     12  H   UNL     1       5.058   2.721  18.799  0.00  0.00    +0.000 HD
BRANCH  11  13
ATOM     13  C   UNL     1       5.470   3.882  17.123  0.00  0.00    +0.000 A 
ATOM     14  C   UNL     1       5.302   3.752  15.747  0.00  0.00    +0.000 A 
ATOM     15  C   UNL     1       6.224   4.313  14.864  0.00  0.00    +0.000 A 
ATOM     16  C   UNL     1       7.293   5.012  15.397  0.00  0.00    +0.000 A 
ATOM     17  N   UNL     1       7.477   5.200  16.721  0.00  0.00    +0.000 NA
ATOM     18  C   UNL     1       6.559   4.641  17.549  0.00  0.00    +0.000 A 
ENDBRANCH  11  13
ENDBRANCH   5   9
BRANCH   1  19
ATOM     19  C   UNL     1       3.132   5.985  19.662  0.00  0.00    +0.000 C 
BRANCH  19  21
ATOM     20  C   UNL     1       1.974   8.142  18.911  0.00  0.00    +0.000 C 
ATOM     21  C   UNL     1       2.586   6.809  18.471  0.00  0.00    +0.000 C 
ATOM     22  C   UNL     1       3.668   7.036  17.415  0.00  0.00    +0.000 C 
ENDBRANCH  19  21
ENDBRANCH   1  19
TORSDOF 4
ENDMDL
MODEL 8
REMARK VINA RESULT:      -6.7      2.248      5.366
REMARK  Name = 
REMARK  6 active torsions:
REMARK  status: ('A' for Active; 'I' for Inactive)
REMARK    1  A    between atoms: C_1  and  C_2
REMARK    2  A    between atoms: C_2  and  C_3
REMARK    3  A    between atoms: C_2  and  C_4
REMARK    4  A    between atoms: C_4  and  N_5
REMARK    5  A    between atoms: C_9  and  C_10
REMARK    6  A    between atoms: N_12  and  C_13
REMARK                            x       y       z     vdW  Elec       q    Type
REMARK                         _______ _______ _______ _____ _____    ______ ____
ROOT
ATOM      1  N   UNL     1       1.443   4.790  19.151  0.00  0.00    +0.000 NA
ATOM      2  C   UNL     1       1.964   5.010  20.514  0.00  0.00    +0.000 C 
ATOM      3  C   UNL     1       2.491   3.752  21.262  0.00  0.00    +0.000 C 
ATOM      4  C   UNL     1       3.763   3.188  20.656  0.00  0.00    +0.000 C 
ATOM      5  C   UNL     1       3.263   2.264  19.531  0.00  0.00    +0.000 C 
ATOM      6  C   UNL     1       1.744   2.329  19.690  0.00  0.00    +0.000 C 
ATOM      7  C   UNL     1       0.990   3.419  18.913  0.00  0.00    +0.000 C 
ATOM      8  O   UNL     1       1.567   2.658  21.091  0.00  0.00    +0.000 OA
ENDROOT
BRANCH   5   9
ATOM      9  C   UNL     1       3.949   2.608  18.217  0.00  0.00    +0.000 C 
ATOM     10  O   UNL     1       3.611   2.008  17.193  0.00  0.00    +0.000 OA
ATOM     11  N   UNL     1       4.868   3.644  18.218  0.00  0.00    +0.000 N 
ATOM     12  H   UNL     1       5.231   3.968  19.107  0.00  0.00    +0.000 HD
BRANCH  11  13
ATOM     13  C   UNL     1       5.580   4.054  17.058  0.00  0.00    +0.000 A 
ATOM     14  C   UNL     1       4.987   4.155  15.802  0.00  0.00    +0.000 A 
ATOM     15  C   UNL     1       5.751   4.483  14.682  0.00  0.00    +0.000 A 
ATOM     16  C   UNL     1       7.103   4.719  14.863  0.00  0.00    +0.000 A 
ATOM     17  N   UNL     1       7.715   4.674  16.065  0.00  0.00    +0.000 NA
ATOM     18  C   UNL     1       6.939   4.354  17.132  0.00  0.00    +0.000 A 
ENDBRANCH  11  13
ENDBRANCH   5   9
BRANCH   1  19
ATOM     19  C   UNL     1       2.150   5.497  18.084  0.00  0.00    +0.000 C 
BRANCH  19  21
ATOM     20  C   UNL     1       4.094   7.112  17.676  0.00  0.00    +0.000 C 
ATOM     21  C   UNL     1       2.851   6.807  18.517  0.00  0.00    +0.000 C 
ATOM     22  C   UNL     1       1.880   7.987  18.492  0.00  0.00    +0.000 C 
ENDBRANCH  19  21
ENDBRANCH   1  19
TORSDOF 4
ENDMDL
MODEL 9
REMARK VINA RESULT:      -6.7      1.802      5.435
REMARK  Name = 
REMARK  6 active torsions:
REMARK  status: ('A' for Active; 'I' for Inactive)
REMARK    1  A    between atoms: C_1  and  C_2
REMARK    2  A    between atoms: C_2  and  C_3
REMARK    3  A    between atoms: C_2  and  C_4
REMARK    4  A    between atoms: C_4  and  N_5
REMARK    5  A    between atoms: C_9  and  C_10
REMARK    6  A    between atoms: N_12  and  C_13
REMARK                            x       y       z     vdW  Elec       q    Type
REMARK                         _______ _______ _______ _____ _____    ______ ____
ROOT
ATOM      1  N   UNL     1       1.773   4.904  19.822  0.00  0.00    +0.000 NA
ATOM      2  C   UNL     1       1.981   4.446  21.209  0.00  0.00    +0.000 C 
ATOM      3  C   UNL     1       2.375   2.951  21.390  0.00  0.00    +0.000 C 
ATOM      4  C   UNL     1       3.765   2.636  20.871  0.00  0.00    +0.000 C 
ATOM      5  C   UNL     1       3.550   2.358  19.371  0.00  0.00    +0.000 C 
ATOM      6  C   UNL     1       2.031   2.451  19.225  0.00  0.00    +0.000 C 
ATOM      7  C   UNL     1       1.427   3.825  18.896  0.00  0.00    +0.000 C 
ATOM      8  O   UNL     1       1.546   2.122  20.552  0.00  0.00    +0.000 OA
ENDROOT
BRANCH   5   9
ATOM      9  C   UNL     1       4.492   3.211  18.534  0.00  0.00    +0.000 C 
ATOM     10  O   UNL     1       5.460   3.744  19.082  0.00  0.00    +0.000 OA
ATOM     11  N   UNL     1       4.262   3.282  17.171  0.00  0.00    +0.000 N 
ATOM     12  H   UNL     1       3.363   2.980  16.815  0.00  0.00    +0.000 HD
BRANCH  11  13
ATOM     13  C   UNL     1       5.064   4.051  16.284  0.00  0.00    +0.000 A 
ATOM     14  C   UNL     1       5.874   3.478  15.306  0.00  0.00    +0.000 A 
ATOM     15  C   UNL     1       6.704   4.275  14.518  0.00  0.00    +0.000 A 
ATOM     16  C   UNL     1       6.684   5.642  14.727  0.00  0.00    +0.000 A 
ATOM     17  N   UNL     1       5.888   6.248  15.633  0.00  0.00    +0.000 NA
ATOM     18  C   UNL     1       5.093   5.441  16.380  0.00  0.00    +0.000 A 
ENDBRANCH  11  13
ENDBRANCH   5   9
BRANCH   1  19
ATOM     19  C   UNL     1       2.670   5.966  19.368  0.00  0.00    +0.000 C 
BRANCH  19  21
ATOM     20  C   UNL     1       1.719   8.187  20.214  0.00  0.00    +0.000 C 
ATOM     21  C   UNL     1       1.975   7.298  18.995  0.00  0.00    +0.000 C 
ATOM     22  C   UNL     1       2.771   8.056  17.933  0.00  0.00    +0.000 C 
ENDBRANCH  19  21
ENDBRANCH   1  19
TORSDOF 4
ENDMDL
