MODEL 1
REMARK VINA RESULT:      -7.3      0.000      0.000
REMARK  Name = 
REMARK  3 active torsions:
REMARK  status: ('A' for Active; 'I' for Inactive)
REMARK    1  A    between atoms: C_1  and  C_2
REMARK    2  A    between atoms: C_8  and  C_9
REMARK    3  A    between atoms: C_12  and  C_13
REMARK                            x       y       z     vdW  Elec       q    Type
REMARK                         _______ _______ _______ _____ _____    ______ ____
ROOT
ATOM      1  C   UNL     1       5.034   3.253  12.916  0.00  0.00    +0.000 C 
ATOM      2  C   UNL     1       5.995   4.136  13.660  0.00  0.00    +0.000 A 
ATOM      3  C   UNL     1       7.069   4.667  13.058  0.00  0.00    +0.000 A 
ATOM      4  C   UNL     1       8.030   5.537  13.748  0.00  0.00    +0.000 A 
ATOM      5  O   UNL     1       8.987   6.012  13.150  0.00  0.00    +0.000 OA
ATOM      6  O   UNL     1       7.800   5.776  15.092  0.00  0.00    +0.000 OA
ATOM      7  C   UNL     1       6.647   5.290  15.763  0.00  0.00    +0.000 A 
ATOM      8  C   UNL     1       6.466   5.704  17.103  0.00  0.00    +0.000 A 
ATOM      9  C   UNL     1       7.466   6.537  17.842  0.00  0.00    +0.000 C 
ATOM     10  C   UNL     1       5.259   5.281  17.675  0.00  0.00    +0.000 A 
ATOM     11  O   UNL     1       4.793   5.627  18.918  0.00  0.00    +0.000 OA
ATOM     12  C   UNL     1       3.557   5.050  19.064  0.00  0.00    +0.000 A 
ATOM     13  C   UNL     1       3.274   4.292  17.956  0.00  0.00    +0.000 A 
ATOM     14 BR   UNL     1       1.731   3.276  17.630  0.00  0.00    +0.000 Br
ATOM     15  C   UNL     1       4.337   4.457  17.043  0.00  0.00    +0.000 A 
ATOM     16  C   UNL     1       4.603   4.009  15.738  0.00  0.00    +0.000 A 
ATOM     17  C   UNL     1       5.745   4.467  15.070  0.00  0.00    +0.000 A 
ENDROOT
BRANCH  12  18
ATOM     18  C   UNL     1       2.805   5.352  20.295  0.00  0.00    +0.000 C 
ATOM     19 BR   UNL     1       2.374   3.667  21.176  0.00  0.00    +0.000 Br
ENDBRANCH  12  18
TORSDOF 1
ENDMDL
MODEL 2
REMARK VINA RESULT:      -7.0      4.205      6.195
REMARK  Name = 
REMARK  3 active torsions:
REMARK  status: ('A' for Active; 'I' for Inactive)
REMARK    1  A    between atoms: C_1  and  C_2
REMARK    2  A    between atoms: C_8  and  C_9
REMARK    3  A    between atoms: C_12  and  C_13
REMARK                            x       y       z     vdW  Elec       q    Type
REMARK                         _______ _______ _______ _____ _____    ______ ____
ROOT
ATOM      1  C   UNL     1       1.409   3.043  21.686  0.00  0.00    +0.000 C 
ATOM      2  C   UNL     1       2.196   3.335  20.440  0.00  0.00    +0.000 A 
ATOM      3  C   UNL     1       2.757   2.354  19.719  0.00  0.00    +0.000 A 
ATOM      4  C   UNL     1       3.530   2.596  18.494  0.00  0.00    +0.000 A 
ATOM      5  O   UNL     1       4.009   1.664  17.860  0.00  0.00    +0.000 OA
ATOM      6  O   UNL     1       3.690   3.917  18.111  0.00  0.00    +0.000 OA
ATOM      7  C   UNL     1       3.067   4.989  18.802  0.00  0.00    +0.000 A 
ATOM      8  C   UNL     1       3.208   6.279  18.240  0.00  0.00    +0.000 A 
ATOM      9  C   UNL     1       4.044   6.555  17.029  0.00  0.00    +0.000 C 
ATOM     10  C   UNL     1       2.482   7.277  18.905  0.00  0.00    +0.000 A 
ATOM     11  O   UNL     1       2.365   8.585  18.511  0.00  0.00    +0.000 OA
ATOM     12  C   UNL     1       1.526   9.204  19.401  0.00  0.00    +0.000 A 
ATOM     13  C   UNL     1       1.172   8.318  20.387  0.00  0.00    +0.000 A 
ATOM     14 BR   UNL     1       0.059   8.635  21.863  0.00  0.00    +0.000 Br
ATOM     15  C   UNL     1       1.747   7.071  20.066  0.00  0.00    +0.000 A 
ATOM     16  C   UNL     1       1.704   5.783  20.627  0.00  0.00    +0.000 A 
ATOM     17  C   UNL     1       2.329   4.719  19.965  0.00  0.00    +0.000 A 
ENDROOT
BRANCH  12  18
ATOM     18  C   UNL     1       1.169  10.610  19.137  0.00  0.00    +0.000 C 
ATOM     19 BR   UNL     1      -0.684  10.667  18.535  0.00  0.00    +0.000 Br
ENDBRANCH  12  18
TORSDOF 1
ENDMDL
MODEL 3
REMARK VINA RESULT:      -6.5      4.471      6.342
REMARK  Name = 
REMARK  3 active torsions:
REMARK  status: ('A' for Active; 'I' for Inactive)
REMARK    1  A    between atoms: C_1  and  C_2
REMARK    2  A    between atoms: C_8  and  C_9
REMARK    3  A    between atoms: C_12  and  C_13
REMARK                            x       y       z     vdW  Elec       q    Type
REMARK                         _______ _______ _______ _____ _____    ______ ____
ROOT
ATOM      1  C   UNL     1       1.898   3.515  21.656  0.00  0.00    +0.000 C 
ATOM      2  C   UNL     1       2.504   3.975  20.361  0.00  0.00    +0.000 A 
ATOM      3  C   UNL     1       3.107   3.117  19.526  0.00  0.00    +0.000 A 
ATOM      4  C   UNL     1       3.708   3.525  18.249  0.00  0.00    +0.000 A 
ATOM      5  O   UNL     1       4.233   2.700  17.511  0.00  0.00    +0.000 OA
ATOM      6  O   UNL     1       3.656   4.874  17.940  0.00  0.00    +0.000 OA
ATOM      7  C   UNL     1       2.978   5.815  18.758  0.00  0.00    +0.000 A 
ATOM      8  C   UNL     1       2.893   7.140  18.271  0.00  0.00    +0.000 A 
ATOM      9  C   UNL     1       3.553   7.588  17.005  0.00  0.00    +0.000 C 
ATOM     10  C   UNL     1       2.120   7.995  19.069  0.00  0.00    +0.000 A 
ATOM     11  O   UNL     1       1.795   9.295  18.775  0.00  0.00    +0.000 OA
ATOM     12  C   UNL     1       0.983   9.748  19.782  0.00  0.00    +0.000 A 
ATOM     13  C   UNL     1       0.852   8.772  20.738  0.00  0.00    +0.000 A 
ATOM     14 BR   UNL     1      -0.130   8.859  22.334  0.00  0.00    +0.000 Br
ATOM     15  C   UNL     1       1.544   7.632  20.280  0.00  0.00    +0.000 A 
ATOM     16  C   UNL     1       1.726   6.322  20.756  0.00  0.00    +0.000 A 
ATOM     17  C   UNL     1       2.408   5.388  19.968  0.00  0.00    +0.000 A 
ENDROOT
BRANCH  12  18
ATOM     18  C   UNL     1       0.423  11.105  19.648  0.00  0.00    +0.000 C 
ATOM     19 BR   UNL     1       1.749  12.229  18.767  0.00  0.00    +0.000 Br
ENDBRANCH  12  18
TORSDOF 1
ENDMDL
MODEL 4
REMARK VINA RESULT:      -6.4      4.305      7.123
REMARK  Name = 
REMARK  3 active torsions:
REMARK  status: ('A' for Active; 'I' for Inactive)
REMARK    1  A    between atoms: C_1  and  C_2
REMARK    2  A    between atoms: C_8  and  C_9
REMARK    3  A    between atoms: C_12  and  C_13
REMARK                            x       y       z     vdW  Elec       q    Type
REMARK                         _______ _______ _______ _____ _____    ______ ____
ROOT
ATOM      1  C   UNL     1      -0.397   8.589  22.329  0.00  0.00    +0.000 C 
ATOM      2  C   UNL     1       0.342   9.014  21.092  0.00  0.00    +0.000 A 
ATOM      3  C   UNL     1       0.311  10.282  20.658  0.00  0.00    +0.000 A 
ATOM      4  C   UNL     1       1.023  10.739  19.457  0.00  0.00    +0.000 A 
ATOM      5  O   UNL     1       0.977  11.913  19.111  0.00  0.00    +0.000 OA
ATOM      6  O   UNL     1       1.726   9.780  18.749  0.00  0.00    +0.000 OA
ATOM      7  C   UNL     1       1.843   8.438  19.196  0.00  0.00    +0.000 A 
ATOM      8  C   UNL     1       2.688   7.586  18.448  0.00  0.00    +0.000 A 
ATOM      9  C   UNL     1       3.370   8.017  17.187  0.00  0.00    +0.000 C 
ATOM     10  C   UNL     1       2.848   6.308  19.000  0.00  0.00    +0.000 A 
ATOM     11  O   UNL     1       3.687   5.329  18.533  0.00  0.00    +0.000 OA
ATOM     12  C   UNL     1       3.583   4.263  19.389  0.00  0.00    +0.000 A 
ATOM     13  C   UNL     1       2.639   4.536  20.346  0.00  0.00    +0.000 A 
ATOM     14 BR   UNL     1       2.083   3.427  21.754  0.00  0.00    +0.000 Br
ATOM     15  C   UNL     1       2.184   5.854  20.132  0.00  0.00    +0.000 A 
ATOM     16  C   UNL     1       1.293   6.717  20.794  0.00  0.00    +0.000 A 
ATOM     17  C   UNL     1       1.155   8.038  20.353  0.00  0.00    +0.000 A 
ENDROOT
BRANCH  12  18
ATOM     18  C   UNL     1       4.464   3.106  19.147  0.00  0.00    +0.000 C 
ATOM     19 BR   UNL     1       3.408   1.696  18.314  0.00  0.00    +0.000 Br
ENDBRANCH  12  18
TORSDOF 1
ENDMDL
MODEL 5
REMARK VINA RESULT:      -6.2      3.089      6.734
REMARK  Name = 
REMARK  3 active torsions:
REMARK  status: ('A' for Active; 'I' for Inactive)
REMARK    1  A    between atoms: C_1  and  C_2
REMARK    2  A    between atoms: C_8  and  C_9
REMARK    3  A    between atoms: C_12  and  C_13
REMARK                            x       y       z     vdW  Elec       q    Type
REMARK                         _______ _______ _______ _____ _____    ______ ____
ROOT
ATOM      1  C   UNL     1       2.054   7.035  20.028  0.00  0.00    +0.000 C 
ATOM      2  C   UNL     1       2.184   5.538  20.048  0.00  0.00    +0.000 A 
ATOM      3  C   UNL     1       1.490   4.786  20.913  0.00  0.00    +0.000 A 
ATOM      4  C   UNL     1       1.584   3.321  20.962  0.00  0.00    +0.000 A 
ATOM      5  O   UNL     1       0.916   2.676  21.761  0.00  0.00    +0.000 OA
ATOM      6  O   UNL     1       2.465   2.725  20.076  0.00  0.00    +0.000 OA
ATOM      7  C   UNL     1       3.178   3.467  19.098  0.00  0.00    +0.000 A 
ATOM      8  C   UNL     1       3.952   2.728  18.174  0.00  0.00    +0.000 A 
ATOM      9  C   UNL     1       4.112   1.242  18.248  0.00  0.00    +0.000 C 
ATOM     10  C   UNL     1       4.543   3.507  17.170  0.00  0.00    +0.000 A 
ATOM     11  O   UNL     1       5.257   3.032  16.099  0.00  0.00    +0.000 OA
ATOM     12  C   UNL     1       5.606   4.114  15.332  0.00  0.00    +0.000 A 
ATOM     13  C   UNL     1       5.181   5.265  15.946  0.00  0.00    +0.000 A 
ATOM     14 BR   UNL     1       5.404   7.029  15.348  0.00  0.00    +0.000 Br
ATOM     15  C   UNL     1       4.469   4.892  17.105  0.00  0.00    +0.000 A 
ATOM     16  C   UNL     1       3.751   5.585  18.095  0.00  0.00    +0.000 A 
ATOM     17  C   UNL     1       3.057   4.866  19.076  0.00  0.00    +0.000 A 
ENDROOT
BRANCH  12  18
ATOM     18  C   UNL     1       6.310   3.852  14.064  0.00  0.00    +0.000 C 
ATOM     19 BR   UNL     1       4.977   3.493  12.688  0.00  0.00    +0.000 Br
ENDBRANCH  12  18
TORSDOF 1
ENDMDL
MODEL 6
REMARK VINA RESULT:      -6.2      3.883      5.531
REMARK  Name = 
REMARK  3 active torsions:
REMARK  status: ('A' for Active; 'I' for Inactive)
REMARK    1  A    between atoms: C_1  and  C_2
REMARK    2  A    between atoms: C_8  and  C_9
REMARK    3  A    between atoms: C_12  and  C_13
REMARK                            x       y       z     vdW  Elec       q    Type
REMARK                         _______ _______ _______ _____ _____    ______ ____
ROOT
ATOM      1  C   UNL     1       5.059   6.609  15.978  0.00  0.00    +0.000 C 
ATOM      2  C   UNL     1       4.583   5.769  17.129  0.00  0.00    +0.000 A 
ATOM      3  C   UNL     1       5.082   4.547  17.360  0.00  0.00    +0.000 A 
ATOM      4  C   UNL     1       4.647   3.697  18.476  0.00  0.00    +0.000 A 
ATOM      5  O   UNL     1       5.147   2.594  18.655  0.00  0.00    +0.000 OA
ATOM      6  O   UNL     1       3.650   4.205  19.292  0.00  0.00    +0.000 OA
ATOM      7  C   UNL     1       3.129   5.515  19.130  0.00  0.00    +0.000 A 
ATOM      8  C   UNL     1       2.202   5.959  20.101  0.00  0.00    +0.000 A 
ATOM      9  C   UNL     1       1.699   5.085  21.207  0.00  0.00    +0.000 C 
ATOM     10  C   UNL     1       1.808   7.295  19.949  0.00  0.00    +0.000 A 
ATOM     11  O   UNL     1       1.002   7.998  20.807  0.00  0.00    +0.000 OA
ATOM     12  C   UNL     1       0.914   9.279  20.324  0.00  0.00    +0.000 A 
ATOM     13  C   UNL     1       1.598   9.367  19.138  0.00  0.00    +0.000 A 
ATOM     14 BR   UNL     1       1.793  10.876  18.040  0.00  0.00    +0.000 Br
ATOM     15  C   UNL     1       2.205   8.116  18.901  0.00  0.00    +0.000 A 
ATOM     16  C   UNL     1       3.067   7.600  17.918  0.00  0.00    +0.000 A 
ATOM     17  C   UNL     1       3.574   6.302  18.056  0.00  0.00    +0.000 A 
ENDROOT
BRANCH  12  18
ATOM     18  C   UNL     1       0.166  10.261  21.129  0.00  0.00    +0.000 C 
ATOM     19 BR   UNL     1      -0.074   9.529  22.919  0.00  0.00    +0.000 Br
ENDBRANCH  12  18
TORSDOF 1
ENDMDL
MODEL 7
REMARK VINA RESULT:      -6.1      8.832     10.637
REMARK  Name = 
REMARK  3 active torsions:
REMARK  status: ('A' for Active; 'I' for Inactive)
REMARK    1  A    between atoms: C_1  and  C_2
REMARK    2  A    between atoms: C_8  and  C_9
REMARK    3  A    between atoms: C_12  and  C_13
REMARK                            x       y       z     vdW  Elec       q    Type
REMARK                         _______ _______ _______ _____ _____    ______ ____
ROOT
ATOM      1  C   UNL     1       9.217   9.882  19.072  0.00  0.00    +0.000 C 
ATOM      2  C   UNL     1       9.881  11.220  18.915  0.00  0.00    +0.000 A 
ATOM      3  C   UNL     1      10.476  11.577  17.768  0.00  0.00    +0.000 A 
ATOM      4  C   UNL     1      11.133  12.877  17.572  0.00  0.00    +0.000 A 
ATOM      5  O   UNL     1      11.647  13.163  16.498  0.00  0.00    +0.000 OA
ATOM      6  O   UNL     1      11.143  13.738  18.656  0.00  0.00    +0.000 OA
ATOM      7  C   UNL     1      10.477  13.435  19.873  0.00  0.00    +0.000 A 
ATOM      8  C   UNL     1      10.460  14.448  20.860  0.00  0.00    +0.000 A 
ATOM      9  C   UNL     1      11.177  15.752  20.703  0.00  0.00    +0.000 C 
ATOM     10  C   UNL     1       9.696  14.132  21.991  0.00  0.00    +0.000 A 
ATOM     11  O   UNL     1       9.433  14.971  23.044  0.00  0.00    +0.000 OA
ATOM     12  C   UNL     1       8.607  14.294  23.906  0.00  0.00    +0.000 A 
ATOM     13  C   UNL     1       8.408  13.019  23.440  0.00  0.00    +0.000 A 
ATOM     14 BR   UNL     1       7.380  11.662  24.228  0.00  0.00    +0.000 Br
ATOM     15  C   UNL     1       9.069  12.910  22.199  0.00  0.00    +0.000 A 
ATOM     16  C   UNL     1       9.183  11.909  21.219  0.00  0.00    +0.000 A 
ATOM     17  C   UNL     1       9.853  12.187  20.022  0.00  0.00    +0.000 A 
ENDROOT
BRANCH  12  18
ATOM     18  C   UNL     1       8.106  15.025  25.084  0.00  0.00    +0.000 C 
ATOM     19 BR   UNL     1       9.223  14.561  26.612  0.00  0.00    +0.000 Br
ENDBRANCH  12  18
TORSDOF 1
ENDMDL
MODEL 8
REMARK VINA RESULT:      -6.0      4.587      8.205
REMARK  Name = 
REMARK  3 active torsions:
REMARK  status: ('A' for Active; 'I' for Inactive)
REMARK    1  A    between atoms: C_1  and  C_2
REMARK    2  A    between atoms: C_8  and  C_9
REMARK    3  A    between atoms: C_12  and  C_13
REMARK                            x       y       z     vdW  Elec       q    Type
REMARK                         _______ _______ _______ _____ _____    ______ ____
ROOT
ATOM      1  C   UNL     1      -0.286   9.121  23.347  0.00  0.00    +0.000 C 
ATOM      2  C   UNL     1       0.114   9.825  22.082  0.00  0.00    +0.000 A 
ATOM      3  C   UNL     1      -0.075  11.143  21.923  0.00  0.00    +0.000 A 
ATOM      4  C   UNL     1       0.306  11.870  20.705  0.00  0.00    +0.000 A 
ATOM      5  O   UNL     1       0.128  13.078  20.615  0.00  0.00    +0.000 OA
ATOM      6  O   UNL     1       0.857  11.120  19.680  0.00  0.00    +0.000 OA
ATOM      7  C   UNL     1       1.135   9.734  19.817  0.00  0.00    +0.000 A 
ATOM      8  C   UNL     1       1.809   9.109  18.743  0.00  0.00    +0.000 A 
ATOM      9  C   UNL     1       2.147   9.818  17.469  0.00  0.00    +0.000 C 
ATOM     10  C   UNL     1       2.152   7.772  18.982  0.00  0.00    +0.000 A 
ATOM     11  O   UNL     1       2.893   6.970  18.152  0.00  0.00    +0.000 OA
ATOM     12  C   UNL     1       3.044   5.762  18.783  0.00  0.00    +0.000 A 
ATOM     13  C   UNL     1       2.349   5.774  19.966  0.00  0.00    +0.000 A 
ATOM     14 BR   UNL     1       2.198   4.385  21.218  0.00  0.00    +0.000 Br
ATOM     15  C   UNL     1       1.801   7.064  20.125  0.00  0.00    +0.000 A 
ATOM     16  C   UNL     1       1.061   7.712  21.129  0.00  0.00    +0.000 A 
ATOM     17  C   UNL     1       0.764   9.074  20.999  0.00  0.00    +0.000 A 
ENDROOT
BRANCH  12  18
ATOM     18  C   UNL     1       3.889   4.750  18.124  0.00  0.00    +0.000 C 
ATOM     19 BR   UNL     1       2.725   3.389  17.355  0.00  0.00    +0.000 Br
ENDBRANCH  12  18
TORSDOF 1
ENDMDL
MODEL 9
REMARK VINA RESULT:      -6.0      4.023      5.477
REMARK  Name = 
REMARK  3 active torsions:
REMARK  status: ('A' for Active; 'I' for Inactive)
REMARK    1  A    between atoms: C_1  and  C_2
REMARK    2  A    between atoms: C_8  and  C_9
REMARK    3  A    between atoms: C_12  and  C_13
REMARK                            x       y       z     vdW  Elec       q    Type
REMARK                         _______ _______ _______ _____ _____    ______ ____
ROOT
ATOM      1  C   UNL     1       4.658   4.805  15.851  0.00  0.00    +0.000 C 
ATOM      2  C   UNL     1       4.113   4.069  17.042  0.00  0.00    +0.000 A 
ATOM      3  C   UNL     1       4.378   2.770  17.245  0.00  0.00    +0.000 A 
ATOM      4  C   UNL     1       3.868   2.016  18.398  0.00  0.00    +0.000 A 
ATOM      5  O   UNL     1       4.153   0.835  18.549  0.00  0.00    +0.000 OA
ATOM      6  O   UNL     1       3.054   2.705  19.281  0.00  0.00    +0.000 OA
ATOM      7  C   UNL     1       2.791   4.094  19.147  0.00  0.00    +0.000 A 
ATOM      8  C   UNL     1       2.045   4.705  20.181  0.00  0.00    +0.000 A 
ATOM      9  C   UNL     1       1.464   3.941  21.329  0.00  0.00    +0.000 C 
ATOM     10  C   UNL     1       1.912   6.094  20.047  0.00  0.00    +0.000 A 
ATOM     11  O   UNL     1       1.327   6.937  20.957  0.00  0.00    +0.000 OA
ATOM     12  C   UNL     1       1.457   8.213  20.470  0.00  0.00    +0.000 A 
ATOM     13  C   UNL     1       2.055   8.172  19.235  0.00  0.00    +0.000 A 
ATOM     14 BR   UNL     1       2.461   9.619  18.113  0.00  0.00    +0.000 Br
ATOM     15  C   UNL     1       2.383   6.827  18.966  0.00  0.00    +0.000 A 
ATOM     16  C   UNL     1       3.051   6.157  17.926  0.00  0.00    +0.000 A 
ATOM     17  C   UNL     1       3.301   4.784  18.036  0.00  0.00    +0.000 A 
ENDROOT
BRANCH  12  18
ATOM     18  C   UNL     1       0.980   9.319  21.320  0.00  0.00    +0.000 C 
ATOM     19 BR   UNL     1      -0.475  10.222  20.389  0.00  0.00    +0.000 Br
ENDBRANCH  12  18
TORSDOF 1
ENDMDL
