MODEL 1
REMARK VINA RESULT:      -7.1      0.000      0.000
REMARK  Name = 
REMARK  7 active torsions:
REMARK  status: ('A' for Active; 'I' for Inactive)
REMARK    1  A    between atoms: C_1  and  N_2
REMARK    2  A    between atoms: N_2  and  C_3
REMARK    3  A    between atoms: N_2  and  C_4
REMARK    4  A    between atoms: C_4  and  C_5
REMARK    5  A    between atoms: C_5  and  O_6
REMARK    6  A    between atoms: O_6  and  C_7
REMARK    7  A    between atoms: C_10  and  C_12
REMARK                            x       y       z     vdW  Elec       q    Type
REMARK                         _______ _______ _______ _____ _____    ______ ____
ROOT
ATOM      1  C   UNL     1       2.020   6.188  18.935  0.00  0.00    +0.000 C 
ATOM      2  C   UNL     1       3.142   5.637  18.045  0.00  0.00    +0.000 C 
ATOM      3  N   UNL     1       3.805   4.587  18.780  0.00  0.00    +0.000 N 
ATOM      4  C   UNL     1       5.039   4.014  18.518  0.00  0.00    +0.000 C 
ATOM      5  O   UNL     1       5.539   3.184  19.274  0.00  0.00    +0.000 OA
ATOM      6  C   UNL     1       2.997   4.192  19.917  0.00  0.00    +0.000 C 
ATOM      7  C   UNL     1       1.971   3.121  19.559  0.00  0.00    +0.000 C 
ATOM      8  O   UNL     1       0.702   3.529  20.089  0.00  0.00    +0.000 OA
ATOM      9  C   UNL     1       0.852   4.800  20.731  0.00  0.00    +0.000 C 
ATOM     10  C   UNL     1       2.156   5.412  20.259  0.00  0.00    +0.000 C 
ENDROOT
BRANCH   4  11
ATOM     11  C   UNL     1       5.821   4.427  17.309  0.00  0.00    +0.000 A 
ATOM     12  C   UNL     1       6.723   5.515  17.317  0.00  0.00    +0.000 A 
ATOM     13  C   UNL     1       7.452   5.865  16.175  0.00  0.00    +0.000 A 
ATOM     14  C   UNL     1       7.197   5.166  15.021  0.00  0.00    +0.000 A 
ATOM     15  C   UNL     1       6.284   4.142  14.978  0.00  0.00    +0.000 A 
ATOM     16  C   UNL     1       5.588   3.739  16.104  0.00  0.00    +0.000 A 
ATOM     17  O   UNL     1       6.164   3.607  13.738  0.00  0.00    +0.000 OA
ATOM     18  C   UNL     1       7.038   4.474  12.985  0.00  0.00    +0.000 C 
ATOM     19  O   UNL     1       7.767   5.405  13.810  0.00  0.00    +0.000 OA
ENDBRANCH   4  11
BRANCH   1  20
ATOM     20  O   UNL     1       2.187   7.601  19.157  0.00  0.00    +0.000 OA
BRANCH  20  21
ATOM     21  C   UNL     1       2.201   8.329  17.915  0.00  0.00    +0.000 C 
BRANCH  21  22
ATOM     22  C   UNL     1       1.673   9.760  18.093  0.00  0.00    +0.000 C 
BRANCH  22  24
ATOM     23  C   UNL     1       0.751  10.701  20.115  0.00  0.00    +0.000 C 
ATOM     24  N   UNL     1       0.481   9.830  18.968  0.00  0.00    +0.000 NA
ATOM     25  C   UNL     1      -0.707  10.320  18.262  0.00  0.00    +0.000 C 
ENDBRANCH  22  24
ENDBRANCH  21  22
ENDBRANCH  20  21
ENDBRANCH   1  20
TORSDOF 5
ENDMDL
MODEL 2
REMARK VINA RESULT:      -6.8      2.336      7.601
REMARK  Name = 
REMARK  7 active torsions:
REMARK  status: ('A' for Active; 'I' for Inactive)
REMARK    1  A    between atoms: C_1  and  N_2
REMARK    2  A    between atoms: N_2  and  C_3
REMARK    3  A    between atoms: N_2  and  C_4
REMARK    4  A    between atoms: C_4  and  C_5
REMARK    5  A    between atoms: C_5  and  O_6
REMARK    6  A    between atoms: O_6  and  C_7
REMARK    7  A    between atoms: C_10  and  C_12
REMARK                            x       y       z     vdW  Elec       q    Type
REMARK                         _______ _______ _______ _____ _____    ______ ____
ROOT
ATOM      1  C   UNL     1       5.949   6.113  16.426  0.00  0.00    +0.000 C 
ATOM      2  C   UNL     1       4.923   6.888  17.263  0.00  0.00    +0.000 C 
ATOM      3  N   UNL     1       4.549   6.051  18.378  0.00  0.00    +0.000 N 
ATOM      4  C   UNL     1       3.455   6.191  19.217  0.00  0.00    +0.000 C 
ATOM      5  O   UNL     1       3.193   5.356  20.080  0.00  0.00    +0.000 OA
ATOM      6  C   UNL     1       5.489   4.956  18.512  0.00  0.00    +0.000 C 
ATOM      7  C   UNL     1       6.700   5.329  19.362  0.00  0.00    +0.000 C 
ATOM      8  O   UNL     1       7.879   4.916  18.658  0.00  0.00    +0.000 OA
ATOM      9  C   UNL     1       7.495   4.334  17.406  0.00  0.00    +0.000 C 
ATOM     10  C   UNL     1       6.064   4.743  17.120  0.00  0.00    +0.000 C 
ENDROOT
BRANCH   4  11
ATOM     11  C   UNL     1       2.532   7.360  19.064  0.00  0.00    +0.000 A 
ATOM     12  C   UNL     1       2.387   8.066  17.848  0.00  0.00    +0.000 A 
ATOM     13  C   UNL     1       1.503   9.144  17.732  0.00  0.00    +0.000 A 
ATOM     14  C   UNL     1       0.841   9.546  18.866  0.00  0.00    +0.000 A 
ATOM     15  C   UNL     1       1.010   8.909  20.071  0.00  0.00    +0.000 A 
ATOM     16  C   UNL     1       1.836   7.808  20.202  0.00  0.00    +0.000 A 
ATOM     17  O   UNL     1       0.289   9.482  21.065  0.00  0.00    +0.000 OA
ATOM     18  C   UNL     1      -0.281  10.611  20.369  0.00  0.00    +0.000 C 
ATOM     19  O   UNL     1      -0.009  10.604  18.953  0.00  0.00    +0.000 OA
ENDBRANCH   4  11
BRANCH   1  20
ATOM     20  O   UNL     1       5.493   5.957  15.070  0.00  0.00    +0.000 OA
BRANCH  20  21
ATOM     21  C   UNL     1       5.471   4.571  14.679  0.00  0.00    +0.000 C 
BRANCH  21  22
ATOM     22  C   UNL     1       6.451   4.293  13.530  0.00  0.00    +0.000 C 
BRANCH  22  24
ATOM     23  C   UNL     1       4.745   3.551  11.993  0.00  0.00    +0.000 C 
ATOM     24  N   UNL     1       6.006   3.191  12.647  0.00  0.00    +0.000 NA
ATOM     25  C   UNL     1       6.999   2.856  11.622  0.00  0.00    +0.000 C 
ENDBRANCH  22  24
ENDBRANCH  21  22
ENDBRANCH  20  21
ENDBRANCH   1  20
TORSDOF 5
ENDMDL
MODEL 3
REMARK VINA RESULT:      -6.6      1.094      1.242
REMARK  Name = 
REMARK  7 active torsions:
REMARK  status: ('A' for Active; 'I' for Inactive)
REMARK    1  A    between atoms: C_1  and  N_2
REMARK    2  A    between atoms: N_2  and  C_3
REMARK    3  A    between atoms: N_2  and  C_4
REMARK    4  A    between atoms: C_4  and  C_5
REMARK    5  A    between atoms: C_5  and  O_6
REMARK    6  A    between atoms: O_6  and  C_7
REMARK    7  A    between atoms: C_10  and  C_12
REMARK                            x       y       z     vdW  Elec       q    Type
REMARK                         _______ _______ _______ _____ _____    ______ ____
ROOT
ATOM      1  C   UNL     1       2.023   6.125  19.114  0.00  0.00    +0.000 C 
ATOM      2  C   UNL     1       3.144   5.607  18.205  0.00  0.00    +0.000 C 
ATOM      3  N   UNL     1       3.770   4.493  18.876  0.00  0.00    +0.000 N 
ATOM      4  C   UNL     1       4.994   3.908  18.593  0.00  0.00    +0.000 C 
ATOM      5  O   UNL     1       5.462   3.017  19.298  0.00  0.00    +0.000 OA
ATOM      6  C   UNL     1       2.935   4.044  19.973  0.00  0.00    +0.000 C 
ATOM      7  C   UNL     1       1.889   3.025  19.529  0.00  0.00    +0.000 C 
ATOM      8  O   UNL     1       0.623   3.428  20.067  0.00  0.00    +0.000 OA
ATOM      9  C   UNL     1       0.793   4.650  20.796  0.00  0.00    +0.000 C 
ATOM     10  C   UNL     1       2.119   5.259  20.384  0.00  0.00    +0.000 C 
ENDROOT
BRANCH   4  11
ATOM     11  C   UNL     1       5.804   4.382  17.425  0.00  0.00    +0.000 A 
ATOM     12  C   UNL     1       6.699   5.472  17.508  0.00  0.00    +0.000 A 
ATOM     13  C   UNL     1       7.455   5.880  16.403  0.00  0.00    +0.000 A 
ATOM     14  C   UNL     1       7.235   5.234  15.212  0.00  0.00    +0.000 A 
ATOM     15  C   UNL     1       6.330   4.208  15.097  0.00  0.00    +0.000 A 
ATOM     16  C   UNL     1       5.607   3.749  16.184  0.00  0.00    +0.000 A 
ATOM     17  O   UNL     1       6.246   3.731  13.831  0.00  0.00    +0.000 OA
ATOM     18  C   UNL     1       7.133   4.636  13.142  0.00  0.00    +0.000 C 
ATOM     19  O   UNL     1       7.835   5.532  14.028  0.00  0.00    +0.000 OA
ENDBRANCH   4  11
BRANCH   1  20
ATOM     20  O   UNL     1       2.220   7.515  19.432  0.00  0.00    +0.000 OA
BRANCH  20  21
ATOM     21  C   UNL     1       1.486   7.893  20.612  0.00  0.00    +0.000 C 
BRANCH  21  22
ATOM     22  C   UNL     1       1.056   9.366  20.562  0.00  0.00    +0.000 C 
BRANCH  22  24
ATOM     23  C   UNL     1      -0.008   9.417  22.728  0.00  0.00    +0.000 C 
ATOM     24  N   UNL     1      -0.207   9.622  21.291  0.00  0.00    +0.000 NA
ATOM     25  C   UNL     1      -0.720  10.978  21.067  0.00  0.00    +0.000 C 
ENDBRANCH  22  24
ENDBRANCH  21  22
ENDBRANCH  20  21
ENDBRANCH   1  20
TORSDOF 5
ENDMDL
MODEL 4
REMARK VINA RESULT:      -6.6      1.300      1.929
REMARK  Name = 
REMARK  7 active torsions:
REMARK  status: ('A' for Active; 'I' for Inactive)
REMARK    1  A    between atoms: C_1  and  N_2
REMARK    2  A    between atoms: N_2  and  C_3
REMARK    3  A    between atoms: N_2  and  C_4
REMARK    4  A    between atoms: C_4  and  C_5
REMARK    5  A    between atoms: C_5  and  O_6
REMARK    6  A    between atoms: O_6  and  C_7
REMARK    7  A    between atoms: C_10  and  C_12
REMARK                            x       y       z     vdW  Elec       q    Type
REMARK                         _______ _______ _______ _____ _____    ______ ____
ROOT
ATOM      1  C   UNL     1       2.248   4.932  18.499  0.00  0.00    +0.000 C 
ATOM      2  C   UNL     1       3.356   4.527  17.519  0.00  0.00    +0.000 C 
ATOM      3  N   UNL     1       4.580   4.403  18.273  0.00  0.00    +0.000 N 
ATOM      4  C   UNL     1       5.877   4.355  17.787  0.00  0.00    +0.000 C 
ATOM      5  O   UNL     1       6.849   4.338  18.540  0.00  0.00    +0.000 OA
ATOM      6  C   UNL     1       4.286   4.363  19.692  0.00  0.00    +0.000 C 
ATOM      7  C   UNL     1       3.987   2.951  20.186  0.00  0.00    +0.000 C 
ATOM      8  O   UNL     1       2.789   3.001  20.972  0.00  0.00    +0.000 OA
ATOM      9  C   UNL     1       2.294   4.345  20.982  0.00  0.00    +0.000 C 
ATOM     10  C   UNL     1       2.965   5.099  19.851  0.00  0.00    +0.000 C 
ENDROOT
BRANCH   4  11
ATOM     11  C   UNL     1       6.131   4.360  16.311  0.00  0.00    +0.000 A 
ATOM     12  C   UNL     1       5.415   3.540  15.410  0.00  0.00    +0.000 A 
ATOM     13  C   UNL     1       5.663   3.580  14.033  0.00  0.00    +0.000 A 
ATOM     14  C   UNL     1       6.686   4.386  13.597  0.00  0.00    +0.000 A 
ATOM     15  C   UNL     1       7.430   5.148  14.463  0.00  0.00    +0.000 A 
ATOM     16  C   UNL     1       7.173   5.169  15.821  0.00  0.00    +0.000 A 
ATOM     17  O   UNL     1       8.407   5.845  13.830  0.00  0.00    +0.000 OA
ATOM     18  C   UNL     1       8.252   5.361  12.479  0.00  0.00    +0.000 C 
ATOM     19  O   UNL     1       7.103   4.506  12.308  0.00  0.00    +0.000 OA
ENDBRANCH   4  11
BRANCH   1  20
ATOM     20  O   UNL     1       1.633   6.170  18.095  0.00  0.00    +0.000 OA
BRANCH  20  21
ATOM     21  C   UNL     1       2.432   7.304  18.482  0.00  0.00    +0.000 C 
BRANCH  21  22
ATOM     22  C   UNL     1       1.837   8.619  17.960  0.00  0.00    +0.000 C 
BRANCH  22  24
ATOM     23  C   UNL     1       0.366  10.411  18.632  0.00  0.00    +0.000 C 
ATOM     24  N   UNL     1       1.489   9.566  19.044  0.00  0.00    +0.000 NA
ATOM     25  C   UNL     1       1.142   8.884  20.296  0.00  0.00    +0.000 C 
ENDBRANCH  22  24
ENDBRANCH  21  22
ENDBRANCH  20  21
ENDBRANCH   1  20
TORSDOF 5
ENDMDL
MODEL 5
REMARK VINA RESULT:      -6.5      0.916      1.133
REMARK  Name = 
REMARK  7 active torsions:
REMARK  status: ('A' for Active; 'I' for Inactive)
REMARK    1  A    between atoms: C_1  and  N_2
REMARK    2  A    between atoms: N_2  and  C_3
REMARK    3  A    between atoms: N_2  and  C_4
REMARK    4  A    between atoms: C_4  and  C_5
REMARK    5  A    between atoms: C_5  and  O_6
REMARK    6  A    between atoms: O_6  and  C_7
REMARK    7  A    between atoms: C_10  and  C_12
REMARK                            x       y       z     vdW  Elec       q    Type
REMARK                         _______ _______ _______ _____ _____    ______ ____
ROOT
ATOM      1  C   UNL     1       2.408   6.828  18.620  0.00  0.00    +0.000 C 
ATOM      2  C   UNL     1       3.396   6.078  17.718  0.00  0.00    +0.000 C 
ATOM      3  N   UNL     1       4.098   5.122  18.540  0.00  0.00    +0.000 N 
ATOM      4  C   UNL     1       5.270   4.444  18.244  0.00  0.00    +0.000 C 
ATOM      5  O   UNL     1       5.822   3.718  19.068  0.00  0.00    +0.000 OA
ATOM      6  C   UNL     1       3.413   4.962  19.808  0.00  0.00    +0.000 C 
ATOM      7  C   UNL     1       2.311   3.909  19.746  0.00  0.00    +0.000 C 
ATOM      8  O   UNL     1       1.130   4.469  20.335  0.00  0.00    +0.000 OA
ATOM      9  C   UNL     1       1.404   5.816  20.738  0.00  0.00    +0.000 C 
ATOM     10  C   UNL     1       2.666   6.268  20.031  0.00  0.00    +0.000 C 
ENDROOT
BRANCH   4  11
ATOM     11  C   UNL     1       5.921   4.612  16.905  0.00  0.00    +0.000 A 
ATOM     12  C   UNL     1       6.892   5.606  16.647  0.00  0.00    +0.000 A 
ATOM     13  C   UNL     1       7.495   5.726  15.390  0.00  0.00    +0.000 A 
ATOM     14  C   UNL     1       7.048   4.897  14.391  0.00  0.00    +0.000 A 
ATOM     15  C   UNL     1       6.066   3.962  14.607  0.00  0.00    +0.000 A 
ATOM     16  C   UNL     1       5.490   3.785  15.852  0.00  0.00    +0.000 A 
ATOM     17  O   UNL     1       5.753   3.271  13.483  0.00  0.00    +0.000 OA
ATOM     18  C   UNL     1       6.585   3.942  12.513  0.00  0.00    +0.000 C 
ATOM     19  O   UNL     1       7.477   4.912  13.100  0.00  0.00    +0.000 OA
ENDBRANCH   4  11
BRANCH   1  20
ATOM     20  O   UNL     1       2.655   8.246  18.585  0.00  0.00    +0.000 OA
BRANCH  20  21
ATOM     21  C   UNL     1       1.513   8.990  19.049  0.00  0.00    +0.000 C 
BRANCH  21  22
ATOM     22  C   UNL     1       0.634   9.461  17.883  0.00  0.00    +0.000 C 
BRANCH  22  24
ATOM     23  C   UNL     1      -1.626  10.215  17.494  0.00  0.00    +0.000 C 
ATOM     24  N   UNL     1      -0.420  10.413  18.303  0.00  0.00    +0.000 NA
ATOM     25  C   UNL     1      -0.767  10.278  19.721  0.00  0.00    +0.000 C 
ENDBRANCH  22  24
ENDBRANCH  21  22
ENDBRANCH  20  21
ENDBRANCH   1  20
TORSDOF 5
ENDMDL
MODEL 6
REMARK VINA RESULT:      -6.4      1.154      1.724
REMARK  Name = 
REMARK  7 active torsions:
REMARK  status: ('A' for Active; 'I' for Inactive)
REMARK    1  A    between atoms: C_1  and  N_2
REMARK    2  A    between atoms: N_2  and  C_3
REMARK    3  A    between atoms: N_2  and  C_4
REMARK    4  A    between atoms: C_4  and  C_5
REMARK    5  A    between atoms: C_5  and  O_6
REMARK    6  A    between atoms: O_6  and  C_7
REMARK    7  A    between atoms: C_10  and  C_12
REMARK                            x       y       z     vdW  Elec       q    Type
REMARK                         _______ _______ _______ _____ _____    ______ ____
ROOT
ATOM      1  C   UNL     1       2.417   7.092  18.373  0.00  0.00    +0.000 C 
ATOM      2  C   UNL     1       3.231   6.160  17.466  0.00  0.00    +0.000 C 
ATOM      3  N   UNL     1       4.060   5.340  18.315  0.00  0.00    +0.000 N 
ATOM      4  C   UNL     1       5.161   4.580  17.952  0.00  0.00    +0.000 C 
ATOM      5  O   UNL     1       5.843   3.991  18.787  0.00  0.00    +0.000 OA
ATOM      6  C   UNL     1       3.604   5.429  19.688  0.00  0.00    +0.000 C 
ATOM      7  C   UNL     1       2.503   4.421  20.003  0.00  0.00    +0.000 C 
ATOM      8  O   UNL     1       1.444   5.117  20.674  0.00  0.00    +0.000 OA
ATOM      9  C   UNL     1       1.789   6.503  20.776  0.00  0.00    +0.000 C 
ATOM     10  C   UNL     1       2.913   6.779  19.798  0.00  0.00    +0.000 C 
ENDROOT
BRANCH   4  11
ATOM     11  C   UNL     1       5.572   4.487  16.514  0.00  0.00    +0.000 A 
ATOM     12  C   UNL     1       4.922   3.643  15.586  0.00  0.00    +0.000 A 
ATOM     13  C   UNL     1       5.319   3.592  14.245  0.00  0.00    +0.000 A 
ATOM     14  C   UNL     1       6.417   4.330  13.881  0.00  0.00    +0.000 A 
ATOM     15  C   UNL     1       7.097   5.114  14.780  0.00  0.00    +0.000 A 
ATOM     16  C   UNL     1       6.696   5.225  16.099  0.00  0.00    +0.000 A 
ATOM     17  O   UNL     1       8.166   5.734  14.222  0.00  0.00    +0.000 OA
ATOM     18  C   UNL     1       8.137   5.176  12.891  0.00  0.00    +0.000 C 
ATOM     19  O   UNL     1       6.976   4.358  12.641  0.00  0.00    +0.000 OA
ENDBRANCH   4  11
BRANCH   1  20
ATOM     20  O   UNL     1       2.661   8.472  18.044  0.00  0.00    +0.000 OA
BRANCH  20  21
ATOM     21  C   UNL     1       1.429   9.200  17.886  0.00  0.00    +0.000 C 
BRANCH  21  22
ATOM     22  C   UNL     1       0.946   9.790  19.219  0.00  0.00    +0.000 C 
BRANCH  22  24
ATOM     23  C   UNL     1       0.176  12.032  18.765  0.00  0.00    +0.000 C 
ATOM     24  N   UNL     1      -0.242  10.660  19.068  0.00  0.00    +0.000 NA
ATOM     25  C   UNL     1      -1.151  10.193  18.016  0.00  0.00    +0.000 C 
ENDBRANCH  22  24
ENDBRANCH  21  22
ENDBRANCH  20  21
ENDBRANCH   1  20
TORSDOF 5
ENDMDL
MODEL 7
REMARK VINA RESULT:      -6.4      1.091      1.711
REMARK  Name = 
REMARK  7 active torsions:
REMARK  status: ('A' for Active; 'I' for Inactive)
REMARK    1  A    between atoms: C_1  and  N_2
REMARK    2  A    between atoms: N_2  and  C_3
REMARK    3  A    between atoms: N_2  and  C_4
REMARK    4  A    between atoms: C_4  and  C_5
REMARK    5  A    between atoms: C_5  and  O_6
REMARK    6  A    between atoms: O_6  and  C_7
REMARK    7  A    between atoms: C_10  and  C_12
REMARK                            x       y       z     vdW  Elec       q    Type
REMARK                         _______ _______ _______ _____ _____    ______ ____
ROOT
ATOM      1  C   UNL     1       2.265   6.186  18.396  0.00  0.00    +0.000 C 
ATOM      2  C   UNL     1       3.238   5.455  17.462  0.00  0.00    +0.000 C 
ATOM      3  N   UNL     1       4.284   4.889  18.280  0.00  0.00    +0.000 N 
ATOM      4  C   UNL     1       5.519   4.411  17.871  0.00  0.00    +0.000 C 
ATOM      5  O   UNL     1       6.364   4.033  18.679  0.00  0.00    +0.000 OA
ATOM      6  C   UNL     1       3.886   4.905  19.674  0.00  0.00    +0.000 C 
ATOM      7  C   UNL     1       3.083   3.668  20.065  0.00  0.00    +0.000 C 
ATOM      8  O   UNL     1       1.919   4.104  20.779  0.00  0.00    +0.000 OA
ATOM      9  C   UNL     1       1.916   5.535  20.839  0.00  0.00    +0.000 C 
ATOM     10  C   UNL     1       2.889   6.048  19.797  0.00  0.00    +0.000 C 
ENDROOT
BRANCH   4  11
ATOM     11  C   UNL     1       5.870   4.378  16.415  0.00  0.00    +0.000 A 
ATOM     12  C   UNL     1       5.235   3.515  15.495  0.00  0.00    +0.000 A 
ATOM     13  C   UNL     1       5.575   3.521  14.137  0.00  0.00    +0.000 A 
ATOM     14  C   UNL     1       6.606   4.337  13.745  0.00  0.00    +0.000 A 
ATOM     15  C   UNL     1       7.274   5.143  14.634  0.00  0.00    +0.000 A 
ATOM     16  C   UNL     1       6.925   5.197  15.972  0.00  0.00    +0.000 A 
ATOM     17  O   UNL     1       8.275   5.843  14.047  0.00  0.00    +0.000 OA
ATOM     18  C   UNL     1       8.223   5.316  12.705  0.00  0.00    +0.000 C 
ATOM     19  O   UNL     1       7.107   4.430  12.484  0.00  0.00    +0.000 OA
ENDBRANCH   4  11
BRANCH   1  20
ATOM     20  O   UNL     1       2.145   7.573  18.029  0.00  0.00    +0.000 OA
BRANCH  20  21
ATOM     21  C   UNL     1       1.829   8.392  19.170  0.00  0.00    +0.000 C 
BRANCH  21  22
ATOM     22  C   UNL     1       1.068   9.662  18.761  0.00  0.00    +0.000 C 
BRANCH  22  24
ATOM     23  C   UNL     1       0.455   9.451  21.086  0.00  0.00    +0.000 C 
ATOM     24  N   UNL     1       0.230  10.208  19.852  0.00  0.00    +0.000 NA
ATOM     25  C   UNL     1       0.493  11.629  20.106  0.00  0.00    +0.000 C 
ENDBRANCH  22  24
ENDBRANCH  21  22
ENDBRANCH  20  21
ENDBRANCH   1  20
TORSDOF 5
ENDMDL
MODEL 8
REMARK VINA RESULT:      -6.4      1.055      1.125
REMARK  Name = 
REMARK  7 active torsions:
REMARK  status: ('A' for Active; 'I' for Inactive)
REMARK    1  A    between atoms: C_1  and  N_2
REMARK    2  A    between atoms: N_2  and  C_3
REMARK    3  A    between atoms: N_2  and  C_4
REMARK    4  A    between atoms: C_4  and  C_5
REMARK    5  A    between atoms: C_5  and  O_6
REMARK    6  A    between atoms: O_6  and  C_7
REMARK    7  A    between atoms: C_10  and  C_12
REMARK                            x       y       z     vdW  Elec       q    Type
REMARK                         _______ _______ _______ _____ _____    ______ ____
ROOT
ATOM      1  C   UNL     1       1.860   5.034  18.236  0.00  0.00    +0.000 C 
ATOM      2  C   UNL     1       3.155   4.746  17.464  0.00  0.00    +0.000 C 
ATOM      3  N   UNL     1       4.158   4.361  18.427  0.00  0.00    +0.000 N 
ATOM      4  C   UNL     1       5.531   4.302  18.246  0.00  0.00    +0.000 C 
ATOM      5  O   UNL     1       6.294   4.044  19.175  0.00  0.00    +0.000 OA
ATOM      6  C   UNL     1       3.533   4.053  19.698  0.00  0.00    +0.000 C 
ATOM      7  C   UNL     1       3.075   2.600  19.784  0.00  0.00    +0.000 C 
ATOM      8  O   UNL     1       1.727   2.590  20.272  0.00  0.00    +0.000 OA
ATOM      9  C   UNL     1       1.292   3.940  20.471  0.00  0.00    +0.000 C 
ATOM     10  C   UNL     1       2.239   4.852  19.717  0.00  0.00    +0.000 C 
ENDROOT
BRANCH   4  11
ATOM     11  C   UNL     1       6.129   4.592  16.904  0.00  0.00    +0.000 A 
ATOM     12  C   UNL     1       6.927   5.731  16.653  0.00  0.00    +0.000 A 
ATOM     13  C   UNL     1       7.486   5.965  15.391  0.00  0.00    +0.000 A 
ATOM     14  C   UNL     1       7.162   5.092  14.383  0.00  0.00    +0.000 A 
ATOM     15  C   UNL     1       6.342   4.011  14.592  0.00  0.00    +0.000 A 
ATOM     16  C   UNL     1       5.819   3.725  15.840  0.00  0.00    +0.000 A 
ATOM     17  O   UNL     1       6.127   3.297  13.460  0.00  0.00    +0.000 OA
ATOM     18  C   UNL     1       6.829   4.106  12.493  0.00  0.00    +0.000 C 
ATOM     19  O   UNL     1       7.564   5.195  13.088  0.00  0.00    +0.000 OA
ENDBRANCH   4  11
BRANCH   1  20
ATOM     20  O   UNL     1       1.404   6.378  17.991  0.00  0.00    +0.000 OA
BRANCH  20  21
ATOM     21  C   UNL     1       2.272   7.347  18.607  0.00  0.00    +0.000 C 
BRANCH  21  22
ATOM     22  C   UNL     1       2.341   8.644  17.790  0.00  0.00    +0.000 C 
BRANCH  22  24
ATOM     23  C   UNL     1       1.017   9.396  19.663  0.00  0.00    +0.000 C 
ATOM     24  N   UNL     1       1.411   9.686  18.281  0.00  0.00    +0.000 NA
ATOM     25  C   UNL     1       1.991  11.032  18.221  0.00  0.00    +0.000 C 
ENDBRANCH  22  24
ENDBRANCH  21  22
ENDBRANCH  20  21
ENDBRANCH   1  20
TORSDOF 5
ENDMDL
MODEL 9
REMARK VINA RESULT:      -6.2      2.169      6.345
REMARK  Name = 
REMARK  7 active torsions:
REMARK  status: ('A' for Active; 'I' for Inactive)
REMARK    1  A    between atoms: C_1  and  N_2
REMARK    2  A    between atoms: N_2  and  C_3
REMARK    3  A    between atoms: N_2  and  C_4
REMARK    4  A    between atoms: C_4  and  C_5
REMARK    5  A    between atoms: C_5  and  O_6
REMARK    6  A    between atoms: O_6  and  C_7
REMARK    7  A    between atoms: C_10  and  C_12
REMARK                            x       y       z     vdW  Elec       q    Type
REMARK                         _______ _______ _______ _____ _____    ______ ____
ROOT
ATOM      1  C   UNL     1       4.432   3.705  17.800  0.00  0.00    +0.000 C 
ATOM      2  C   UNL     1       3.817   4.890  18.555  0.00  0.00    +0.000 C 
ATOM      3  N   UNL     1       2.794   4.366  19.427  0.00  0.00    +0.000 N 
ATOM      4  C   UNL     1       1.782   5.065  20.067  0.00  0.00    +0.000 C 
ATOM      5  O   UNL     1       0.911   4.490  20.717  0.00  0.00    +0.000 OA
ATOM      6  C   UNL     1       2.930   2.928  19.544  0.00  0.00    +0.000 C 
ATOM      7  C   UNL     1       3.902   2.523  20.649  0.00  0.00    +0.000 C 
ATOM      8  O   UNL     1       4.802   1.546  20.110  0.00  0.00    +0.000 OA
ATOM      9  C   UNL     1       4.484   1.329  18.731  0.00  0.00    +0.000 C 
ATOM     10  C   UNL     1       3.619   2.482  18.263  0.00  0.00    +0.000 C 
ENDROOT
BRANCH   4  11
ATOM     11  C   UNL     1       1.704   6.557  19.948  0.00  0.00    +0.000 A 
ATOM     12  C   UNL     1       1.235   7.383  20.994  0.00  0.00    +0.000 A 
ATOM     13  C   UNL     1       1.190   8.775  20.858  0.00  0.00    +0.000 A 
ATOM     14  C   UNL     1       1.540   9.304  19.640  0.00  0.00    +0.000 A 
ATOM     15  C   UNL     1       1.945   8.514  18.593  0.00  0.00    +0.000 A 
ATOM     16  C   UNL     1       2.049   7.141  18.715  0.00  0.00    +0.000 A 
ATOM     17  O   UNL     1       2.214   9.234  17.476  0.00  0.00    +0.000 OA
ATOM     18  C   UNL     1       1.842  10.558  17.911  0.00  0.00    +0.000 C 
ATOM     19  O   UNL     1       1.502  10.623  19.311  0.00  0.00    +0.000 OA
ENDBRANCH   4  11
BRANCH   1  20
ATOM     20  O   UNL     1       4.310   3.884  16.376  0.00  0.00    +0.000 OA
BRANCH  20  21
ATOM     21  C   UNL     1       5.587   4.155  15.770  0.00  0.00    +0.000 C 
BRANCH  21  22
ATOM     22  C   UNL     1       5.980   5.632  15.915  0.00  0.00    +0.000 C 
BRANCH  22  24
ATOM     23  C   UNL     1       7.327   7.055  17.324  0.00  0.00    +0.000 C 
ATOM     24  N   UNL     1       7.308   5.816  16.542  0.00  0.00    +0.000 NA
ATOM     25  C   UNL     1       7.680   4.695  17.412  0.00  0.00    +0.000 C 
ENDBRANCH  22  24
ENDBRANCH  21  22
ENDBRANCH  20  21
ENDBRANCH   1  20
TORSDOF 5
ENDMDL
