MODEL 1
REMARK VINA RESULT:      -8.5      0.000      0.000
REMARK  Name = 
REMARK  2 active torsions:
REMARK  status: ('A' for Active; 'I' for Inactive)
REMARK    1  A    between atoms: C_8  and  C_9
REMARK    2  A    between atoms: C_9  and  C_10
REMARK                            x       y       z     vdW  Elec       q    Type
REMARK                         _______ _______ _______ _____ _____    ______ ____
ROOT
ATOM      1  C   UNL     1       4.558   3.830  17.542  0.00  0.00    +0.000 A 
ATOM      2  C   UNL     1       3.334   3.914  16.873  0.00  0.00    +0.000 A 
ATOM      3  C   UNL     1       2.138   3.685  17.554  0.00  0.00    +0.000 A 
ATOM      4  C   UNL     1       2.137   3.360  18.919  0.00  0.00    +0.000 A 
ATOM      5  C   UNL     1       0.937   3.163  19.622  0.00  0.00    +0.000 A 
ATOM      6  C   UNL     1       0.950   2.840  20.979  0.00  0.00    +0.000 A 
ATOM      7  C   UNL     1       2.162   2.689  21.645  0.00  0.00    +0.000 A 
ATOM      8  C   UNL     1       3.364   2.879  20.960  0.00  0.00    +0.000 A 
ATOM      9  C   UNL     1       3.369   3.232  19.599  0.00  0.00    +0.000 A 
ATOM     10  C   UNL     1       4.566   3.471  18.900  0.00  0.00    +0.000 A 
ENDROOT
BRANCH   1  11
ATOM     11  C   UNL     1       5.852   4.095  16.804  0.00  0.00    +0.000 C 
BRANCH  11  19
ATOM     12  O   UNL     1       5.306   6.617  15.629  0.00  0.00    +0.000 OA
ATOM     13  C   UNL     1       6.165   6.613  16.505  0.00  0.00    +0.000 A 
ATOM     14  O   UNL     1       6.834   7.756  16.852  0.00  0.00    +0.000 OA
ATOM     15  C   UNL     1       7.764   7.765  17.913  0.00  0.00    +0.000 A 
ATOM     16 BR   UNL     1       8.616   9.383  18.287  0.00  0.00    +0.000 Br
ATOM     17  C   UNL     1       8.020   6.659  18.622  0.00  0.00    +0.000 A 
ATOM     18  C   UNL     1       7.373   5.431  18.270  0.00  0.00    +0.000 A 
ATOM     19  C   UNL     1       6.514   5.369  17.239  0.00  0.00    +0.000 A 
ENDBRANCH  11  19
ENDBRANCH   1  11
TORSDOF 2
ENDMDL
MODEL 2
REMARK VINA RESULT:      -8.1      1.143      1.476
REMARK  Name = 
REMARK  2 active torsions:
REMARK  status: ('A' for Active; 'I' for Inactive)
REMARK    1  A    between atoms: C_8  and  C_9
REMARK    2  A    between atoms: C_9  and  C_10
REMARK                            x       y       z     vdW  Elec       q    Type
REMARK                         _______ _______ _______ _____ _____    ______ ____
ROOT
ATOM      1  C   UNL     1       4.047   3.724  17.382  0.00  0.00    +0.000 A 
ATOM      2  C   UNL     1       2.730   3.804  16.919  0.00  0.00    +0.000 A 
ATOM      3  C   UNL     1       1.661   3.571  17.785  0.00  0.00    +0.000 A 
ATOM      4  C   UNL     1       1.882   3.246  19.131  0.00  0.00    +0.000 A 
ATOM      5  C   UNL     1       0.812   3.045  20.019  0.00  0.00    +0.000 A 
ATOM      6  C   UNL     1       1.045   2.723  21.356  0.00  0.00    +0.000 A 
ATOM      7  C   UNL     1       2.349   2.576  21.817  0.00  0.00    +0.000 A 
ATOM      8  C   UNL     1       3.424   2.770  20.948  0.00  0.00    +0.000 A 
ATOM      9  C   UNL     1       3.207   3.123  19.604  0.00  0.00    +0.000 A 
ATOM     10  C   UNL     1       4.275   3.365  18.721  0.00  0.00    +0.000 A 
ENDROOT
BRANCH   1  11
ATOM     11  C   UNL     1       5.204   3.993  16.445  0.00  0.00    +0.000 C 
BRANCH  11  19
ATOM     12  O   UNL     1       7.976   4.130  17.028  0.00  0.00    +0.000 OA
ATOM     13  C   UNL     1       7.365   5.192  17.093  0.00  0.00    +0.000 A 
ATOM     14  O   UNL     1       7.991   6.352  17.463  0.00  0.00    +0.000 OA
ATOM     15  C   UNL     1       7.306   7.585  17.460  0.00  0.00    +0.000 A 
ATOM     16 BR   UNL     1       8.266   9.095  17.991  0.00  0.00    +0.000 Br
ATOM     17  C   UNL     1       6.023   7.666  17.090  0.00  0.00    +0.000 A 
ATOM     18  C   UNL     1       5.316   6.473  16.732  0.00  0.00    +0.000 A 
ATOM     19  C   UNL     1       5.919   5.274  16.763  0.00  0.00    +0.000 A 
ENDBRANCH  11  19
ENDBRANCH   1  11
TORSDOF 2
ENDMDL
MODEL 3
REMARK VINA RESULT:      -8.0      1.513      1.837
REMARK  Name = 
REMARK  2 active torsions:
REMARK  status: ('A' for Active; 'I' for Inactive)
REMARK    1  A    between atoms: C_8  and  C_9
REMARK    2  A    between atoms: C_9  and  C_10
REMARK                            x       y       z     vdW  Elec       q    Type
REMARK                         _______ _______ _______ _____ _____    ______ ____
ROOT
ATOM      1  C   UNL     1       5.128   4.347  18.001  0.00  0.00    +0.000 A 
ATOM      2  C   UNL     1       4.063   4.969  17.344  0.00  0.00    +0.000 A 
ATOM      3  C   UNL     1       2.767   4.882  17.855  0.00  0.00    +0.000 A 
ATOM      4  C   UNL     1       2.504   4.166  19.032  0.00  0.00    +0.000 A 
ATOM      5  C   UNL     1       1.210   4.103  19.574  0.00  0.00    +0.000 A 
ATOM      6  C   UNL     1       0.961   3.387  20.746  0.00  0.00    +0.000 A 
ATOM      7  C   UNL     1       1.998   2.708  21.377  0.00  0.00    +0.000 A 
ATOM      8  C   UNL     1       3.290   2.758  20.850  0.00  0.00    +0.000 A 
ATOM      9  C   UNL     1       3.564   3.499  19.686  0.00  0.00    +0.000 A 
ATOM     10  C   UNL     1       4.865   3.599  19.161  0.00  0.00    +0.000 A 
ENDROOT
BRANCH   1  11
ATOM     11  C   UNL     1       6.533   4.456  17.453  0.00  0.00    +0.000 C 
BRANCH  11  19
ATOM     12  O   UNL     1       8.277   5.011  19.619  0.00  0.00    +0.000 OA
ATOM     13  C   UNL     1       8.006   5.965  18.897  0.00  0.00    +0.000 A 
ATOM     14  O   UNL     1       8.492   7.217  19.159  0.00  0.00    +0.000 OA
ATOM     15  C   UNL     1       8.243   8.296  18.283  0.00  0.00    +0.000 A 
ATOM     16 BR   UNL     1       8.954   9.956  18.752  0.00  0.00    +0.000 Br
ATOM     17  C   UNL     1       7.530   8.130  17.163  0.00  0.00    +0.000 A 
ATOM     18  C   UNL     1       6.968   6.847  16.868  0.00  0.00    +0.000 A 
ATOM     19  C   UNL     1       7.144   5.805  17.697  0.00  0.00    +0.000 A 
ENDBRANCH  11  19
ENDBRANCH   1  11
TORSDOF 2
ENDMDL
MODEL 4
REMARK VINA RESULT:      -8.0      1.018      1.129
REMARK  Name = 
REMARK  2 active torsions:
REMARK  status: ('A' for Active; 'I' for Inactive)
REMARK    1  A    between atoms: C_8  and  C_9
REMARK    2  A    between atoms: C_9  and  C_10
REMARK                            x       y       z     vdW  Elec       q    Type
REMARK                         _______ _______ _______ _____ _____    ______ ____
ROOT
ATOM      1  C   UNL     1       4.626   3.758  17.285  0.00  0.00    +0.000 A 
ATOM      2  C   UNL     1       4.045   2.500  17.102  0.00  0.00    +0.000 A 
ATOM      3  C   UNL     1       2.918   2.128  17.837  0.00  0.00    +0.000 A 
ATOM      4  C   UNL     1       2.349   3.002  18.774  0.00  0.00    +0.000 A 
ATOM      5  C   UNL     1       1.193   2.652  19.491  0.00  0.00    +0.000 A 
ATOM      6  C   UNL     1       0.636   3.531  20.421  0.00  0.00    +0.000 A 
ATOM      7  C   UNL     1       1.240   4.761  20.662  0.00  0.00    +0.000 A 
ATOM      8  C   UNL     1       2.390   5.124  19.958  0.00  0.00    +0.000 A 
ATOM      9  C   UNL     1       2.948   4.262  18.997  0.00  0.00    +0.000 A 
ATOM     10  C   UNL     1       4.082   4.624  18.247  0.00  0.00    +0.000 A 
ENDROOT
BRANCH   1  11
ATOM     11  C   UNL     1       5.839   4.164  16.476  0.00  0.00    +0.000 C 
BRANCH  11  19
ATOM     12  O   UNL     1       5.290   6.751  15.452  0.00  0.00    +0.000 OA
ATOM     13  C   UNL     1       6.139   6.698  16.336  0.00  0.00    +0.000 A 
ATOM     14  O   UNL     1       6.796   7.821  16.760  0.00  0.00    +0.000 OA
ATOM     15  C   UNL     1       7.714   7.770  17.831  0.00  0.00    +0.000 A 
ATOM     16 BR   UNL     1       8.551   9.367  18.313  0.00  0.00    +0.000 Br
ATOM     17  C   UNL     1       7.969   6.624  18.473  0.00  0.00    +0.000 A 
ATOM     18  C   UNL     1       7.334   5.416  18.039  0.00  0.00    +0.000 A 
ATOM     19  C   UNL     1       6.487   5.413  16.996  0.00  0.00    +0.000 A 
ENDBRANCH  11  19
ENDBRANCH   1  11
TORSDOF 2
ENDMDL
MODEL 5
REMARK VINA RESULT:      -7.8      2.783      3.345
REMARK  Name = 
REMARK  2 active torsions:
REMARK  status: ('A' for Active; 'I' for Inactive)
REMARK    1  A    between atoms: C_8  and  C_9
REMARK    2  A    between atoms: C_9  and  C_10
REMARK                            x       y       z     vdW  Elec       q    Type
REMARK                         _______ _______ _______ _____ _____    ______ ____
ROOT
ATOM      1  C   UNL     1       4.651   5.755  18.524  0.00  0.00    +0.000 A 
ATOM      2  C   UNL     1       3.492   6.536  18.526  0.00  0.00    +0.000 A 
ATOM      3  C   UNL     1       2.344   6.095  19.186  0.00  0.00    +0.000 A 
ATOM      4  C   UNL     1       2.326   4.861  19.853  0.00  0.00    +0.000 A 
ATOM      5  C   UNL     1       1.187   4.426  20.551  0.00  0.00    +0.000 A 
ATOM      6  C   UNL     1       1.182   3.196  21.211  0.00  0.00    +0.000 A 
ATOM      7  C   UNL     1       2.306   2.378  21.164  0.00  0.00    +0.000 A 
ATOM      8  C   UNL     1       3.445   2.796  20.473  0.00  0.00    +0.000 A 
ATOM      9  C   UNL     1       3.477   4.044  19.826  0.00  0.00    +0.000 A 
ATOM     10  C   UNL     1       4.629   4.503  19.160  0.00  0.00    +0.000 A 
ENDROOT
BRANCH   1  11
ATOM     11  C   UNL     1       5.899   6.243  17.820  0.00  0.00    +0.000 C 
BRANCH  11  19
ATOM     12  O   UNL     1       7.997   4.435  17.211  0.00  0.00    +0.000 OA
ATOM     13  C   UNL     1       7.253   4.719  16.278  0.00  0.00    +0.000 A 
ATOM     14  O   UNL     1       7.460   4.217  15.022  0.00  0.00    +0.000 OA
ATOM     15  C   UNL     1       6.557   4.482  13.970  0.00  0.00    +0.000 A 
ATOM     16 BR   UNL     1       6.953   3.745  12.302  0.00  0.00    +0.000 Br
ATOM     17  C   UNL     1       5.464   5.228  14.165  0.00  0.00    +0.000 A 
ATOM     18  C   UNL     1       5.226   5.807  15.453  0.00  0.00    +0.000 A 
ATOM     19  C   UNL     1       6.082   5.615  16.469  0.00  0.00    +0.000 A 
ENDBRANCH  11  19
ENDBRANCH   1  11
TORSDOF 2
ENDMDL
MODEL 6
REMARK VINA RESULT:      -7.8      1.729      2.378
REMARK  Name = 
REMARK  2 active torsions:
REMARK  status: ('A' for Active; 'I' for Inactive)
REMARK    1  A    between atoms: C_8  and  C_9
REMARK    2  A    between atoms: C_9  and  C_10
REMARK                            x       y       z     vdW  Elec       q    Type
REMARK                         _______ _______ _______ _____ _____    ______ ____
ROOT
ATOM      1  C   UNL     1       5.104   4.426  18.372  0.00  0.00    +0.000 A 
ATOM      2  C   UNL     1       4.716   5.372  19.325  0.00  0.00    +0.000 A 
ATOM      3  C   UNL     1       3.454   5.303  19.917  0.00  0.00    +0.000 A 
ATOM      4  C   UNL     1       2.548   4.290  19.566  0.00  0.00    +0.000 A 
ATOM      5  C   UNL     1       1.290   4.191  20.182  0.00  0.00    +0.000 A 
ATOM      6  C   UNL     1       0.398   3.179  19.825  0.00  0.00    +0.000 A 
ATOM      7  C   UNL     1       0.744   2.269  18.831  0.00  0.00    +0.000 A 
ATOM      8  C   UNL     1       1.990   2.355  18.207  0.00  0.00    +0.000 A 
ATOM      9  C   UNL     1       2.912   3.351  18.576  0.00  0.00    +0.000 A 
ATOM     10  C   UNL     1       4.189   3.430  17.991  0.00  0.00    +0.000 A 
ENDROOT
BRANCH   1  11
ATOM     11  C   UNL     1       6.479   4.494  17.743  0.00  0.00    +0.000 C 
BRANCH  11  19
ATOM     12  O   UNL     1       8.396   5.143  19.729  0.00  0.00    +0.000 OA
ATOM     13  C   UNL     1       8.064   6.064  18.990  0.00  0.00    +0.000 A 
ATOM     14  O   UNL     1       8.567   7.326  19.153  0.00  0.00    +0.000 OA
ATOM     15  C   UNL     1       8.244   8.365  18.253  0.00  0.00    +0.000 A 
ATOM     16 BR   UNL     1       8.989  10.043  18.586  0.00  0.00    +0.000 Br
ATOM     17  C   UNL     1       7.440   8.150  17.206  0.00  0.00    +0.000 A 
ATOM     18  C   UNL     1       6.858   6.856  17.017  0.00  0.00    +0.000 A 
ATOM     19  C   UNL     1       7.105   5.852  17.874  0.00  0.00    +0.000 A 
ENDBRANCH  11  19
ENDBRANCH   1  11
TORSDOF 2
ENDMDL
MODEL 7
REMARK VINA RESULT:      -7.7      1.127      1.702
REMARK  Name = 
REMARK  2 active torsions:
REMARK  status: ('A' for Active; 'I' for Inactive)
REMARK    1  A    between atoms: C_8  and  C_9
REMARK    2  A    between atoms: C_9  and  C_10
REMARK                            x       y       z     vdW  Elec       q    Type
REMARK                         _______ _______ _______ _____ _____    ______ ____
ROOT
ATOM      1  C   UNL     1       5.040   4.465  18.263  0.00  0.00    +0.000 A 
ATOM      2  C   UNL     1       4.651   5.357  19.267  0.00  0.00    +0.000 A 
ATOM      3  C   UNL     1       3.410   5.224  19.891  0.00  0.00    +0.000 A 
ATOM      4  C   UNL     1       2.526   4.199  19.524  0.00  0.00    +0.000 A 
ATOM      5  C   UNL     1       1.291   4.034  20.171  0.00  0.00    +0.000 A 
ATOM      6  C   UNL     1       0.420   3.010  19.797  0.00  0.00    +0.000 A 
ATOM      7  C   UNL     1       0.763   2.153  18.756  0.00  0.00    +0.000 A 
ATOM      8  C   UNL     1       1.987   2.305  18.101  0.00  0.00    +0.000 A 
ATOM      9  C   UNL     1       2.888   3.313  18.484  0.00  0.00    +0.000 A 
ATOM     10  C   UNL     1       4.144   3.458  17.867  0.00  0.00    +0.000 A 
ENDROOT
BRANCH   1  11
ATOM     11  C   UNL     1       6.392   4.603  17.599  0.00  0.00    +0.000 C 
BRANCH  11  19
ATOM     12  O   UNL     1       5.708   6.873  16.043  0.00  0.00    +0.000 OA
ATOM     13  C   UNL     1       6.581   7.051  16.887  0.00  0.00    +0.000 A 
ATOM     14  O   UNL     1       7.200   8.263  17.029  0.00  0.00    +0.000 OA
ATOM     15  C   UNL     1       8.145   8.486  18.052  0.00  0.00    +0.000 A 
ATOM     16 BR   UNL     1       8.926  10.179  18.138  0.00  0.00    +0.000 Br
ATOM     17  C   UNL     1       8.464   7.523  18.924  0.00  0.00    +0.000 A 
ATOM     18  C   UNL     1       7.871   6.227  18.792  0.00  0.00    +0.000 A 
ATOM     19  C   UNL     1       7.000   5.960  17.806  0.00  0.00    +0.000 A 
ENDBRANCH  11  19
ENDBRANCH   1  11
TORSDOF 2
ENDMDL
MODEL 8
REMARK VINA RESULT:      -7.7      3.492      4.486
REMARK  Name = 
REMARK  2 active torsions:
REMARK  status: ('A' for Active; 'I' for Inactive)
REMARK    1  A    between atoms: C_8  and  C_9
REMARK    2  A    between atoms: C_9  and  C_10
REMARK                            x       y       z     vdW  Elec       q    Type
REMARK                         _______ _______ _______ _____ _____    ______ ____
ROOT
ATOM      1  C   UNL     1       3.962   5.014  18.668  0.00  0.00    +0.000 A 
ATOM      2  C   UNL     1       3.317   4.954  19.907  0.00  0.00    +0.000 A 
ATOM      3  C   UNL     1       2.498   6.001  20.329  0.00  0.00    +0.000 A 
ATOM      4  C   UNL     1       2.308   7.136  19.526  0.00  0.00    +0.000 A 
ATOM      5  C   UNL     1       1.456   8.179  19.926  0.00  0.00    +0.000 A 
ATOM      6  C   UNL     1       1.276   9.302  19.118  0.00  0.00    +0.000 A 
ATOM      7  C   UNL     1       1.961   9.407  17.912  0.00  0.00    +0.000 A 
ATOM      8  C   UNL     1       2.813   8.380  17.501  0.00  0.00    +0.000 A 
ATOM      9  C   UNL     1       2.984   7.228  18.289  0.00  0.00    +0.000 A 
ATOM     10  C   UNL     1       3.804   6.162  17.875  0.00  0.00    +0.000 A 
ENDROOT
BRANCH   1  11
ATOM     11  C   UNL     1       4.838   3.870  18.207  0.00  0.00    +0.000 C 
BRANCH  11  19
ATOM     12  O   UNL     1       7.607   4.466  18.065  0.00  0.00    +0.000 OA
ATOM     13  C   UNL     1       6.998   4.511  17.001  0.00  0.00    +0.000 A 
ATOM     14  O   UNL     1       7.624   4.867  15.836  0.00  0.00    +0.000 OA
ATOM     15  C   UNL     1       6.940   4.842  14.602  0.00  0.00    +0.000 A 
ATOM     16 BR   UNL     1       7.900   5.354  13.086  0.00  0.00    +0.000 Br
ATOM     17  C   UNL     1       5.659   4.463  14.525  0.00  0.00    +0.000 A 
ATOM     18  C   UNL     1       4.953   4.119  15.722  0.00  0.00    +0.000 A 
ATOM     19  C   UNL     1       5.553   4.172  16.922  0.00  0.00    +0.000 A 
ENDBRANCH  11  19
ENDBRANCH   1  11
TORSDOF 2
ENDMDL
MODEL 9
REMARK VINA RESULT:      -7.5      4.878      5.761
REMARK  Name = 
REMARK  2 active torsions:
REMARK  status: ('A' for Active; 'I' for Inactive)
REMARK    1  A    between atoms: C_8  and  C_9
REMARK    2  A    between atoms: C_9  and  C_10
REMARK                            x       y       z     vdW  Elec       q    Type
REMARK                         _______ _______ _______ _____ _____    ______ ____
ROOT
ATOM      1  C   UNL     1       2.722   7.023  17.886  0.00  0.00    +0.000 A 
ATOM      2  C   UNL     1       4.061   6.731  17.610  0.00  0.00    +0.000 A 
ATOM      3  C   UNL     1       4.500   5.407  17.554  0.00  0.00    +0.000 A 
ATOM      4  C   UNL     1       3.612   4.344  17.778  0.00  0.00    +0.000 A 
ATOM      5  C   UNL     1       4.036   3.008  17.688  0.00  0.00    +0.000 A 
ATOM      6  C   UNL     1       3.143   1.960  17.913  0.00  0.00    +0.000 A 
ATOM      7  C   UNL     1       1.822   2.234  18.252  0.00  0.00    +0.000 A 
ATOM      8  C   UNL     1       1.385   3.557  18.348  0.00  0.00    +0.000 A 
ATOM      9  C   UNL     1       2.265   4.625  18.097  0.00  0.00    +0.000 A 
ATOM     10  C   UNL     1       1.836   5.964  18.146  0.00  0.00    +0.000 A 
ENDROOT
BRANCH   1  11
ATOM     11  C   UNL     1       2.247   8.458  17.931  0.00  0.00    +0.000 C 
BRANCH  11  19
ATOM     12  O   UNL     1       0.073  10.274  18.068  0.00  0.00    +0.000 OA
ATOM     13  C   UNL     1       0.430   9.791  19.137  0.00  0.00    +0.000 A 
ATOM     14  O   UNL     1      -0.169  10.146  20.315  0.00  0.00    +0.000 OA
ATOM     15  C   UNL     1       0.190   9.530  21.533  0.00  0.00    +0.000 A 
ATOM     16 BR   UNL     1      -0.694  10.106  23.073  0.00  0.00    +0.000 Br
ATOM     17  C   UNL     1       1.123   8.573  21.578  0.00  0.00    +0.000 A 
ATOM     18  C   UNL     1       1.805   8.195  20.377  0.00  0.00    +0.000 A 
ATOM     19  C   UNL     1       1.524   8.787  19.204  0.00  0.00    +0.000 A 
ENDBRANCH  11  19
ENDBRANCH   1  11
TORSDOF 2
ENDMDL
