MODEL 1
REMARK VINA RESULT:      -7.7      0.000      0.000
REMARK  Name = 
REMARK  9 active torsions:
REMARK  status: ('A' for Active; 'I' for Inactive)
REMARK    1  A    between atoms: C_1  and  C_2
REMARK    2  A    between atoms: C_5  and  N_6
REMARK    3  A    between atoms: N_6  and  C_7
REMARK    4  A    between atoms: C_7  and  N_9
REMARK    5  A    between atoms: N_9  and  C_10
REMARK    6  A    between atoms: N_9  and  C_18
REMARK    7  A    between atoms: C_10  and  C_11
REMARK    8  A    between atoms: C_11  and  N_12
REMARK    9  A    between atoms: C_18  and  C_19
REMARK                            x       y       z     vdW  Elec       q    Type
REMARK                         _______ _______ _______ _____ _____    ______ ____
ROOT
ATOM      1  N   UNL     1       5.084   4.913  16.431  0.00  0.00    +0.000 N 
ENDROOT
BRANCH   1   2
ATOM      2  C   UNL     1       5.131   6.231  16.991  0.00  0.00    +0.000 C 
ATOM      3  S   UNL     1       6.568   6.926  17.536  0.00  0.00    +0.000 S 
BRANCH   2   4
ATOM      4  N   UNL     1       3.885   6.854  16.984  0.00  0.00    +0.000 N 
ATOM      5  H   UNL     1       3.469   6.966  16.068  0.00  0.00    +0.000 HD
BRANCH   4  10
ATOM      6  C   UNL     1       0.462   9.215  20.946  0.00  0.00    +0.000 C 
ATOM      7  C   UNL     1       1.358   8.588  19.920  0.00  0.00    +0.000 A 
ATOM      8  C   UNL     1       1.551   9.175  18.668  0.00  0.00    +0.000 A 
ATOM      9  C   UNL     1       2.389   8.568  17.724  0.00  0.00    +0.000 A 
ATOM     10  C   UNL     1       3.070   7.380  18.016  0.00  0.00    +0.000 A 
ATOM     11  C   UNL     1       2.854   6.786  19.259  0.00  0.00    +0.000 A 
ATOM     12  C   UNL     1       2.009   7.384  20.204  0.00  0.00    +0.000 A 
ENDBRANCH   4  10
ENDBRANCH   2   4
ENDBRANCH   1   2
BRANCH   1  13
ATOM     13  C   UNL     1       3.926   4.037  16.737  0.00  0.00    +0.000 C 
BRANCH  13  14
ATOM     14  C   UNL     1       4.077   3.093  17.953  0.00  0.00    +0.000 C 
BRANCH  14  15
ATOM     15  N   UNL     1       3.209   3.428  19.107  0.00  0.00    +0.000 NA
ATOM     16  C   UNL     1       1.777   3.331  18.776  0.00  0.00    +0.000 C 
ATOM     17  C   UNL     1       0.892   3.694  19.971  0.00  0.00    +0.000 C 
ATOM     18  C   UNL     1       1.211   2.829  21.181  0.00  0.00    +0.000 C 
ATOM     19  C   UNL     1       2.702   2.882  21.484  0.00  0.00    +0.000 C 
ATOM     20  C   UNL     1       3.536   2.549  20.246  0.00  0.00    +0.000 C 
ENDBRANCH  14  15
ENDBRANCH  13  14
ENDBRANCH   1  13
BRANCH   1  21
ATOM     21  C   UNL     1       6.345   4.236  16.087  0.00  0.00    +0.000 C 
BRANCH  21  22
ATOM     22  C   UNL     1       6.651   4.368  14.634  0.00  0.00    +0.000 A 
ATOM     23  C   UNL     1       6.198   3.744  13.489  0.00  0.00    +0.000 A 
ATOM     24  C   UNL     1       6.935   4.293  12.410  0.00  0.00    +0.000 A 
ATOM     25  C   UNL     1       7.789   5.218  12.961  0.00  0.00    +0.000 A 
ATOM     26  O   UNL     1       7.628   5.268  14.309  0.00  0.00    +0.000 OA
ENDBRANCH  21  22
ENDBRANCH   1  21
TORSDOF 8
ENDMDL
MODEL 2
REMARK VINA RESULT:      -7.7      0.397      1.031
REMARK  Name = 
REMARK  9 active torsions:
REMARK  status: ('A' for Active; 'I' for Inactive)
REMARK    1  A    between atoms: C_1  and  C_2
REMARK    2  A    between atoms: C_5  and  N_6
REMARK    3  A    between atoms: N_6  and  C_7
REMARK    4  A    between atoms: C_7  and  N_9
REMARK    5  A    between atoms: N_9  and  C_10
REMARK    6  A    between atoms: N_9  and  C_18
REMARK    7  A    between atoms: C_10  and  C_11
REMARK    8  A    between atoms: C_11  and  N_12
REMARK    9  A    between atoms: C_18  and  C_19
REMARK                            x       y       z     vdW  Elec       q    Type
REMARK                         _______ _______ _______ _____ _____    ______ ____
ROOT
ATOM      1  N   UNL     1       5.014   4.759  16.577  0.00  0.00    +0.000 N 
ENDROOT
BRANCH   1   2
ATOM      2  C   UNL     1       4.736   6.030  17.177  0.00  0.00    +0.000 C 
ATOM      3  S   UNL     1       5.939   7.180  17.446  0.00  0.00    +0.000 S 
BRANCH   2   4
ATOM      4  N   UNL     1       3.381   6.198  17.456  0.00  0.00    +0.000 N 
ATOM      5  H   UNL     1       2.771   5.505  17.040  0.00  0.00    +0.000 HD
BRANCH   4  10
ATOM      6  C   UNL     1       0.569   9.937  20.788  0.00  0.00    +0.000 C 
ATOM      7  C   UNL     1       1.302   8.969  19.907  0.00  0.00    +0.000 A 
ATOM      8  C   UNL     1       1.776   7.753  20.401  0.00  0.00    +0.000 A 
ATOM      9  C   UNL     1       2.463   6.866  19.562  0.00  0.00    +0.000 A 
ATOM     10  C   UNL     1       2.669   7.163  18.209  0.00  0.00    +0.000 A 
ATOM     11  C   UNL     1       2.215   8.390  17.727  0.00  0.00    +0.000 A 
ATOM     12  C   UNL     1       1.536   9.284  18.566  0.00  0.00    +0.000 A 
ENDBRANCH   4  10
ENDBRANCH   2   4
ENDBRANCH   1   2
BRANCH   1  13
ATOM     13  C   UNL     1       4.078   3.630  16.805  0.00  0.00    +0.000 C 
BRANCH  13  14
ATOM     14  C   UNL     1       4.199   2.898  18.163  0.00  0.00    +0.000 C 
BRANCH  14  15
ATOM     15  N   UNL     1       3.218   3.330  19.187  0.00  0.00    +0.000 NA
ATOM     16  C   UNL     1       1.826   3.109  18.756  0.00  0.00    +0.000 C 
ATOM     17  C   UNL     1       0.823   3.573  19.815  0.00  0.00    +0.000 C 
ATOM     18  C   UNL     1       1.073   2.892  21.152  0.00  0.00    +0.000 C 
ATOM     19  C   UNL     1       2.528   3.069  21.566  0.00  0.00    +0.000 C 
ATOM     20  C   UNL     1       3.482   2.626  20.456  0.00  0.00    +0.000 C 
ENDBRANCH  14  15
ENDBRANCH  13  14
ENDBRANCH   1  13
BRANCH   1  21
ATOM     21  C   UNL     1       6.409   4.402  16.270  0.00  0.00    +0.000 C 
BRANCH  21  22
ATOM     22  C   UNL     1       6.675   4.473  14.805  0.00  0.00    +0.000 A 
ATOM     23  C   UNL     1       6.170   3.824  13.696  0.00  0.00    +0.000 A 
ATOM     24  C   UNL     1       6.891   4.312  12.578  0.00  0.00    +0.000 A 
ATOM     25  C   UNL     1       7.787   5.229  13.070  0.00  0.00    +0.000 A 
ATOM     26  O   UNL     1       7.668   5.332  14.419  0.00  0.00    +0.000 OA
ENDBRANCH  21  22
ENDBRANCH   1  21
TORSDOF 8
ENDMDL
MODEL 3
REMARK VINA RESULT:      -7.6      0.680      1.498
REMARK  Name = 
REMARK  9 active torsions:
REMARK  status: ('A' for Active; 'I' for Inactive)
REMARK    1  A    between atoms: C_1  and  C_2
REMARK    2  A    between atoms: C_5  and  N_6
REMARK    3  A    between atoms: N_6  and  C_7
REMARK    4  A    between atoms: C_7  and  N_9
REMARK    5  A    between atoms: N_9  and  C_10
REMARK    6  A    between atoms: N_9  and  C_18
REMARK    7  A    between atoms: C_10  and  C_11
REMARK    8  A    between atoms: C_11  and  N_12
REMARK    9  A    between atoms: C_18  and  C_19
REMARK                            x       y       z     vdW  Elec       q    Type
REMARK                         _______ _______ _______ _____ _____    ______ ____
ROOT
ATOM      1  N   UNL     1       4.897   4.681  16.684  0.00  0.00    +0.000 N 
ENDROOT
BRANCH   1   2
ATOM      2  C   UNL     1       4.797   5.912  17.411  0.00  0.00    +0.000 C 
ATOM      3  S   UNL     1       6.000   7.092  17.350  0.00  0.00    +0.000 S 
BRANCH   2   4
ATOM      4  N   UNL     1       3.598   6.016  18.113  0.00  0.00    +0.000 N 
ATOM      5  H   UNL     1       3.202   5.134  18.414  0.00  0.00    +0.000 HD
BRANCH   4  10
ATOM      6  C   UNL     1       0.369  10.393  19.955  0.00  0.00    +0.000 C 
ATOM      7  C   UNL     1       1.213   9.257  19.462  0.00  0.00    +0.000 A 
ATOM      8  C   UNL     1       1.518   8.169  20.282  0.00  0.00    +0.000 A 
ATOM      9  C   UNL     1       2.314   7.121  19.802  0.00  0.00    +0.000 A 
ATOM     10  C   UNL     1       2.800   7.123  18.488  0.00  0.00    +0.000 A 
ATOM     11  C   UNL     1       2.512   8.224  17.682  0.00  0.00    +0.000 A 
ATOM     12  C   UNL     1       1.725   9.279  18.162  0.00  0.00    +0.000 A 
ENDBRANCH   4  10
ENDBRANCH   2   4
ENDBRANCH   1   2
BRANCH   1  13
ATOM     13  C   UNL     1       3.799   3.688  16.787  0.00  0.00    +0.000 C 
BRANCH  13  14
ATOM     14  C   UNL     1       4.031   2.501  17.751  0.00  0.00    +0.000 C 
BRANCH  14  15
ATOM     15  N   UNL     1       3.040   2.392  18.848  0.00  0.00    +0.000 NA
ATOM     16  C   UNL     1       3.543   2.956  20.113  0.00  0.00    +0.000 C 
ATOM     17  C   UNL     1       2.516   2.824  21.241  0.00  0.00    +0.000 C 
ATOM     18  C   UNL     1       1.193   3.473  20.866  0.00  0.00    +0.000 C 
ATOM     19  C   UNL     1       0.706   2.934  19.528  0.00  0.00    +0.000 C 
ATOM     20  C   UNL     1       1.785   3.056  18.450  0.00  0.00    +0.000 C 
ENDBRANCH  14  15
ENDBRANCH  13  14
ENDBRANCH   1  13
BRANCH   1  21
ATOM     21  C   UNL     1       6.230   4.152  16.351  0.00  0.00    +0.000 C 
BRANCH  21  22
ATOM     22  C   UNL     1       6.529   4.313  14.900  0.00  0.00    +0.000 A 
ATOM     23  C   UNL     1       6.038   3.744  13.742  0.00  0.00    +0.000 A 
ATOM     24  C   UNL     1       6.790   4.291  12.673  0.00  0.00    +0.000 A 
ATOM     25  C   UNL     1       7.689   5.160  13.241  0.00  0.00    +0.000 A 
ATOM     26  O   UNL     1       7.543   5.177  14.591  0.00  0.00    +0.000 OA
ENDBRANCH  21  22
ENDBRANCH   1  21
TORSDOF 8
ENDMDL
MODEL 4
REMARK VINA RESULT:      -7.4      1.003      1.448
REMARK  Name = 
REMARK  9 active torsions:
REMARK  status: ('A' for Active; 'I' for Inactive)
REMARK    1  A    between atoms: C_1  and  C_2
REMARK    2  A    between atoms: C_5  and  N_6
REMARK    3  A    between atoms: N_6  and  C_7
REMARK    4  A    between atoms: C_7  and  N_9
REMARK    5  A    between atoms: N_9  and  C_10
REMARK    6  A    between atoms: N_9  and  C_18
REMARK    7  A    between atoms: C_10  and  C_11
REMARK    8  A    between atoms: C_11  and  N_12
REMARK    9  A    between atoms: C_18  and  C_19
REMARK                            x       y       z     vdW  Elec       q    Type
REMARK                         _______ _______ _______ _____ _____    ______ ____
ROOT
ATOM      1  N   UNL     1       5.556   4.849  17.944  0.00  0.00    +0.000 N 
ENDROOT
BRANCH   1   2
ATOM      2  C   UNL     1       5.037   6.171  17.756  0.00  0.00    +0.000 C 
ATOM      3  S   UNL     1       6.021   7.471  17.326  0.00  0.00    +0.000 S 
BRANCH   2   4
ATOM      4  N   UNL     1       3.655   6.225  17.925  0.00  0.00    +0.000 N 
ATOM      5  H   UNL     1       3.137   5.500  17.444  0.00  0.00    +0.000 HD
BRANCH   4  10
ATOM      6  C   UNL     1       0.178   9.983  20.528  0.00  0.00    +0.000 C 
ATOM      7  C   UNL     1       1.086   8.994  19.860  0.00  0.00    +0.000 A 
ATOM      8  C   UNL     1       1.527   9.184  18.549  0.00  0.00    +0.000 A 
ATOM      9  C   UNL     1       2.370   8.244  17.943  0.00  0.00    +0.000 A 
ATOM     10  C   UNL     1       2.810   7.110  18.638  0.00  0.00    +0.000 A 
ATOM     11  C   UNL     1       2.347   6.915  19.939  0.00  0.00    +0.000 A 
ATOM     12  C   UNL     1       1.495   7.848  20.545  0.00  0.00    +0.000 A 
ENDBRANCH   4  10
ENDBRANCH   2   4
ENDBRANCH   1   2
BRANCH   1  13
ATOM     13  C   UNL     1       5.193   4.096  19.170  0.00  0.00    +0.000 C 
BRANCH  13  14
ATOM     14  C   UNL     1       4.603   2.681  18.961  0.00  0.00    +0.000 C 
BRANCH  14  15
ATOM     15  N   UNL     1       3.214   2.512  19.450  0.00  0.00    +0.000 NA
ATOM     16  C   UNL     1       2.951   3.297  20.669  0.00  0.00    +0.000 C 
ATOM     17  C   UNL     1       1.519   3.102  21.172  0.00  0.00    +0.000 C 
ATOM     18  C   UNL     1       0.500   3.446  20.096  0.00  0.00    +0.000 C 
ATOM     19  C   UNL     1       0.811   2.679  18.817  0.00  0.00    +0.000 C 
ATOM     20  C   UNL     1       2.264   2.880  18.384  0.00  0.00    +0.000 C 
ENDBRANCH  14  15
ENDBRANCH  13  14
ENDBRANCH   1  13
BRANCH   1  21
ATOM     21  C   UNL     1       6.830   4.483  17.303  0.00  0.00    +0.000 C 
BRANCH  21  22
ATOM     22  C   UNL     1       6.686   4.401  15.822  0.00  0.00    +0.000 A 
ATOM     23  C   UNL     1       5.874   3.685  14.966  0.00  0.00    +0.000 A 
ATOM     24  C   UNL     1       6.277   4.022  13.650  0.00  0.00    +0.000 A 
ATOM     25  C   UNL     1       7.306   4.922  13.782  0.00  0.00    +0.000 A 
ATOM     26  O   UNL     1       7.566   5.156  15.094  0.00  0.00    +0.000 OA
ENDBRANCH  21  22
ENDBRANCH   1  21
TORSDOF 8
ENDMDL
MODEL 5
REMARK VINA RESULT:      -7.4      0.772      1.320
REMARK  Name = 
REMARK  9 active torsions:
REMARK  status: ('A' for Active; 'I' for Inactive)
REMARK    1  A    between atoms: C_1  and  C_2
REMARK    2  A    between atoms: C_5  and  N_6
REMARK    3  A    between atoms: N_6  and  C_7
REMARK    4  A    between atoms: C_7  and  N_9
REMARK    5  A    between atoms: N_9  and  C_10
REMARK    6  A    between atoms: N_9  and  C_18
REMARK    7  A    between atoms: C_10  and  C_11
REMARK    8  A    between atoms: C_11  and  N_12
REMARK    9  A    between atoms: C_18  and  C_19
REMARK                            x       y       z     vdW  Elec       q    Type
REMARK                         _______ _______ _______ _____ _____    ______ ____
ROOT
ATOM      1  N   UNL     1       4.746   4.623  16.826  0.00  0.00    +0.000 N 
ENDROOT
BRANCH   1   2
ATOM      2  C   UNL     1       4.817   5.840  17.579  0.00  0.00    +0.000 C 
ATOM      3  S   UNL     1       6.072   6.949  17.379  0.00  0.00    +0.000 S 
BRANCH   2   4
ATOM      4  N   UNL     1       3.728   5.998  18.433  0.00  0.00    +0.000 N 
ATOM      5  H   UNL     1       3.476   5.170  18.961  0.00  0.00    +0.000 HD
BRANCH   4  10
ATOM      6  C   UNL     1       0.294  10.531  19.236  0.00  0.00    +0.000 C 
ATOM      7  C   UNL     1       1.188   9.343  19.039  0.00  0.00    +0.000 A 
ATOM      8  C   UNL     1       1.831   9.112  17.822  0.00  0.00    +0.000 A 
ATOM      9  C   UNL     1       2.658   7.993  17.659  0.00  0.00    +0.000 A 
ATOM     10  C   UNL     1       2.880   7.096  18.713  0.00  0.00    +0.000 A 
ATOM     11  C   UNL     1       2.216   7.320  19.918  0.00  0.00    +0.000 A 
ATOM     12  C   UNL     1       1.380   8.433  20.082  0.00  0.00    +0.000 A 
ENDBRANCH   4  10
ENDBRANCH   2   4
ENDBRANCH   1   2
BRANCH   1  13
ATOM     13  C   UNL     1       3.530   3.778  16.928  0.00  0.00    +0.000 C 
BRANCH  13  14
ATOM     14  C   UNL     1       3.679   2.445  17.698  0.00  0.00    +0.000 C 
BRANCH  14  15
ATOM     15  N   UNL     1       2.850   2.343  18.922  0.00  0.00    +0.000 NA
ATOM     16  C   UNL     1       3.582   2.763  20.130  0.00  0.00    +0.000 C 
ATOM     17  C   UNL     1       2.721   2.639  21.389  0.00  0.00    +0.000 C 
ATOM     18  C   UNL     1       1.428   3.429  21.258  0.00  0.00    +0.000 C 
ATOM     19  C   UNL     1       0.703   3.037  19.978  0.00  0.00    +0.000 C 
ATOM     20  C   UNL     1       1.622   3.144  18.759  0.00  0.00    +0.000 C 
ENDBRANCH  14  15
ENDBRANCH  13  14
ENDBRANCH   1  13
BRANCH   1  21
ATOM     21  C   UNL     1       5.994   3.933  16.460  0.00  0.00    +0.000 C 
BRANCH  21  22
ATOM     22  C   UNL     1       6.333   4.154  15.025  0.00  0.00    +0.000 A 
ATOM     23  C   UNL     1       5.797   3.726  13.827  0.00  0.00    +0.000 A 
ATOM     24  C   UNL     1       6.625   4.250  12.803  0.00  0.00    +0.000 A 
ATOM     25  C   UNL     1       7.611   4.966  13.436  0.00  0.00    +0.000 A 
ATOM     26  O   UNL     1       7.447   4.911  14.784  0.00  0.00    +0.000 OA
ENDBRANCH  21  22
ENDBRANCH   1  21
TORSDOF 8
ENDMDL
MODEL 6
REMARK VINA RESULT:      -7.2      0.739      1.320
REMARK  Name = 
REMARK  9 active torsions:
REMARK  status: ('A' for Active; 'I' for Inactive)
REMARK    1  A    between atoms: C_1  and  C_2
REMARK    2  A    between atoms: C_5  and  N_6
REMARK    3  A    between atoms: N_6  and  C_7
REMARK    4  A    between atoms: C_7  and  N_9
REMARK    5  A    between atoms: N_9  and  C_10
REMARK    6  A    between atoms: N_9  and  C_18
REMARK    7  A    between atoms: C_10  and  C_11
REMARK    8  A    between atoms: C_11  and  N_12
REMARK    9  A    between atoms: C_18  and  C_19
REMARK                            x       y       z     vdW  Elec       q    Type
REMARK                         _______ _______ _______ _____ _____    ______ ____
ROOT
ATOM      1  N   UNL     1       4.897   4.528  16.550  0.00  0.00    +0.000 N 
ENDROOT
BRANCH   1   2
ATOM      2  C   UNL     1       5.150   5.795  17.171  0.00  0.00    +0.000 C 
ATOM      3  S   UNL     1       6.647   6.183  17.843  0.00  0.00    +0.000 S 
BRANCH   2   4
ATOM      4  N   UNL     1       4.047   6.644  17.108  0.00  0.00    +0.000 N 
ATOM      5  H   UNL     1       3.803   6.958  16.177  0.00  0.00    +0.000 HD
BRANCH   4  10
ATOM      6  C   UNL     1       0.460   9.030  20.906  0.00  0.00    +0.000 C 
ATOM      7  C   UNL     1       1.399   8.397  19.923  0.00  0.00    +0.000 A 
ATOM      8  C   UNL     1       1.656   8.984  18.683  0.00  0.00    +0.000 A 
ATOM      9  C   UNL     1       2.533   8.371  17.779  0.00  0.00    +0.000 A 
ATOM     10  C   UNL     1       3.189   7.176  18.101  0.00  0.00    +0.000 A 
ATOM     11  C   UNL     1       2.909   6.583  19.331  0.00  0.00    +0.000 A 
ATOM     12  C   UNL     1       2.025   7.187  20.235  0.00  0.00    +0.000 A 
ENDBRANCH   4  10
ENDBRANCH   2   4
ENDBRANCH   1   2
BRANCH   1  13
ATOM     13  C   UNL     1       3.648   3.796  16.880  0.00  0.00    +0.000 C 
BRANCH  13  14
ATOM     14  C   UNL     1       3.807   2.506  17.719  0.00  0.00    +0.000 C 
BRANCH  14  15
ATOM     15  N   UNL     1       2.898   2.412  18.886  0.00  0.00    +0.000 NA
ATOM     16  C   UNL     1       3.554   2.824  20.140  0.00  0.00    +0.000 C 
ATOM     17  C   UNL     1       2.610   2.708  21.339  0.00  0.00    +0.000 C 
ATOM     18  C   UNL     1       1.337   3.512  21.124  0.00  0.00    +0.000 C 
ATOM     19  C   UNL     1       0.693   3.128  19.798  0.00  0.00    +0.000 C 
ATOM     20  C   UNL     1       1.692   3.226  18.643  0.00  0.00    +0.000 C 
ENDBRANCH  14  15
ENDBRANCH  13  14
ENDBRANCH   1  13
BRANCH   1  21
ATOM     21  C   UNL     1       6.035   3.712  16.098  0.00  0.00    +0.000 C 
BRANCH  21  22
ATOM     22  C   UNL     1       6.467   4.098  14.725  0.00  0.00    +0.000 A 
ATOM     23  C   UNL     1       7.251   5.109  14.205  0.00  0.00    +0.000 A 
ATOM     24  C   UNL     1       7.227   4.955  12.797  0.00  0.00    +0.000 A 
ATOM     25  C   UNL     1       6.436   3.862  12.543  0.00  0.00    +0.000 A 
ATOM     26  O   UNL     1       5.965   3.338  13.705  0.00  0.00    +0.000 OA
ENDBRANCH  21  22
ENDBRANCH   1  21
TORSDOF 8
ENDMDL
MODEL 7
REMARK VINA RESULT:      -7.0      1.107      1.570
REMARK  Name = 
REMARK  9 active torsions:
REMARK  status: ('A' for Active; 'I' for Inactive)
REMARK    1  A    between atoms: C_1  and  C_2
REMARK    2  A    between atoms: C_5  and  N_6
REMARK    3  A    between atoms: N_6  and  C_7
REMARK    4  A    between atoms: C_7  and  N_9
REMARK    5  A    between atoms: N_9  and  C_10
REMARK    6  A    between atoms: N_9  and  C_18
REMARK    7  A    between atoms: C_10  and  C_11
REMARK    8  A    between atoms: C_11  and  N_12
REMARK    9  A    between atoms: C_18  and  C_19
REMARK                            x       y       z     vdW  Elec       q    Type
REMARK                         _______ _______ _______ _____ _____    ______ ____
ROOT
ATOM      1  N   UNL     1       4.486   5.042  17.314  0.00  0.00    +0.000 N 
ENDROOT
BRANCH   1   2
ATOM      2  C   UNL     1       4.813   5.494  18.633  0.00  0.00    +0.000 C 
ATOM      3  S   UNL     1       6.398   5.509  19.211  0.00  0.00    +0.000 S 
BRANCH   2   4
ATOM      4  N   UNL     1       3.695   5.944  19.331  0.00  0.00    +0.000 N 
ATOM      5  H   UNL     1       3.413   5.359  20.109  0.00  0.00    +0.000 HD
BRANCH   4  10
ATOM      6  C   UNL     1       0.197  10.487  18.994  0.00  0.00    +0.000 C 
ATOM      7  C   UNL     1       1.114   9.303  19.069  0.00  0.00    +0.000 A 
ATOM      8  C   UNL     1       1.194   8.518  20.221  0.00  0.00    +0.000 A 
ATOM      9  C   UNL     1       2.062   7.420  20.270  0.00  0.00    +0.000 A 
ATOM     10  C   UNL     1       2.850   7.068  19.167  0.00  0.00    +0.000 A 
ATOM     11  C   UNL     1       2.784   7.870  18.028  0.00  0.00    +0.000 A 
ATOM     12  C   UNL     1       1.924   8.976  17.978  0.00  0.00    +0.000 A 
ENDBRANCH   4  10
ENDBRANCH   2   4
ENDBRANCH   1   2
BRANCH   1  13
ATOM     13  C   UNL     1       4.469   3.585  17.031  0.00  0.00    +0.000 C 
BRANCH  13  14
ATOM     14  C   UNL     1       3.240   2.797  17.543  0.00  0.00    +0.000 C 
BRANCH  14  15
ATOM     15  N   UNL     1       2.747   3.220  18.876  0.00  0.00    +0.000 NA
ATOM     16  C   UNL     1       1.276   3.294  18.929  0.00  0.00    +0.000 C 
ATOM     17  C   UNL     1       0.780   3.745  20.305  0.00  0.00    +0.000 C 
ATOM     18  C   UNL     1       1.300   2.838  21.409  0.00  0.00    +0.000 C 
ATOM     19  C   UNL     1       2.815   2.713  21.314  0.00  0.00    +0.000 C 
ATOM     20  C   UNL     1       3.254   2.297  19.909  0.00  0.00    +0.000 C 
ENDBRANCH  14  15
ENDBRANCH  13  14
ENDBRANCH   1  13
BRANCH   1  21
ATOM     21  C   UNL     1       4.745   5.929  16.167  0.00  0.00    +0.000 C 
BRANCH  21  22
ATOM     22  C   UNL     1       5.577   5.248  15.135  0.00  0.00    +0.000 A 
ATOM     23  C   UNL     1       5.308   4.395  14.083  0.00  0.00    +0.000 A 
ATOM     24  C   UNL     1       6.558   4.056  13.508  0.00  0.00    +0.000 A 
ATOM     25  C   UNL     1       7.510   4.723  14.239  0.00  0.00    +0.000 A 
ATOM     26  O   UNL     1       6.927   5.445  15.231  0.00  0.00    +0.000 OA
ENDBRANCH  21  22
ENDBRANCH   1  21
TORSDOF 8
ENDMDL
MODEL 8
REMARK VINA RESULT:      -6.9      1.798      5.933
REMARK  Name = 
REMARK  9 active torsions:
REMARK  status: ('A' for Active; 'I' for Inactive)
REMARK    1  A    between atoms: C_1  and  C_2
REMARK    2  A    between atoms: C_5  and  N_6
REMARK    3  A    between atoms: N_6  and  C_7
REMARK    4  A    between atoms: C_7  and  N_9
REMARK    5  A    between atoms: N_9  and  C_10
REMARK    6  A    between atoms: N_9  and  C_18
REMARK    7  A    between atoms: C_10  and  C_11
REMARK    8  A    between atoms: C_11  and  N_12
REMARK    9  A    between atoms: C_18  and  C_19
REMARK                            x       y       z     vdW  Elec       q    Type
REMARK                         _______ _______ _______ _____ _____    ______ ____
ROOT
ATOM      1  N   UNL     1       4.952   5.967  18.220  0.00  0.00    +0.000 N 
ENDROOT
BRANCH   1   2
ATOM      2  C   UNL     1       6.139   6.300  17.490  0.00  0.00    +0.000 C 
ATOM      3  S   UNL     1       7.639   6.469  18.243  0.00  0.00    +0.000 S 
BRANCH   2   4
ATOM      4  N   UNL     1       5.904   6.417  16.122  0.00  0.00    +0.000 N 
ATOM      5  H   UNL     1       5.587   7.331  15.820  0.00  0.00    +0.000 HD
BRANCH   4  10
ATOM      6  C   UNL     1       6.661   2.784  11.739  0.00  0.00    +0.000 C 
ATOM      7  C   UNL     1       6.451   3.727  12.886  0.00  0.00    +0.000 A 
ATOM      8  C   UNL     1       7.426   4.658  13.249  0.00  0.00    +0.000 A 
ATOM      9  C   UNL     1       7.210   5.525  14.327  0.00  0.00    +0.000 A 
ATOM     10  C   UNL     1       6.010   5.500  15.049  0.00  0.00    +0.000 A 
ATOM     11  C   UNL     1       5.050   4.552  14.697  0.00  0.00    +0.000 A 
ATOM     12  C   UNL     1       5.266   3.675  13.625  0.00  0.00    +0.000 A 
ENDBRANCH   4  10
ENDBRANCH   2   4
ENDBRANCH   1   2
BRANCH   1  13
ATOM     13  C   UNL     1       5.032   4.973  19.320  0.00  0.00    +0.000 C 
BRANCH  13  14
ATOM     14  C   UNL     1       4.705   3.507  18.949  0.00  0.00    +0.000 C 
BRANCH  14  15
ATOM     15  N   UNL     1       3.408   3.013  19.468  0.00  0.00    +0.000 NA
ATOM     16  C   UNL     1       2.809   3.937  20.448  0.00  0.00    +0.000 C 
ATOM     17  C   UNL     1       1.477   3.408  20.986  0.00  0.00    +0.000 C 
ATOM     18  C   UNL     1       0.494   3.128  19.861  0.00  0.00    +0.000 C 
ATOM     19  C   UNL     1       1.136   2.222  18.818  0.00  0.00    +0.000 C 
ATOM     20  C   UNL     1       2.480   2.780  18.345  0.00  0.00    +0.000 C 
ENDBRANCH  14  15
ENDBRANCH  13  14
ENDBRANCH   1  13
BRANCH   1  21
ATOM     21  C   UNL     1       3.642   6.112  17.562  0.00  0.00    +0.000 C 
BRANCH  21  22
ATOM     22  C   UNL     1       2.885   7.270  18.115  0.00  0.00    +0.000 A 
ATOM     23  C   UNL     1       2.236   7.522  19.308  0.00  0.00    +0.000 A 
ATOM     24  C   UNL     1       1.657   8.810  19.189  0.00  0.00    +0.000 A 
ATOM     25  C   UNL     1       1.989   9.266  17.937  0.00  0.00    +0.000 A 
ATOM     26  O   UNL     1       2.729   8.338  17.275  0.00  0.00    +0.000 OA
ENDBRANCH  21  22
ENDBRANCH   1  21
TORSDOF 8
ENDMDL
MODEL 9
REMARK VINA RESULT:      -6.8      1.816      6.052
REMARK  Name = 
REMARK  9 active torsions:
REMARK  status: ('A' for Active; 'I' for Inactive)
REMARK    1  A    between atoms: C_1  and  C_2
REMARK    2  A    between atoms: C_5  and  N_6
REMARK    3  A    between atoms: N_6  and  C_7
REMARK    4  A    between atoms: C_7  and  N_9
REMARK    5  A    between atoms: N_9  and  C_10
REMARK    6  A    between atoms: N_9  and  C_18
REMARK    7  A    between atoms: C_10  and  C_11
REMARK    8  A    between atoms: C_11  and  N_12
REMARK    9  A    between atoms: C_18  and  C_19
REMARK                            x       y       z     vdW  Elec       q    Type
REMARK                         _______ _______ _______ _____ _____    ______ ____
ROOT
ATOM      1  N   UNL     1       5.049   5.502  17.892  0.00  0.00    +0.000 N 
ENDROOT
BRANCH   1   2
ATOM      2  C   UNL     1       6.225   6.084  17.316  0.00  0.00    +0.000 C 
ATOM      3  S   UNL     1       7.593   6.443  18.235  0.00  0.00    +0.000 S 
BRANCH   2   4
ATOM      4  N   UNL     1       6.107   6.265  15.940  0.00  0.00    +0.000 N 
ATOM      5  H   UNL     1       5.793   7.186  15.656  0.00  0.00    +0.000 HD
BRANCH   4  10
ATOM      6  C   UNL     1       6.692   2.673  11.497  0.00  0.00    +0.000 C 
ATOM      7  C   UNL     1       6.551   3.617  12.654  0.00  0.00    +0.000 A 
ATOM      8  C   UNL     1       5.426   3.590  13.480  0.00  0.00    +0.000 A 
ATOM      9  C   UNL     1       5.314   4.485  14.552  0.00  0.00    +0.000 A 
ATOM     10  C   UNL     1       6.330   5.406  14.837  0.00  0.00    +0.000 A 
ATOM     11  C   UNL     1       7.439   5.444  13.993  0.00  0.00    +0.000 A 
ATOM     12  C   UNL     1       7.551   4.557  12.914  0.00  0.00    +0.000 A 
ENDBRANCH   4  10
ENDBRANCH   2   4
ENDBRANCH   1   2
BRANCH   1  13
ATOM     13  C   UNL     1       5.159   4.207  18.610  0.00  0.00    +0.000 C 
BRANCH  13  14
ATOM     14  C   UNL     1       4.269   3.054  18.091  0.00  0.00    +0.000 C 
BRANCH  14  15
ATOM     15  N   UNL     1       3.192   2.638  19.020  0.00  0.00    +0.000 NA
ATOM     16  C   UNL     1       3.398   3.159  20.384  0.00  0.00    +0.000 C 
ATOM     17  C   UNL     1       2.287   2.711  21.337  0.00  0.00    +0.000 C 
ATOM     18  C   UNL     1       0.915   3.117  20.822  0.00  0.00    +0.000 C 
ATOM     19  C   UNL     1       0.728   2.631  19.391  0.00  0.00    +0.000 C 
ATOM     20  C   UNL     1       1.885   3.076  18.494  0.00  0.00    +0.000 C 
ENDBRANCH  14  15
ENDBRANCH  13  14
ENDBRANCH   1  13
BRANCH   1  21
ATOM     21  C   UNL     1       3.735   5.819  17.309  0.00  0.00    +0.000 C 
BRANCH  21  22
ATOM     22  C   UNL     1       2.993   6.799  18.152  0.00  0.00    +0.000 A 
ATOM     23  C   UNL     1       2.529   8.085  17.959  0.00  0.00    +0.000 A 
ATOM     24  C   UNL     1       1.944   8.492  19.184  0.00  0.00    +0.000 A 
ATOM     25  C   UNL     1       2.083   7.432  20.046  0.00  0.00    +0.000 A 
ATOM     26  O   UNL     1       2.722   6.402  19.432  0.00  0.00    +0.000 OA
ENDBRANCH  21  22
ENDBRANCH   1  21
TORSDOF 8
ENDMDL
