MODEL 1
REMARK VINA RESULT:      -9.0      0.000      0.000
REMARK  Name = 
REMARK  8 active torsions:
REMARK  status: ('A' for Active; 'I' for Inactive)
REMARK    1  A    between atoms: C_2  and  C_3
REMARK    2  A    between atoms: C_3  and  C_4
REMARK    3  A    between atoms: C_4  and  C_5
REMARK    4  A    between atoms: C_5  and  C_6
REMARK    5  A    between atoms: C_6  and  C_7
REMARK    6  A    between atoms: C_7  and  N_8
REMARK    7  A    between atoms: N_11  and  C_12
REMARK    8  A    between atoms: C_12  and  C_13
REMARK                            x       y       z     vdW  Elec       q    Type
REMARK                         _______ _______ _______ _____ _____    ______ ____
ROOT
ATOM      1  C   UNL     1       8.606   9.083  18.625  0.00  0.00    +0.000 C 
ENDROOT
BRANCH   1   2
ATOM      2  C   UNL     1       9.223  10.473  18.525  0.00  0.00    +0.000 C 
BRANCH   2   4
ATOM      3  O   UNL     1       9.204  10.621  20.809  0.00  0.00    +0.000 OA
ATOM      4  C   UNL     1       9.467  11.229  19.785  0.00  0.00    +0.000 C 
ATOM      5  N   UNL     1       9.910  12.549  19.871  0.00  0.00    +0.000 N 
ATOM      6  C   UNL     1       9.732  13.342  20.972  0.00  0.00    +0.000 A 
ATOM      7  C   UNL     1       8.975  13.070  22.115  0.00  0.00    +0.000 A 
ATOM      8  C   UNL     1       8.909  14.040  23.120  0.00  0.00    +0.000 A 
ATOM      9  C   UNL     1       9.600  15.255  22.983  0.00  0.00    +0.000 A 
ATOM     10  C   UNL     1      10.350  15.525  21.824  0.00  0.00    +0.000 A 
ATOM     11  C   UNL     1      10.379  14.547  20.825  0.00  0.00    +0.000 A 
ATOM     12  C   UNL     1      10.981  14.523  19.592  0.00  0.00    +0.000 A 
ATOM     13  C   UNL     1      11.824  15.453  18.981  0.00  0.00    +0.000 A 
ATOM     14  C   UNL     1      12.328  15.149  17.708  0.00  0.00    +0.000 A 
ATOM     15  C   UNL     1      11.949  13.959  17.063  0.00  0.00    +0.000 A 
ATOM     16  C   UNL     1      11.094  13.029  17.701  0.00  0.00    +0.000 A 
ATOM     17  C   UNL     1      10.624  13.323  18.991  0.00  0.00    +0.000 A 
ENDBRANCH   2   4
ENDBRANCH   1   2
BRANCH   1  18
ATOM     18  C   UNL     1       7.542   8.665  17.576  0.00  0.00    +0.000 C 
BRANCH  18  19
ATOM     19  C   UNL     1       7.795   7.172  17.328  0.00  0.00    +0.000 C 
BRANCH  19  20
ATOM     20  C   UNL     1       7.138   6.095  18.208  0.00  0.00    +0.000 C 
BRANCH  20  21
ATOM     21  N   UNL     1       5.653   6.178  18.062  0.00  0.00    +0.000 NA
ATOM     22  C   UNL     1       5.162   5.980  16.681  0.00  0.00    +0.000 C 
ATOM     23  C   UNL     1       5.120   4.486  16.280  0.00  0.00    +0.000 C 
ATOM     24  N   UNL     1       4.377   3.652  17.257  0.00  0.00    +0.000 NA
ATOM     25  C   UNL     1       4.915   3.863  18.616  0.00  0.00    +0.000 C 
ATOM     26  C   UNL     1       4.855   5.350  19.000  0.00  0.00    +0.000 C 
BRANCH  24  27
ATOM     27  C   UNL     1       2.903   3.826  17.234  0.00  0.00    +0.000 C 
BRANCH  27  28
ATOM     28  C   UNL     1       2.269   3.529  18.563  0.00  0.00    +0.000 A 
ATOM     29  C   UNL     1       1.681   4.557  19.317  0.00  0.00    +0.000 A 
ATOM     30  C   UNL     1       1.075   4.269  20.542  0.00  0.00    +0.000 A 
ATOM     31  C   UNL     1       1.050   2.956  21.022  0.00  0.00    +0.000 A 
ATOM     32  C   UNL     1       1.633   1.928  20.276  0.00  0.00    +0.000 A 
ATOM     33  C   UNL     1       2.239   2.211  19.050  0.00  0.00    +0.000 A 
ENDBRANCH  27  28
ENDBRANCH  24  27
ENDBRANCH  20  21
ENDBRANCH  19  20
ENDBRANCH  18  19
ENDBRANCH   1  18
TORSDOF 8
ENDMDL
MODEL 2
REMARK VINA RESULT:      -9.0      1.444      3.255
REMARK  Name = 
REMARK  8 active torsions:
REMARK  status: ('A' for Active; 'I' for Inactive)
REMARK    1  A    between atoms: C_2  and  C_3
REMARK    2  A    between atoms: C_3  and  C_4
REMARK    3  A    between atoms: C_4  and  C_5
REMARK    4  A    between atoms: C_5  and  C_6
REMARK    5  A    between atoms: C_6  and  C_7
REMARK    6  A    between atoms: C_7  and  N_8
REMARK    7  A    between atoms: N_11  and  C_12
REMARK    8  A    between atoms: C_12  and  C_13
REMARK                            x       y       z     vdW  Elec       q    Type
REMARK                         _______ _______ _______ _____ _____    ______ ____
ROOT
ATOM      1  C   UNL     1       9.157  10.382  19.169  0.00  0.00    +0.000 C 
ENDROOT
BRANCH   1   2
ATOM      2  C   UNL     1      10.522  11.011  19.420  0.00  0.00    +0.000 C 
BRANCH   2   4
ATOM      3  O   UNL     1      10.964  12.895  18.199  0.00  0.00    +0.000 OA
ATOM      4  C   UNL     1      10.648  12.490  19.305  0.00  0.00    +0.000 C 
ATOM      5  N   UNL     1      10.486  13.406  20.346  0.00  0.00    +0.000 N 
ATOM      6  C   UNL     1      11.001  14.674  20.330  0.00  0.00    +0.000 A 
ATOM      7  C   UNL     1      11.879  15.236  19.399  0.00  0.00    +0.000 A 
ATOM      8  C   UNL     1      12.301  16.555  19.589  0.00  0.00    +0.000 A 
ATOM      9  C   UNL     1      11.841  17.299  20.689  0.00  0.00    +0.000 A 
ATOM     10  C   UNL     1      10.968  16.721  21.627  0.00  0.00    +0.000 A 
ATOM     11  C   UNL     1      10.581  15.393  21.425  0.00  0.00    +0.000 A 
ATOM     12  C   UNL     1       9.780  14.556  22.162  0.00  0.00    +0.000 A 
ATOM     13  C   UNL     1       9.037  14.804  23.317  0.00  0.00    +0.000 A 
ATOM     14  C   UNL     1       8.271  13.755  23.846  0.00  0.00    +0.000 A 
ATOM     15  C   UNL     1       8.299  12.486  23.242  0.00  0.00    +0.000 A 
ATOM     16  C   UNL     1       9.059  12.256  22.070  0.00  0.00    +0.000 A 
ATOM     17  C   UNL     1       9.792  13.322  21.526  0.00  0.00    +0.000 A 
ENDBRANCH   2   4
ENDBRANCH   1   2
BRANCH   1  18
ATOM     18  C   UNL     1       8.764  10.016  17.713  0.00  0.00    +0.000 C 
BRANCH  18  19
ATOM     19  C   UNL     1       7.655   8.964  17.854  0.00  0.00    +0.000 C 
BRANCH  19  20
ATOM     20  C   UNL     1       7.928   7.477  17.576  0.00  0.00    +0.000 C 
BRANCH  20  21
ATOM     21  N   UNL     1       6.846   6.933  16.698  0.00  0.00    +0.000 NA
ATOM     22  C   UNL     1       7.169   5.639  16.059  0.00  0.00    +0.000 C 
ATOM     23  C   UNL     1       6.989   4.445  17.026  0.00  0.00    +0.000 C 
ATOM     24  N   UNL     1       5.653   4.425  17.669  0.00  0.00    +0.000 NA
ATOM     25  C   UNL     1       5.383   5.726  18.315  0.00  0.00    +0.000 C 
ATOM     26  C   UNL     1       5.489   6.871  17.295  0.00  0.00    +0.000 C 
BRANCH  24  27
ATOM     27  C   UNL     1       4.534   4.030  16.777  0.00  0.00    +0.000 C 
BRANCH  27  28
ATOM     28  C   UNL     1       3.360   3.482  17.536  0.00  0.00    +0.000 A 
ATOM     29  C   UNL     1       3.457   2.251  18.204  0.00  0.00    +0.000 A 
ATOM     30  C   UNL     1       2.367   1.757  18.926  0.00  0.00    +0.000 A 
ATOM     31  C   UNL     1       1.176   2.488  18.988  0.00  0.00    +0.000 A 
ATOM     32  C   UNL     1       1.075   3.715  18.326  0.00  0.00    +0.000 A 
ATOM     33  C   UNL     1       2.161   4.212  17.603  0.00  0.00    +0.000 A 
ENDBRANCH  27  28
ENDBRANCH  24  27
ENDBRANCH  20  21
ENDBRANCH  19  20
ENDBRANCH  18  19
ENDBRANCH   1  18
TORSDOF 8
ENDMDL
MODEL 3
REMARK VINA RESULT:      -9.0      2.036     11.538
REMARK  Name = 
REMARK  8 active torsions:
REMARK  status: ('A' for Active; 'I' for Inactive)
REMARK    1  A    between atoms: C_2  and  C_3
REMARK    2  A    between atoms: C_3  and  C_4
REMARK    3  A    between atoms: C_4  and  C_5
REMARK    4  A    between atoms: C_5  and  C_6
REMARK    5  A    between atoms: C_6  and  C_7
REMARK    6  A    between atoms: C_7  and  N_8
REMARK    7  A    between atoms: N_11  and  C_12
REMARK    8  A    between atoms: C_12  and  C_13
REMARK                            x       y       z     vdW  Elec       q    Type
REMARK                         _______ _______ _______ _____ _____    ______ ____
ROOT
ATOM      1  C   UNL     1       8.326   7.313  18.745  0.00  0.00    +0.000 C 
ENDROOT
BRANCH   1   2
ATOM      2  C   UNL     1       7.980   5.835  18.876  0.00  0.00    +0.000 C 
BRANCH   2   4
ATOM      3  O   UNL     1       5.946   5.773  19.924  0.00  0.00    +0.000 OA
ATOM      4  C   UNL     1       6.543   5.447  18.911  0.00  0.00    +0.000 C 
ATOM      5  N   UNL     1       5.870   4.722  17.926  0.00  0.00    +0.000 N 
ATOM      6  C   UNL     1       4.710   4.030  18.150  0.00  0.00    +0.000 A 
ATOM      7  C   UNL     1       4.076   3.784  19.371  0.00  0.00    +0.000 A 
ATOM      8  C   UNL     1       2.901   3.026  19.374  0.00  0.00    +0.000 A 
ATOM      9  C   UNL     1       2.368   2.534  18.171  0.00  0.00    +0.000 A 
ATOM     10  C   UNL     1       3.019   2.776  16.949  0.00  0.00    +0.000 A 
ATOM     11  C   UNL     1       4.205   3.517  16.978  0.00  0.00    +0.000 A 
ATOM     12  C   UNL     1       5.072   3.888  15.980  0.00  0.00    +0.000 A 
ATOM     13  C   UNL     1       4.992   3.700  14.599  0.00  0.00    +0.000 A 
ATOM     14  C   UNL     1       6.021   4.221  13.802  0.00  0.00    +0.000 A 
ATOM     15  C   UNL     1       7.116   4.872  14.398  0.00  0.00    +0.000 A 
ATOM     16  C   UNL     1       7.176   5.054  15.801  0.00  0.00    +0.000 A 
ATOM     17  C   UNL     1       6.123   4.563  16.588  0.00  0.00    +0.000 A 
ENDBRANCH   2   4
ENDBRANCH   1   2
BRANCH   1  18
ATOM     18  C   UNL     1       7.773   8.100  17.526  0.00  0.00    +0.000 C 
BRANCH  18  19
ATOM     19  C   UNL     1       8.077   9.573  17.834  0.00  0.00    +0.000 C 
BRANCH  19  20
ATOM     20  C   UNL     1       9.089   9.966  18.923  0.00  0.00    +0.000 C 
BRANCH  20  21
ATOM     21  N   UNL     1      10.019  11.003  18.380  0.00  0.00    +0.000 NA
ATOM     22  C   UNL     1       9.357  12.254  17.951  0.00  0.00    +0.000 C 
ATOM     23  C   UNL     1       9.018  13.179  19.144  0.00  0.00    +0.000 C 
ATOM     24  N   UNL     1      10.190  13.444  20.014  0.00  0.00    +0.000 NA
ATOM     25  C   UNL     1      10.803  12.169  20.439  0.00  0.00    +0.000 C 
ATOM     26  C   UNL     1      11.201  11.324  19.218  0.00  0.00    +0.000 C 
BRANCH  24  27
ATOM     27  C   UNL     1      11.206  14.358  19.435  0.00  0.00    +0.000 C 
BRANCH  27  28
ATOM     28  C   UNL     1      10.617  15.671  19.003  0.00  0.00    +0.000 A 
ATOM     29  C   UNL     1      10.037  16.535  19.946  0.00  0.00    +0.000 A 
ATOM     30  C   UNL     1       9.510  17.764  19.539  0.00  0.00    +0.000 A 
ATOM     31  C   UNL     1       9.559  18.138  18.193  0.00  0.00    +0.000 A 
ATOM     32  C   UNL     1      10.136  17.282  17.250  0.00  0.00    +0.000 A 
ATOM     33  C   UNL     1      10.664  16.053  17.652  0.00  0.00    +0.000 A 
ENDBRANCH  27  28
ENDBRANCH  24  27
ENDBRANCH  20  21
ENDBRANCH  19  20
ENDBRANCH  18  19
ENDBRANCH   1  18
TORSDOF 8
ENDMDL
MODEL 4
REMARK VINA RESULT:      -8.9      1.968      2.990
REMARK  Name = 
REMARK  8 active torsions:
REMARK  status: ('A' for Active; 'I' for Inactive)
REMARK    1  A    between atoms: C_2  and  C_3
REMARK    2  A    between atoms: C_3  and  C_4
REMARK    3  A    between atoms: C_4  and  C_5
REMARK    4  A    between atoms: C_5  and  C_6
REMARK    5  A    between atoms: C_6  and  C_7
REMARK    6  A    between atoms: C_7  and  N_8
REMARK    7  A    between atoms: N_11  and  C_12
REMARK    8  A    between atoms: C_12  and  C_13
REMARK                            x       y       z     vdW  Elec       q    Type
REMARK                         _______ _______ _______ _____ _____    ______ ____
ROOT
ATOM      1  C   UNL     1       9.599  10.937  17.939  0.00  0.00    +0.000 C 
ENDROOT
BRANCH   1   2
ATOM      2  C   UNL     1       9.748  12.352  18.484  0.00  0.00    +0.000 C 
BRANCH   2   4
ATOM      3  O   UNL     1      10.475  11.950  20.617  0.00  0.00    +0.000 OA
ATOM      4  C   UNL     1       9.647  12.554  19.956  0.00  0.00    +0.000 C 
ATOM      5  N   UNL     1       8.678  13.318  20.609  0.00  0.00    +0.000 N 
ATOM      6  C   UNL     1       8.348  13.162  21.928  0.00  0.00    +0.000 A 
ATOM      7  C   UNL     1       8.768  12.160  22.808  0.00  0.00    +0.000 A 
ATOM      8  C   UNL     1       8.284  12.176  24.120  0.00  0.00    +0.000 A 
ATOM      9  C   UNL     1       7.403  13.186  24.541  0.00  0.00    +0.000 A 
ATOM     10  C   UNL     1       6.977  14.183  23.646  0.00  0.00    +0.000 A 
ATOM     11  C   UNL     1       7.458  14.129  22.334  0.00  0.00    +0.000 A 
ATOM     12  C   UNL     1       7.210  14.920  21.240  0.00  0.00    +0.000 A 
ATOM     13  C   UNL     1       6.449  16.084  21.122  0.00  0.00    +0.000 A 
ATOM     14  C   UNL     1       6.397  16.713  19.870  0.00  0.00    +0.000 A 
ATOM     15  C   UNL     1       7.062  16.150  18.768  0.00  0.00    +0.000 A 
ATOM     16  C   UNL     1       7.831  14.970  18.909  0.00  0.00    +0.000 A 
ATOM     17  C   UNL     1       7.909  14.367  20.175  0.00  0.00    +0.000 A 
ENDBRANCH   2   4
ENDBRANCH   1   2
BRANCH   1  18
ATOM     18  C   UNL     1       8.869   9.878  18.808  0.00  0.00    +0.000 C 
BRANCH  18  19
ATOM     19  C   UNL     1       8.082   9.019  17.810  0.00  0.00    +0.000 C 
BRANCH  19  20
ATOM     20  C   UNL     1       7.873   7.514  18.045  0.00  0.00    +0.000 C 
BRANCH  20  21
ATOM     21  N   UNL     1       6.839   7.005  17.093  0.00  0.00    +0.000 NA
ATOM     22  C   UNL     1       7.249   5.807  16.328  0.00  0.00    +0.000 C 
ATOM     23  C   UNL     1       7.127   4.508  17.160  0.00  0.00    +0.000 C 
ATOM     24  N   UNL     1       5.784   4.343  17.769  0.00  0.00    +0.000 NA
ATOM     25  C   UNL     1       5.427   5.549  18.542  0.00  0.00    +0.000 C 
ATOM     26  C   UNL     1       5.479   6.801  17.651  0.00  0.00    +0.000 C 
BRANCH  24  27
ATOM     27  C   UNL     1       4.705   3.980  16.816  0.00  0.00    +0.000 C 
BRANCH  27  28
ATOM     28  C   UNL     1       3.469   3.484  17.511  0.00  0.00    +0.000 A 
ATOM     29  C   UNL     1       3.464   2.233  18.148  0.00  0.00    +0.000 A 
ATOM     30  C   UNL     1       2.317   1.788  18.810  0.00  0.00    +0.000 A 
ATOM     31  C   UNL     1       1.170   2.586  18.843  0.00  0.00    +0.000 A 
ATOM     32  C   UNL     1       1.170   3.834  18.212  0.00  0.00    +0.000 A 
ATOM     33  C   UNL     1       2.313   4.283  17.549  0.00  0.00    +0.000 A 
ENDBRANCH  27  28
ENDBRANCH  24  27
ENDBRANCH  20  21
ENDBRANCH  19  20
ENDBRANCH  18  19
ENDBRANCH   1  18
TORSDOF 8
ENDMDL
MODEL 5
REMARK VINA RESULT:      -8.7      1.656      2.311
REMARK  Name = 
REMARK  8 active torsions:
REMARK  status: ('A' for Active; 'I' for Inactive)
REMARK    1  A    between atoms: C_2  and  C_3
REMARK    2  A    between atoms: C_3  and  C_4
REMARK    3  A    between atoms: C_4  and  C_5
REMARK    4  A    between atoms: C_5  and  C_6
REMARK    5  A    between atoms: C_6  and  C_7
REMARK    6  A    between atoms: C_7  and  N_8
REMARK    7  A    between atoms: N_11  and  C_12
REMARK    8  A    between atoms: C_12  and  C_13
REMARK                            x       y       z     vdW  Elec       q    Type
REMARK                         _______ _______ _______ _____ _____    ______ ____
ROOT
ATOM      1  C   UNL     1       9.488  10.205  18.379  0.00  0.00    +0.000 C 
ENDROOT
BRANCH   1   2
ATOM      2  C   UNL     1       9.916  10.757  19.734  0.00  0.00    +0.000 C 
BRANCH   2   4
ATOM      3  O   UNL     1       8.724  12.028  21.217  0.00  0.00    +0.000 OA
ATOM      4  C   UNL     1       9.352  12.063  20.172  0.00  0.00    +0.000 C 
ATOM      5  N   UNL     1       9.446  13.268  19.473  0.00  0.00    +0.000 N 
ATOM      6  C   UNL     1       8.598  14.325  19.662  0.00  0.00    +0.000 A 
ATOM      7  C   UNL     1       7.432  14.367  20.432  0.00  0.00    +0.000 A 
ATOM      8  C   UNL     1       6.696  15.555  20.467  0.00  0.00    +0.000 A 
ATOM      9  C   UNL     1       7.130  16.683  19.750  0.00  0.00    +0.000 A 
ATOM     10  C   UNL     1       8.297  16.628  18.969  0.00  0.00    +0.000 A 
ATOM     11  C   UNL     1       9.001  15.420  18.933  0.00  0.00    +0.000 A 
ATOM     12  C   UNL     1      10.135  15.047  18.256  0.00  0.00    +0.000 A 
ATOM     13  C   UNL     1      10.987  15.794  17.442  0.00  0.00    +0.000 A 
ATOM     14  C   UNL     1      12.109  15.152  16.897  0.00  0.00    +0.000 A 
ATOM     15  C   UNL     1      12.327  13.785  17.138  0.00  0.00    +0.000 A 
ATOM     16  C   UNL     1      11.451  13.045  17.968  0.00  0.00    +0.000 A 
ATOM     17  C   UNL     1      10.352  13.705  18.541  0.00  0.00    +0.000 A 
ENDBRANCH   2   4
ENDBRANCH   1   2
BRANCH   1  18
ATOM     18  C   UNL     1       7.982   9.920  18.134  0.00  0.00    +0.000 C 
BRANCH  18  19
ATOM     19  C   UNL     1       7.931   8.478  17.611  0.00  0.00    +0.000 C 
BRANCH  19  20
ATOM     20  C   UNL     1       8.071   7.280  18.564  0.00  0.00    +0.000 C 
BRANCH  20  21
ATOM     21  N   UNL     1       7.596   6.043  17.873  0.00  0.00    +0.000 NA
ATOM     22  C   UNL     1       6.860   5.100  18.743  0.00  0.00    +0.000 C 
ATOM     23  C   UNL     1       5.394   5.537  18.976  0.00  0.00    +0.000 C 
ATOM     24  N   UNL     1       4.668   5.803  17.709  0.00  0.00    +0.000 NA
ATOM     25  C   UNL     1       5.425   6.766  16.885  0.00  0.00    +0.000 C 
ATOM     26  C   UNL     1       6.845   6.247  16.609  0.00  0.00    +0.000 C 
BRANCH  24  27
ATOM     27  C   UNL     1       4.312   4.593  16.926  0.00  0.00    +0.000 C 
BRANCH  27  28
ATOM     28  C   UNL     1       3.263   3.759  17.603  0.00  0.00    +0.000 A 
ATOM     29  C   UNL     1       3.578   2.483  18.097  0.00  0.00    +0.000 A 
ATOM     30  C   UNL     1       2.601   1.721  18.745  0.00  0.00    +0.000 A 
ATOM     31  C   UNL     1       1.307   2.227  18.904  0.00  0.00    +0.000 A 
ATOM     32  C   UNL     1       0.989   3.497  18.416  0.00  0.00    +0.000 A 
ATOM     33  C   UNL     1       1.961   4.262  17.769  0.00  0.00    +0.000 A 
ENDBRANCH  27  28
ENDBRANCH  24  27
ENDBRANCH  20  21
ENDBRANCH  19  20
ENDBRANCH  18  19
ENDBRANCH   1  18
TORSDOF 8
ENDMDL
MODEL 6
REMARK VINA RESULT:      -8.7      1.783      3.299
REMARK  Name = 
REMARK  8 active torsions:
REMARK  status: ('A' for Active; 'I' for Inactive)
REMARK    1  A    between atoms: C_2  and  C_3
REMARK    2  A    between atoms: C_3  and  C_4
REMARK    3  A    between atoms: C_4  and  C_5
REMARK    4  A    between atoms: C_5  and  C_6
REMARK    5  A    between atoms: C_6  and  C_7
REMARK    6  A    between atoms: C_7  and  N_8
REMARK    7  A    between atoms: N_11  and  C_12
REMARK    8  A    between atoms: C_12  and  C_13
REMARK                            x       y       z     vdW  Elec       q    Type
REMARK                         _______ _______ _______ _____ _____    ______ ____
ROOT
ATOM      1  C   UNL     1       9.278  10.152  19.046  0.00  0.00    +0.000 C 
ENDROOT
BRANCH   1   2
ATOM      2  C   UNL     1      10.138  11.391  18.826  0.00  0.00    +0.000 C 
BRANCH   2   4
ATOM      3  O   UNL     1       9.186  12.961  17.459  0.00  0.00    +0.000 OA
ATOM      4  C   UNL     1       9.452  12.697  18.620  0.00  0.00    +0.000 C 
ATOM      5  N   UNL     1       9.151  13.626  19.617  0.00  0.00    +0.000 N 
ATOM      6  C   UNL     1       8.916  14.952  19.376  0.00  0.00    +0.000 A 
ATOM      7  C   UNL     1       9.076  15.651  18.175  0.00  0.00    +0.000 A 
ATOM      8  C   UNL     1       8.800  17.021  18.157  0.00  0.00    +0.000 A 
ATOM      9  C   UNL     1       8.362  17.675  19.321  0.00  0.00    +0.000 A 
ATOM     10  C   UNL     1       8.215  16.967  20.527  0.00  0.00    +0.000 A 
ATOM     11  C   UNL     1       8.521  15.603  20.522  0.00  0.00    +0.000 A 
ATOM     12  C   UNL     1       8.509  14.663  21.523  0.00  0.00    +0.000 A 
ATOM     13  C   UNL     1       8.109  14.770  22.856  0.00  0.00    +0.000 A 
ATOM     14  C   UNL     1       8.174  13.621  23.658  0.00  0.00    +0.000 A 
ATOM     15  C   UNL     1       8.672  12.418  23.129  0.00  0.00    +0.000 A 
ATOM     16  C   UNL     1       9.071  12.330  21.774  0.00  0.00    +0.000 A 
ATOM     17  C   UNL     1       8.967  13.475  20.968  0.00  0.00    +0.000 A 
ENDBRANCH   2   4
ENDBRANCH   1   2
BRANCH   1  18
ATOM     18  C   UNL     1       8.024   9.949  18.155  0.00  0.00    +0.000 C 
BRANCH  18  19
ATOM     19  C   UNL     1       8.275   8.631  17.410  0.00  0.00    +0.000 C 
BRANCH  19  20
ATOM     20  C   UNL     1       7.700   7.302  17.927  0.00  0.00    +0.000 C 
BRANCH  20  21
ATOM     21  N   UNL     1       6.578   6.873  17.038  0.00  0.00    +0.000 NA
ATOM     22  C   UNL     1       6.911   5.755  16.128  0.00  0.00    +0.000 C 
ATOM     23  C   UNL     1       6.874   4.383  16.843  0.00  0.00    +0.000 C 
ATOM     24  N   UNL     1       5.598   4.148  17.563  0.00  0.00    +0.000 NA
ATOM     25  C   UNL     1       5.318   5.274  18.477  0.00  0.00    +0.000 C 
ATOM     26  C   UNL     1       5.280   6.603  17.705  0.00  0.00    +0.000 C 
BRANCH  24  27
ATOM     27  C   UNL     1       4.431   3.864  16.692  0.00  0.00    +0.000 C 
BRANCH  27  28
ATOM     28  C   UNL     1       3.236   3.389  17.470  0.00  0.00    +0.000 A 
ATOM     29  C   UNL     1       3.257   2.141  18.113  0.00  0.00    +0.000 A 
ATOM     30  C   UNL     1       2.150   1.715  18.852  0.00  0.00    +0.000 A 
ATOM     31  C   UNL     1       1.018   2.530  18.955  0.00  0.00    +0.000 A 
ATOM     32  C   UNL     1       0.993   3.774  18.318  0.00  0.00    +0.000 A 
ATOM     33  C   UNL     1       2.097   4.204  17.579  0.00  0.00    +0.000 A 
ENDBRANCH  27  28
ENDBRANCH  24  27
ENDBRANCH  20  21
ENDBRANCH  19  20
ENDBRANCH  18  19
ENDBRANCH   1  18
TORSDOF 8
ENDMDL
MODEL 7
REMARK VINA RESULT:      -8.7      7.311     11.907
REMARK  Name = 
REMARK  8 active torsions:
REMARK  status: ('A' for Active; 'I' for Inactive)
REMARK    1  A    between atoms: C_2  and  C_3
REMARK    2  A    between atoms: C_3  and  C_4
REMARK    3  A    between atoms: C_4  and  C_5
REMARK    4  A    between atoms: C_5  and  C_6
REMARK    5  A    between atoms: C_6  and  C_7
REMARK    6  A    between atoms: C_7  and  N_8
REMARK    7  A    between atoms: N_11  and  C_12
REMARK    8  A    between atoms: C_12  and  C_13
REMARK                            x       y       z     vdW  Elec       q    Type
REMARK                         _______ _______ _______ _____ _____    ______ ____
ROOT
ATOM      1  C   UNL     1       1.723   9.052  17.799  0.00  0.00    +0.000 C 
ENDROOT
BRANCH   1   2
ATOM      2  C   UNL     1       2.186   7.742  18.425  0.00  0.00    +0.000 C 
BRANCH   2   4
ATOM      3  O   UNL     1       4.356   7.856  17.705  0.00  0.00    +0.000 OA
ATOM      4  C   UNL     1       3.416   7.099  17.885  0.00  0.00    +0.000 C 
ATOM      5  N   UNL     1       3.547   5.754  17.537  0.00  0.00    +0.000 N 
ATOM      6  C   UNL     1       4.502   5.279  16.680  0.00  0.00    +0.000 A 
ATOM      7  C   UNL     1       5.394   6.013  15.893  0.00  0.00    +0.000 A 
ATOM      8  C   UNL     1       6.279   5.321  15.061  0.00  0.00    +0.000 A 
ATOM      9  C   UNL     1       6.274   3.916  15.030  0.00  0.00    +0.000 A 
ATOM     10  C   UNL     1       5.366   3.186  15.816  0.00  0.00    +0.000 A 
ATOM     11  C   UNL     1       4.477   3.905  16.620  0.00  0.00    +0.000 A 
ATOM     12  C   UNL     1       3.471   3.494  17.460  0.00  0.00    +0.000 A 
ATOM     13  C   UNL     1       3.075   2.208  17.830  0.00  0.00    +0.000 A 
ATOM     14  C   UNL     1       2.020   2.081  18.746  0.00  0.00    +0.000 A 
ATOM     15  C   UNL     1       1.365   3.226  19.232  0.00  0.00    +0.000 A 
ATOM     16  C   UNL     1       1.784   4.522  18.844  0.00  0.00    +0.000 A 
ATOM     17  C   UNL     1       2.865   4.640  17.957  0.00  0.00    +0.000 A 
ENDBRANCH   2   4
ENDBRANCH   1   2
BRANCH   1  18
ATOM     18  C   UNL     1       0.549   9.820  18.465  0.00  0.00    +0.000 C 
BRANCH  18  19
ATOM     19  C   UNL     1       1.161  11.145  18.941  0.00  0.00    +0.000 C 
BRANCH  19  20
ATOM     20  C   UNL     1       0.727  11.791  20.267  0.00  0.00    +0.000 C 
BRANCH  20  21
ATOM     21  N   UNL     1      -0.619  11.269  20.652  0.00  0.00    +0.000 NA
ATOM     22  C   UNL     1      -0.803  11.063  22.105  0.00  0.00    +0.000 C 
ATOM     23  C   UNL     1      -1.098  12.385  22.854  0.00  0.00    +0.000 C 
ATOM     24  N   UNL     1      -2.225  13.142  22.256  0.00  0.00    +0.000 NA
ATOM     25  C   UNL     1      -1.989  13.346  20.813  0.00  0.00    +0.000 C 
ATOM     26  C   UNL     1      -1.787  11.999  20.099  0.00  0.00    +0.000 C 
BRANCH  24  27
ATOM     27  C   UNL     1      -3.569  12.560  22.500  0.00  0.00    +0.000 C 
BRANCH  27  28
ATOM     28  C   UNL     1      -4.549  13.576  23.013  0.00  0.00    +0.000 A 
ATOM     29  C   UNL     1      -4.100  14.808  23.514  0.00  0.00    +0.000 A 
ATOM     30  C   UNL     1      -5.020  15.757  23.970  0.00  0.00    +0.000 A 
ATOM     31  C   UNL     1      -6.390  15.482  23.929  0.00  0.00    +0.000 A 
ATOM     32  C   UNL     1      -6.843  14.258  23.430  0.00  0.00    +0.000 A 
ATOM     33  C   UNL     1      -5.928  13.308  22.973  0.00  0.00    +0.000 A 
ENDBRANCH  27  28
ENDBRANCH  24  27
ENDBRANCH  20  21
ENDBRANCH  19  20
ENDBRANCH  18  19
ENDBRANCH   1  18
TORSDOF 8
ENDMDL
MODEL 8
REMARK VINA RESULT:      -8.7      1.846      2.454
REMARK  Name = 
REMARK  8 active torsions:
REMARK  status: ('A' for Active; 'I' for Inactive)
REMARK    1  A    between atoms: C_2  and  C_3
REMARK    2  A    between atoms: C_3  and  C_4
REMARK    3  A    between atoms: C_4  and  C_5
REMARK    4  A    between atoms: C_5  and  C_6
REMARK    5  A    between atoms: C_6  and  C_7
REMARK    6  A    between atoms: C_7  and  N_8
REMARK    7  A    between atoms: N_11  and  C_12
REMARK    8  A    between atoms: C_12  and  C_13
REMARK                            x       y       z     vdW  Elec       q    Type
REMARK                         _______ _______ _______ _____ _____    ______ ____
ROOT
ATOM      1  C   UNL     1       8.701  10.506  18.030  0.00  0.00    +0.000 C 
ENDROOT
BRANCH   1   2
ATOM      2  C   UNL     1       9.861  11.371  18.507  0.00  0.00    +0.000 C 
BRANCH   2   4
ATOM      3  O   UNL     1      10.543  11.453  20.690  0.00  0.00    +0.000 OA
ATOM      4  C   UNL     1       9.788  11.957  19.874  0.00  0.00    +0.000 C 
ATOM      5  N   UNL     1       8.916  12.967  20.284  0.00  0.00    +0.000 N 
ATOM      6  C   UNL     1       8.574  13.194  21.589  0.00  0.00    +0.000 A 
ATOM      7  C   UNL     1       8.878  12.412  22.707  0.00  0.00    +0.000 A 
ATOM      8  C   UNL     1       8.404  12.819  23.958  0.00  0.00    +0.000 A 
ATOM      9  C   UNL     1       7.647  13.997  24.083  0.00  0.00    +0.000 A 
ATOM     10  C   UNL     1       7.335  14.770  22.951  0.00  0.00    +0.000 A 
ATOM     11  C   UNL     1       7.803  14.326  21.710  0.00  0.00    +0.000 A 
ATOM     12  C   UNL     1       7.645  14.832  20.443  0.00  0.00    +0.000 A 
ATOM     13  C   UNL     1       7.022  16.004  20.011  0.00  0.00    +0.000 A 
ATOM     14  C   UNL     1       7.039  16.291  18.638  0.00  0.00    +0.000 A 
ATOM     15  C   UNL     1       7.632  15.392  17.735  0.00  0.00    +0.000 A 
ATOM     16  C   UNL     1       8.260  14.209  18.195  0.00  0.00    +0.000 A 
ATOM     17  C   UNL     1       8.271  13.948  19.574  0.00  0.00    +0.000 A 
ENDBRANCH   2   4
ENDBRANCH   1   2
BRANCH   1  18
ATOM     18  C   UNL     1       8.652   9.019  18.472  0.00  0.00    +0.000 C 
BRANCH  18  19
ATOM     19  C   UNL     1       7.438   8.428  17.742  0.00  0.00    +0.000 C 
BRANCH  19  20
ATOM     20  C   UNL     1       7.548   7.115  16.948  0.00  0.00    +0.000 C 
BRANCH  20  21
ATOM     21  N   UNL     1       7.201   5.969  17.841  0.00  0.00    +0.000 NA
ATOM     22  C   UNL     1       5.906   6.109  18.542  0.00  0.00    +0.000 C 
ATOM     23  C   UNL     1       4.704   5.767  17.630  0.00  0.00    +0.000 C 
ATOM     24  N   UNL     1       4.839   4.441  16.979  0.00  0.00    +0.000 NA
ATOM     25  C   UNL     1       6.132   4.354  16.272  0.00  0.00    +0.000 C 
ATOM     26  C   UNL     1       7.299   4.616  17.238  0.00  0.00    +0.000 C 
BRANCH  24  27
ATOM     27  C   UNL     1       4.644   3.278  17.880  0.00  0.00    +0.000 C 
BRANCH  27  28
ATOM     28  C   UNL     1       3.333   3.332  18.612  0.00  0.00    +0.000 A 
ATOM     29  C   UNL     1       2.126   3.124  17.925  0.00  0.00    +0.000 A 
ATOM     30  C   UNL     1       0.912   3.155  18.617  0.00  0.00    +0.000 A 
ATOM     31  C   UNL     1       0.895   3.392  19.995  0.00  0.00    +0.000 A 
ATOM     32  C   UNL     1       2.094   3.598  20.684  0.00  0.00    +0.000 A 
ATOM     33  C   UNL     1       3.309   3.568  19.997  0.00  0.00    +0.000 A 
ENDBRANCH  27  28
ENDBRANCH  24  27
ENDBRANCH  20  21
ENDBRANCH  19  20
ENDBRANCH  18  19
ENDBRANCH   1  18
TORSDOF 8
ENDMDL
MODEL 9
REMARK VINA RESULT:      -8.7      6.581     12.086
REMARK  Name = 
REMARK  8 active torsions:
REMARK  status: ('A' for Active; 'I' for Inactive)
REMARK    1  A    between atoms: C_2  and  C_3
REMARK    2  A    between atoms: C_3  and  C_4
REMARK    3  A    between atoms: C_4  and  C_5
REMARK    4  A    between atoms: C_5  and  C_6
REMARK    5  A    between atoms: C_6  and  C_7
REMARK    6  A    between atoms: C_7  and  N_8
REMARK    7  A    between atoms: N_11  and  C_12
REMARK    8  A    between atoms: C_12  and  C_13
REMARK                            x       y       z     vdW  Elec       q    Type
REMARK                         _______ _______ _______ _____ _____    ______ ____
ROOT
ATOM      1  C   UNL     1       1.485   8.101  20.781  0.00  0.00    +0.000 C 
ENDROOT
BRANCH   1   2
ATOM      2  C   UNL     1       1.477   7.877  19.273  0.00  0.00    +0.000 C 
BRANCH   2   4
ATOM      3  O   UNL     1       3.545   8.164  18.334  0.00  0.00    +0.000 OA
ATOM      4  C   UNL     1       2.707   7.330  18.636  0.00  0.00    +0.000 C 
ATOM      5  N   UNL     1       2.938   5.989  18.326  0.00  0.00    +0.000 N 
ATOM      6  C   UNL     1       3.847   5.568  17.394  0.00  0.00    +0.000 A 
ATOM      7  C   UNL     1       4.581   6.347  16.494  0.00  0.00    +0.000 A 
ATOM      8  C   UNL     1       5.445   5.705  15.603  0.00  0.00    +0.000 A 
ATOM      9  C   UNL     1       5.578   4.306  15.624  0.00  0.00    +0.000 A 
ATOM     10  C   UNL     1       4.827   3.529  16.524  0.00  0.00    +0.000 A 
ATOM     11  C   UNL     1       3.953   4.197  17.388  0.00  0.00    +0.000 A 
ATOM     12  C   UNL     1       3.081   3.730  18.340  0.00  0.00    +0.000 A 
ATOM     13  C   UNL     1       2.853   2.431  18.795  0.00  0.00    +0.000 A 
ATOM     14  C   UNL     1       1.910   2.247  19.817  0.00  0.00    +0.000 A 
ATOM     15  C   UNL     1       1.194   3.345  20.325  0.00  0.00    +0.000 A 
ATOM     16  C   UNL     1       1.442   4.655  19.850  0.00  0.00    +0.000 A 
ATOM     17  C   UNL     1       2.415   4.835  18.854  0.00  0.00    +0.000 A 
ENDBRANCH   2   4
ENDBRANCH   1   2
BRANCH   1  18
ATOM     18  C   UNL     1       0.150   8.463  21.485  0.00  0.00    +0.000 C 
BRANCH  18  19
ATOM     19  C   UNL     1       0.248   9.968  21.770  0.00  0.00    +0.000 C 
BRANCH  19  20
ATOM     20  C   UNL     1       0.692  10.958  20.680  0.00  0.00    +0.000 C 
BRANCH  20  21
ATOM     21  N   UNL     1      -0.227  12.137  20.682  0.00  0.00    +0.000 NA
ATOM     22  C   UNL     1       0.206  13.249  21.555  0.00  0.00    +0.000 C 
ATOM     23  C   UNL     1       1.315  14.110  20.905  0.00  0.00    +0.000 C 
ATOM     24  N   UNL     1       0.949  14.584  19.547  0.00  0.00    +0.000 NA
ATOM     25  C   UNL     1       0.548  13.440  18.703  0.00  0.00    +0.000 C 
ATOM     26  C   UNL     1      -0.613  12.668  19.351  0.00  0.00    +0.000 C 
BRANCH  24  27
ATOM     27  C   UNL     1      -0.076  15.658  19.514  0.00  0.00    +0.000 C 
BRANCH  27  28
ATOM     28  C   UNL     1       0.223  16.704  18.478  0.00  0.00    +0.000 A 
ATOM     29  C   UNL     1       1.534  16.889  18.012  0.00  0.00    +0.000 A 
ATOM     30  C   UNL     1       1.800  17.850  17.032  0.00  0.00    +0.000 A 
ATOM     31  C   UNL     1       0.763  18.629  16.513  0.00  0.00    +0.000 A 
ATOM     32  C   UNL     1      -0.545  18.448  16.972  0.00  0.00    +0.000 A 
ATOM     33  C   UNL     1      -0.816  17.489  17.950  0.00  0.00    +0.000 A 
ENDBRANCH  27  28
ENDBRANCH  24  27
ENDBRANCH  20  21
ENDBRANCH  19  20
ENDBRANCH  18  19
ENDBRANCH   1  18
TORSDOF 8
ENDMDL
