MODEL 1
REMARK VINA RESULT:      -8.1      0.000      0.000
REMARK  Name = 
REMARK  15 active torsions:
REMARK  status: ('A' for Active; 'I' for Inactive)
REMARK    1  A    between atoms: C_2  and  C_3
REMARK    2  A    between atoms: C_3  and  N_4
REMARK    3  A    between atoms: N_4  and  C_5
REMARK    4  A    between atoms: N_4  and  C_18
REMARK    5  A    between atoms: C_5  and  C_6
REMARK    6  A    between atoms: C_11  and  C_12
REMARK    7  A    between atoms: C_14  and  S_15
REMARK    8  A    between atoms: C_21  and  C_22
REMARK    9  A    between atoms: N_24  and  CA_25
REMARK   10  A    between atoms: CA_25  and  CB_26
REMARK   11  A    between atoms: CA_25  and  C_31
REMARK   12  A    between atoms: CB_26  and  CG_27
REMARK   13  A    between atoms: CG_27  and  CD_28
REMARK   14  A    between atoms: CD_28  and  OE2_30
REMARK   15  A    between atoms: C_31  and  OXT_33
REMARK                            x       y       z     vdW  Elec       q    Type
REMARK                         _______ _______ _______ _____ _____    ______ ____
ROOT
ATOM      1  C   UNK A   0       1.327   9.636  19.250  0.00  0.00    +0.000 A 
ATOM      2  C   UNK A   0       1.259   8.701  20.300  0.00  0.00    +0.000 A 
ATOM      3  C   UNK A   0       1.737   7.395  20.180  0.00  0.00    +0.000 A 
ATOM      4  C   UNK A   0       2.295   6.970  18.979  0.00  0.00    +0.000 A 
ATOM      5  C   UNK A   0       2.289   7.836  17.881  0.00  0.00    +0.000 A 
ATOM      6  C   UNK A   0       1.803   9.144  18.024  0.00  0.00    +0.000 A 
ENDROOT
BRANCH   4   7
ATOM      7  C   UNK A   0       2.890   5.614  18.951  0.00  0.00    +0.000 C 
ATOM      8  O   UNK A   0       2.735   4.843  19.889  0.00  0.00    +0.000 OA
ATOM      9  N   GLU A   1       3.652   5.305  17.848  0.00  0.00    +0.000 N 
ATOM     10  H   GLU A   1       3.882   6.020  17.166  0.00  0.00    +0.000 HD
BRANCH   9  11
ATOM     11  CA  GLU A   1       4.364   4.035  17.748  0.00  0.00    +0.000 C 
BRANCH  11  12
ATOM     12  C   GLU A   1       5.380   4.009  18.894  0.00  0.00    +0.000 C 
ATOM     13  O   GLU A   1       6.226   4.876  19.062  0.00  0.00    +0.000 OA
BRANCH  12  14
ATOM     14  OXT GLU A   1       5.244   2.961  19.738  0.00  0.00    +0.000 OA
ATOM     15  HXT GLU A   1       5.589   3.112  20.646  0.00  0.00    +0.000 HD
ENDBRANCH  12  14
ENDBRANCH  11  12
BRANCH  11  16
ATOM     16  CB  GLU A   1       5.061   3.910  16.382  0.00  0.00    +0.000 C 
BRANCH  16  17
ATOM     17  CG  GLU A   1       5.655   5.207  15.854  0.00  0.00    +0.000 C 
BRANCH  17  18
ATOM     18  CD  GLU A   1       7.112   5.028  15.532  0.00  0.00    +0.000 C 
ATOM     19  OE1 GLU A   1       7.596   5.402  14.469  0.00  0.00    +0.000 OA
BRANCH  18  20
ATOM     20  OE2 GLU A   1       7.843   4.521  16.538  0.00  0.00    +0.000 OA
ATOM     21  HE2 GLU A   1       7.948   5.116  17.311  0.00  0.00    +0.000 HD
ENDBRANCH  18  20
ENDBRANCH  17  18
ENDBRANCH  16  17
ENDBRANCH  11  16
ENDBRANCH   9  11
ENDBRANCH   4   7
BRANCH   1  22
ATOM     22  N   UNK A   0       0.978  10.977  19.441  0.00  0.00    +0.000 N 
BRANCH  22  23
ATOM     23  C   UNK A   0       0.151  11.661  18.415  0.00  0.00    +0.000 C 
BRANCH  23  25
ATOM     24  C   UNK A   0      -2.234  10.171  18.159  0.00  0.00    +0.000 C 
ATOM     25  C   UNK A   0      -1.133  10.860  18.277  0.00  0.00    +0.000 C 
ENDBRANCH  23  25
ENDBRANCH  22  23
BRANCH  22  26
ATOM     26  C   UNK A   0       1.165  11.667  20.745  0.00  0.00    +0.000 C 
BRANCH  26  27
ATOM     27  C   UNK A   0      -0.065  11.914  21.631  0.00  0.00    +0.000 A 
ATOM     28  C   UNK A   0      -0.461  10.929  22.547  0.00  0.00    +0.000 A 
ATOM     29  C   UNK A   0      -1.670  11.039  23.262  0.00  0.00    +0.000 A 
ATOM     30  C   UNK A   0      -2.544  12.104  23.077  0.00  0.00    +0.000 A 
ATOM     31  N   UNK A   0      -3.748  12.080  23.669  0.00  0.00    +0.000 NA
ATOM     32  C   UNK A   0      -4.591  13.097  23.411  0.00  0.00    +0.000 A 
ATOM     33  C   UNK A   0      -6.011  12.985  23.885  0.00  0.00    +0.000 C 
ATOM     34  N   UNK A   0      -4.277  14.179  22.692  0.00  0.00    +0.000 NA
ATOM     35  C   UNK A   0      -3.053  14.190  22.128  0.00  0.00    +0.000 A 
ATOM     36  C   UNK A   0      -2.128  13.142  22.241  0.00  0.00    +0.000 A 
ATOM     37  C   UNK A   0      -0.880  13.048  21.547  0.00  0.00    +0.000 A 
BRANCH  35  38
ATOM     38  S   UNK A   0      -2.744  15.658  21.163  0.00  0.00    +0.000 S 
ATOM     39  H   UNK A   0      -1.742  16.071  21.952  0.00  0.00    +0.000 HD
ENDBRANCH  35  38
ENDBRANCH  26  27
ENDBRANCH  22  26
ENDBRANCH   1  22
TORSDOF 14
ENDMDL
MODEL 2
REMARK VINA RESULT:      -7.9      1.891      3.302
REMARK  Name = 
REMARK  15 active torsions:
REMARK  status: ('A' for Active; 'I' for Inactive)
REMARK    1  A    between atoms: C_2  and  C_3
REMARK    2  A    between atoms: C_3  and  N_4
REMARK    3  A    between atoms: N_4  and  C_5
REMARK    4  A    between atoms: N_4  and  C_18
REMARK    5  A    between atoms: C_5  and  C_6
REMARK    6  A    between atoms: C_11  and  C_12
REMARK    7  A    between atoms: C_14  and  S_15
REMARK    8  A    between atoms: C_21  and  C_22
REMARK    9  A    between atoms: N_24  and  CA_25
REMARK   10  A    between atoms: CA_25  and  CB_26
REMARK   11  A    between atoms: CA_25  and  C_31
REMARK   12  A    between atoms: CB_26  and  CG_27
REMARK   13  A    between atoms: CG_27  and  CD_28
REMARK   14  A    between atoms: CD_28  and  OE2_30
REMARK   15  A    between atoms: C_31  and  OXT_33
REMARK                            x       y       z     vdW  Elec       q    Type
REMARK                         _______ _______ _______ _____ _____    ______ ____
ROOT
ATOM      1  C   UNK A   0       1.332   9.899  19.151  0.00  0.00    +0.000 A 
ATOM      2  C   UNK A   0       1.371   8.913  20.155  0.00  0.00    +0.000 A 
ATOM      3  C   UNK A   0       2.011   7.684  19.983  0.00  0.00    +0.000 A 
ATOM      4  C   UNK A   0       2.631   7.391  18.773  0.00  0.00    +0.000 A 
ATOM      5  C   UNK A   0       2.527   8.301  17.717  0.00  0.00    +0.000 A 
ATOM      6  C   UNK A   0       1.879   9.529  17.912  0.00  0.00    +0.000 A 
ENDROOT
BRANCH   4   7
ATOM      7  C   UNK A   0       3.391   6.122  18.691  0.00  0.00    +0.000 C 
ATOM      8  O   UNK A   0       4.595   6.128  18.470  0.00  0.00    +0.000 OA
ATOM      9  N   GLU A   1       2.662   4.964  18.827  0.00  0.00    +0.000 N 
ATOM     10  H   GLU A   1       1.648   4.996  18.856  0.00  0.00    +0.000 HD
BRANCH   9  11
ATOM     11  CA  GLU A   1       3.283   3.653  18.674  0.00  0.00    +0.000 C 
BRANCH  11  12
ATOM     12  C   GLU A   1       2.374   2.841  17.746  0.00  0.00    +0.000 C 
ATOM     13  O   GLU A   1       2.020   3.230  16.643  0.00  0.00    +0.000 OA
BRANCH  12  14
ATOM     14  OXT GLU A   1       2.019   1.629  18.231  0.00  0.00    +0.000 OA
ATOM     15  HXT GLU A   1       2.763   1.083  18.569  0.00  0.00    +0.000 HD
ENDBRANCH  12  14
ENDBRANCH  11  12
BRANCH  11  16
ATOM     16  CB  GLU A   1       3.440   2.964  20.041  0.00  0.00    +0.000 C 
BRANCH  16  17
ATOM     17  CG  GLU A   1       2.686   3.636  21.179  0.00  0.00    +0.000 C 
BRANCH  17  18
ATOM     18  CD  GLU A   1       1.364   2.958  21.409  0.00  0.00    +0.000 C 
ATOM     19  OE1 GLU A   1       1.155   2.255  22.392  0.00  0.00    +0.000 OA
BRANCH  18  20
ATOM     20  OE2 GLU A   1       0.418   3.269  20.509  0.00  0.00    +0.000 OA
ATOM     21  HE2 GLU A   1       0.036   4.168  20.607  0.00  0.00    +0.000 HD
ENDBRANCH  18  20
ENDBRANCH  17  18
ENDBRANCH  16  17
ENDBRANCH  11  16
ENDBRANCH   9  11
ENDBRANCH   4   7
BRANCH   1  22
ATOM     22  N   UNK A   0       0.816  11.175  19.399  0.00  0.00    +0.000 N 
BRANCH  22  23
ATOM     23  C   UNK A   0      -0.167  11.753  18.447  0.00  0.00    +0.000 C 
BRANCH  23  25
ATOM     24  C   UNK A   0      -2.295   9.908  18.245  0.00  0.00    +0.000 C 
ATOM     25  C   UNK A   0      -1.312  10.760  18.339  0.00  0.00    +0.000 C 
ENDBRANCH  23  25
ENDBRANCH  22  23
BRANCH  22  26
ATOM     26  C   UNK A   0       0.995  11.863  20.704  0.00  0.00    +0.000 C 
BRANCH  26  27
ATOM     27  C   UNK A   0      -0.234  12.080  21.599  0.00  0.00    +0.000 A 
ATOM     28  C   UNK A   0      -0.597  11.088  22.522  0.00  0.00    +0.000 A 
ATOM     29  C   UNK A   0      -1.803  11.167  23.245  0.00  0.00    +0.000 A 
ATOM     30  C   UNK A   0      -2.707  12.206  23.063  0.00  0.00    +0.000 A 
ATOM     31  N   UNK A   0      -3.906  12.152  23.664  0.00  0.00    +0.000 NA
ATOM     32  C   UNK A   0      -4.779  13.143  23.408  0.00  0.00    +0.000 A 
ATOM     33  C   UNK A   0      -6.191  12.994  23.893  0.00  0.00    +0.000 C 
ATOM     34  N   UNK A   0      -4.500  14.230  22.683  0.00  0.00    +0.000 NA
ATOM     35  C   UNK A   0      -3.281  14.273  22.109  0.00  0.00    +0.000 A 
ATOM     36  C   UNK A   0      -2.326  13.252  22.220  0.00  0.00    +0.000 A 
ATOM     37  C   UNK A   0      -1.082  13.191  21.517  0.00  0.00    +0.000 A 
BRANCH  35  38
ATOM     38  S   UNK A   0      -3.020  15.745  21.137  0.00  0.00    +0.000 S 
ATOM     39  H   UNK A   0      -1.745  15.442  20.860  0.00  0.00    +0.000 HD
ENDBRANCH  35  38
ENDBRANCH  26  27
ENDBRANCH  22  26
ENDBRANCH   1  22
TORSDOF 14
ENDMDL
MODEL 3
REMARK VINA RESULT:      -7.8      2.453      3.468
REMARK  Name = 
REMARK  15 active torsions:
REMARK  status: ('A' for Active; 'I' for Inactive)
REMARK    1  A    between atoms: C_2  and  C_3
REMARK    2  A    between atoms: C_3  and  N_4
REMARK    3  A    between atoms: N_4  and  C_5
REMARK    4  A    between atoms: N_4  and  C_18
REMARK    5  A    between atoms: C_5  and  C_6
REMARK    6  A    between atoms: C_11  and  C_12
REMARK    7  A    between atoms: C_14  and  S_15
REMARK    8  A    between atoms: C_21  and  C_22
REMARK    9  A    between atoms: N_24  and  CA_25
REMARK   10  A    between atoms: CA_25  and  CB_26
REMARK   11  A    between atoms: CA_25  and  C_31
REMARK   12  A    between atoms: CB_26  and  CG_27
REMARK   13  A    between atoms: CG_27  and  CD_28
REMARK   14  A    between atoms: CD_28  and  OE2_30
REMARK   15  A    between atoms: C_31  and  OXT_33
REMARK                            x       y       z     vdW  Elec       q    Type
REMARK                         _______ _______ _______ _____ _____    ______ ____
ROOT
ATOM      1  C   UNK A   0       1.501   8.952  19.911  0.00  0.00    +0.000 A 
ATOM      2  C   UNK A   0       1.667   7.679  20.490  0.00  0.00    +0.000 A 
ATOM      3  C   UNK A   0       2.219   6.600  19.797  0.00  0.00    +0.000 A 
ATOM      4  C   UNK A   0       2.614   6.758  18.473  0.00  0.00    +0.000 A 
ATOM      5  C   UNK A   0       2.372   7.976  17.831  0.00  0.00    +0.000 A 
ATOM      6  C   UNK A   0       1.817   9.047  18.546  0.00  0.00    +0.000 A 
ENDROOT
BRANCH   4   7
ATOM      7  C   UNK A   0       3.298   5.613  17.829  0.00  0.00    +0.000 C 
ATOM      8  O   UNK A   0       2.947   4.463  18.061  0.00  0.00    +0.000 OA
ATOM      9  N   GLU A   1       4.362   5.918  17.013  0.00  0.00    +0.000 N 
ATOM     10  H   GLU A   1       4.717   6.867  16.966  0.00  0.00    +0.000 HD
BRANCH   9  11
ATOM     11  CA  GLU A   1       5.171   4.873  16.395  0.00  0.00    +0.000 C 
BRANCH  11  12
ATOM     12  C   GLU A   1       6.392   4.670  17.299  0.00  0.00    +0.000 C 
ATOM     13  O   GLU A   1       7.480   5.186  17.085  0.00  0.00    +0.000 OA
BRANCH  12  14
ATOM     14  OXT GLU A   1       6.161   3.900  18.386  0.00  0.00    +0.000 OA
ATOM     15  HXT GLU A   1       6.181   4.377  19.246  0.00  0.00    +0.000 HD
ENDBRANCH  12  14
ENDBRANCH  11  12
BRANCH  11  16
ATOM     16  CB  GLU A   1       5.593   5.280  14.974  0.00  0.00    +0.000 C 
BRANCH  16  17
ATOM     17  CG  GLU A   1       6.092   4.133  14.108  0.00  0.00    +0.000 C 
BRANCH  17  18
ATOM     18  CD  GLU A   1       7.165   4.607  13.169  0.00  0.00    +0.000 C 
ATOM     19  OE1 GLU A   1       7.229   4.224  12.005  0.00  0.00    +0.000 OA
BRANCH  18  20
ATOM     20  OE2 GLU A   1       7.974   5.548  13.682  0.00  0.00    +0.000 OA
ATOM     21  HE2 GLU A   1       7.616   6.461  13.648  0.00  0.00    +0.000 HD
ENDBRANCH  18  20
ENDBRANCH  17  18
ENDBRANCH  16  17
ENDBRANCH  11  16
ENDBRANCH   9  11
ENDBRANCH   4   7
BRANCH   1  22
ATOM     22  N   UNK A   0       1.086  10.051  20.669  0.00  0.00    +0.000 N 
BRANCH  22  23
ATOM     23  C   UNK A   0       1.175   9.981  22.150  0.00  0.00    +0.000 C 
BRANCH  23  25
ATOM     24  C   UNK A   0      -1.423  10.456  23.151  0.00  0.00    +0.000 C 
ATOM     25  C   UNK A   0      -0.223  10.236  22.688  0.00  0.00    +0.000 C 
ENDBRANCH  23  25
ENDBRANCH  22  23
BRANCH  22  26
ATOM     26  C   UNK A   0       0.819  11.381  20.059  0.00  0.00    +0.000 C 
BRANCH  26  27
ATOM     27  C   UNK A   0      -0.622  11.736  19.666  0.00  0.00    +0.000 A 
ATOM     28  C   UNK A   0      -1.390  12.540  20.521  0.00  0.00    +0.000 A 
ATOM     29  C   UNK A   0      -2.762  12.757  20.285  0.00  0.00    +0.000 A 
ATOM     30  C   UNK A   0      -3.431  12.165  19.220  0.00  0.00    +0.000 A 
ATOM     31  N   UNK A   0      -4.765  12.283  19.132  0.00  0.00    +0.000 NA
ATOM     32  C   UNK A   0      -5.384  11.640  18.125  0.00  0.00    +0.000 A 
ATOM     33  C   UNK A   0      -6.883  11.579  18.130  0.00  0.00    +0.000 C 
ATOM     34  N   UNK A   0      -4.755  10.979  17.148  0.00  0.00    +0.000 NA
ATOM     35  C   UNK A   0      -3.414  10.896  17.246  0.00  0.00    +0.000 A 
ATOM     36  C   UNK A   0      -2.670  11.438  18.304  0.00  0.00    +0.000 A 
ATOM     37  C   UNK A   0      -1.268  11.252  18.523  0.00  0.00    +0.000 A 
BRANCH  35  38
ATOM     38  S   UNK A   0      -2.674   9.967  15.914  0.00  0.00    +0.000 S 
ATOM     39  H   UNK A   0      -1.773  10.918  15.636  0.00  0.00    +0.000 HD
ENDBRANCH  35  38
ENDBRANCH  26  27
ENDBRANCH  22  26
ENDBRANCH   1  22
TORSDOF 14
ENDMDL
MODEL 4
REMARK VINA RESULT:      -7.8      2.718      3.746
REMARK  Name = 
REMARK  15 active torsions:
REMARK  status: ('A' for Active; 'I' for Inactive)
REMARK    1  A    between atoms: C_2  and  C_3
REMARK    2  A    between atoms: C_3  and  N_4
REMARK    3  A    between atoms: N_4  and  C_5
REMARK    4  A    between atoms: N_4  and  C_18
REMARK    5  A    between atoms: C_5  and  C_6
REMARK    6  A    between atoms: C_11  and  C_12
REMARK    7  A    between atoms: C_14  and  S_15
REMARK    8  A    between atoms: C_21  and  C_22
REMARK    9  A    between atoms: N_24  and  CA_25
REMARK   10  A    between atoms: CA_25  and  CB_26
REMARK   11  A    between atoms: CA_25  and  C_31
REMARK   12  A    between atoms: CB_26  and  CG_27
REMARK   13  A    between atoms: CG_27  and  CD_28
REMARK   14  A    between atoms: CD_28  and  OE2_30
REMARK   15  A    between atoms: C_31  and  OXT_33
REMARK                            x       y       z     vdW  Elec       q    Type
REMARK                         _______ _______ _______ _____ _____    ______ ____
ROOT
ATOM      1  C   UNK A   0       1.761   8.890  19.361  0.00  0.00    +0.000 A 
ATOM      2  C   UNK A   0       1.966   7.666  20.028  0.00  0.00    +0.000 A 
ATOM      3  C   UNK A   0       2.566   6.564  19.416  0.00  0.00    +0.000 A 
ATOM      4  C   UNK A   0       2.972   6.646  18.088  0.00  0.00    +0.000 A 
ATOM      5  C   UNK A   0       2.693   7.808  17.362  0.00  0.00    +0.000 A 
ATOM      6  C   UNK A   0       2.090   8.903  17.997  0.00  0.00    +0.000 A 
ENDROOT
BRANCH   4   7
ATOM      7  C   UNK A   0       3.705   5.486  17.532  0.00  0.00    +0.000 C 
ATOM      8  O   UNK A   0       3.426   4.345  17.877  0.00  0.00    +0.000 OA
ATOM      9  N   GLU A   1       4.731   5.773  16.661  0.00  0.00    +0.000 N 
ATOM     10  H   GLU A   1       5.029   6.732  16.518  0.00  0.00    +0.000 HD
BRANCH   9  11
ATOM     11  CA  GLU A   1       5.584   4.722  16.118  0.00  0.00    +0.000 C 
BRANCH  11  12
ATOM     12  C   GLU A   1       7.030   5.144  16.394  0.00  0.00    +0.000 C 
ATOM     13  O   GLU A   1       7.458   6.267  16.168  0.00  0.00    +0.000 OA
BRANCH  12  14
ATOM     14  OXT GLU A   1       7.799   4.179  16.948  0.00  0.00    +0.000 OA
ATOM     15  HXT GLU A   1       7.806   4.167  17.932  0.00  0.00    +0.000 HD
ENDBRANCH  12  14
ENDBRANCH  11  12
BRANCH  11  16
ATOM     16  CB  GLU A   1       5.334   4.544  14.611  0.00  0.00    +0.000 C 
BRANCH  16  17
ATOM     17  CG  GLU A   1       6.446   3.820  13.866  0.00  0.00    +0.000 C 
BRANCH  17  18
ATOM     18  CD  GLU A   1       5.942   3.283  12.555  0.00  0.00    +0.000 C 
ATOM     19  OE1 GLU A   1       4.822   3.545  12.131  0.00  0.00    +0.000 OA
BRANCH  18  20
ATOM     20  OE2 GLU A   1       6.852   2.585  11.856  0.00  0.00    +0.000 OA
ATOM     21  HE2 GLU A   1       7.784   2.846  12.019  0.00  0.00    +0.000 HD
ENDBRANCH  18  20
ENDBRANCH  17  18
ENDBRANCH  16  17
ENDBRANCH  11  16
ENDBRANCH   9  11
ENDBRANCH   4   7
BRANCH   1  22
ATOM     22  N   UNK A   0       1.296  10.022  20.038  0.00  0.00    +0.000 N 
BRANCH  22  23
ATOM     23  C   UNK A   0       1.423  10.081  21.516  0.00  0.00    +0.000 C 
BRANCH  23  25
ATOM     24  C   UNK A   0      -0.909   8.905  22.589  0.00  0.00    +0.000 C 
ATOM     25  C   UNK A   0       0.168   9.449  22.093  0.00  0.00    +0.000 C 
ENDBRANCH  23  25
ENDBRANCH  22  23
BRANCH  22  26
ATOM     26  C   UNK A   0       0.933  11.277  19.329  0.00  0.00    +0.000 C 
BRANCH  26  27
ATOM     27  C   UNK A   0      -0.553  11.624  19.159  0.00  0.00    +0.000 A 
ATOM     28  C   UNK A   0      -1.247  12.219  20.223  0.00  0.00    +0.000 A 
ATOM     29  C   UNK A   0      -2.642  12.406  20.173  0.00  0.00    +0.000 A 
ATOM     30  C   UNK A   0      -3.406  11.986  19.091  0.00  0.00    +0.000 A 
ATOM     31  N   UNK A   0      -4.745  12.050  19.163  0.00  0.00    +0.000 NA
ATOM     32  C   UNK A   0      -5.450  11.571  18.122  0.00  0.00    +0.000 A 
ATOM     33  C   UNK A   0      -6.938  11.434  18.269  0.00  0.00    +0.000 C 
ATOM     34  N   UNK A   0      -4.913  11.132  16.980  0.00  0.00    +0.000 NA
ATOM     35  C   UNK A   0      -3.567  11.100  16.922  0.00  0.00    +0.000 A 
ATOM     36  C   UNK A   0      -2.728  11.477  17.982  0.00  0.00    +0.000 A 
ATOM     37  C   UNK A   0      -1.306  11.326  18.017  0.00  0.00    +0.000 A 
BRANCH  35  38
ATOM     38  S   UNK A   0      -2.950  10.469  15.373  0.00  0.00    +0.000 S 
ATOM     39  H   UNK A   0      -2.685   9.255  15.872  0.00  0.00    +0.000 HD
ENDBRANCH  35  38
ENDBRANCH  26  27
ENDBRANCH  22  26
ENDBRANCH   1  22
TORSDOF 14
ENDMDL
MODEL 5
REMARK VINA RESULT:      -7.7      2.748      4.036
REMARK  Name = 
REMARK  15 active torsions:
REMARK  status: ('A' for Active; 'I' for Inactive)
REMARK    1  A    between atoms: C_2  and  C_3
REMARK    2  A    between atoms: C_3  and  N_4
REMARK    3  A    between atoms: N_4  and  C_5
REMARK    4  A    between atoms: N_4  and  C_18
REMARK    5  A    between atoms: C_5  and  C_6
REMARK    6  A    between atoms: C_11  and  C_12
REMARK    7  A    between atoms: C_14  and  S_15
REMARK    8  A    between atoms: C_21  and  C_22
REMARK    9  A    between atoms: N_24  and  CA_25
REMARK   10  A    between atoms: CA_25  and  CB_26
REMARK   11  A    between atoms: CA_25  and  C_31
REMARK   12  A    between atoms: CB_26  and  CG_27
REMARK   13  A    between atoms: CG_27  and  CD_28
REMARK   14  A    between atoms: CD_28  and  OE2_30
REMARK   15  A    between atoms: C_31  and  OXT_33
REMARK                            x       y       z     vdW  Elec       q    Type
REMARK                         _______ _______ _______ _____ _____    ______ ____
ROOT
ATOM      1  C   UNK A   0       1.536   7.929  19.712  0.00  0.00    +0.000 A 
ATOM      2  C   UNK A   0       2.197   8.119  18.484  0.00  0.00    +0.000 A 
ATOM      3  C   UNK A   0       3.097   7.190  17.959  0.00  0.00    +0.000 A 
ATOM      4  C   UNK A   0       3.382   6.027  18.667  0.00  0.00    +0.000 A 
ATOM      5  C   UNK A   0       2.825   5.849  19.937  0.00  0.00    +0.000 A 
ATOM      6  C   UNK A   0       1.923   6.796  20.445  0.00  0.00    +0.000 A 
ENDROOT
BRANCH   4   7
ATOM      7  C   UNK A   0       4.254   5.028  18.006  0.00  0.00    +0.000 C 
ATOM      8  O   UNK A   0       4.364   3.896  18.460  0.00  0.00    +0.000 OA
ATOM      9  N   GLU A   1       4.955   5.463  16.905  0.00  0.00    +0.000 N 
ATOM     10  H   GLU A   1       4.954   6.446  16.652  0.00  0.00    +0.000 HD
BRANCH   9  11
ATOM     11  CA  GLU A   1       5.913   4.600  16.224  0.00  0.00    +0.000 C 
BRANCH  11  12
ATOM     12  C   GLU A   1       7.306   5.045  16.680  0.00  0.00    +0.000 C 
ATOM     13  O   GLU A   1       8.125   4.286  17.179  0.00  0.00    +0.000 OA
BRANCH  12  14
ATOM     14  OXT GLU A   1       7.579   6.350  16.451  0.00  0.00    +0.000 OA
ATOM     15  HXT GLU A   1       6.934   6.814  15.873  0.00  0.00    +0.000 HD
ENDBRANCH  12  14
ENDBRANCH  11  12
BRANCH  11  16
ATOM     16  CB  GLU A   1       5.762   4.718  14.698  0.00  0.00    +0.000 C 
BRANCH  16  17
ATOM     17  CG  GLU A   1       5.774   3.390  13.956  0.00  0.00    +0.000 C 
BRANCH  17  18
ATOM     18  CD  GLU A   1       6.042   3.604  12.493  0.00  0.00    +0.000 C 
ATOM     19  OE1 GLU A   1       7.068   4.142  12.090  0.00  0.00    +0.000 OA
BRANCH  18  20
ATOM     20  OE2 GLU A   1       5.118   3.072  11.676  0.00  0.00    +0.000 OA
ATOM     21  HE2 GLU A   1       4.220   2.998  12.065  0.00  0.00    +0.000 HD
ENDBRANCH  18  20
ENDBRANCH  17  18
ENDBRANCH  16  17
ENDBRANCH  11  16
ENDBRANCH   9  11
ENDBRANCH   4   7
BRANCH   1  22
ATOM     22  N   UNK A   0       0.530   8.800  20.143  0.00  0.00    +0.000 N 
BRANCH  22  23
ATOM     23  C   UNK A   0      -0.449   8.327  21.155  0.00  0.00    +0.000 C 
BRANCH  23  25
ATOM     24  C   UNK A   0       0.146   9.676  23.563  0.00  0.00    +0.000 C 
ATOM     25  C   UNK A   0      -0.129   9.053  22.451  0.00  0.00    +0.000 C 
ENDBRANCH  23  25
ENDBRANCH  22  23
BRANCH  22  26
ATOM     26  C   UNK A   0       0.557  10.255  19.842  0.00  0.00    +0.000 C 
BRANCH  26  27
ATOM     27  C   UNK A   0      -0.753  10.953  19.449  0.00  0.00    +0.000 A 
ATOM     28  C   UNK A   0      -1.391  11.791  20.375  0.00  0.00    +0.000 A 
ATOM     29  C   UNK A   0      -2.672  12.320  20.122  0.00  0.00    +0.000 A 
ATOM     30  C   UNK A   0      -3.382  12.018  18.966  0.00  0.00    +0.000 A 
ATOM     31  N   UNK A   0      -4.655  12.424  18.847  0.00  0.00    +0.000 NA
ATOM     32  C   UNK A   0      -5.328  12.054  17.743  0.00  0.00    +0.000 A 
ATOM     33  C   UNK A   0      -6.806  12.312  17.688  0.00  0.00    +0.000 C 
ATOM     34  N   UNK A   0      -4.790  11.400  16.710  0.00  0.00    +0.000 NA
ATOM     35  C   UNK A   0      -3.503  11.023  16.843  0.00  0.00    +0.000 A 
ATOM     36  C   UNK A   0      -2.730  11.262  17.989  0.00  0.00    +0.000 A 
ATOM     37  C   UNK A   0      -1.413  10.759  18.230  0.00  0.00    +0.000 A 
BRANCH  35  38
ATOM     38  S   UNK A   0      -2.888  10.129  15.427  0.00  0.00    +0.000 S 
ATOM     39  H   UNK A   0      -1.609  10.438  15.677  0.00  0.00    +0.000 HD
ENDBRANCH  35  38
ENDBRANCH  26  27
ENDBRANCH  22  26
ENDBRANCH   1  22
TORSDOF 14
ENDMDL
MODEL 6
REMARK VINA RESULT:      -7.6      2.333      3.384
REMARK  Name = 
REMARK  15 active torsions:
REMARK  status: ('A' for Active; 'I' for Inactive)
REMARK    1  A    between atoms: C_2  and  C_3
REMARK    2  A    between atoms: C_3  and  N_4
REMARK    3  A    between atoms: N_4  and  C_5
REMARK    4  A    between atoms: N_4  and  C_18
REMARK    5  A    between atoms: C_5  and  C_6
REMARK    6  A    between atoms: C_11  and  C_12
REMARK    7  A    between atoms: C_14  and  S_15
REMARK    8  A    between atoms: C_21  and  C_22
REMARK    9  A    between atoms: N_24  and  CA_25
REMARK   10  A    between atoms: CA_25  and  CB_26
REMARK   11  A    between atoms: CA_25  and  C_31
REMARK   12  A    between atoms: CB_26  and  CG_27
REMARK   13  A    between atoms: CG_27  and  CD_28
REMARK   14  A    between atoms: CD_28  and  OE2_30
REMARK   15  A    between atoms: C_31  and  OXT_33
REMARK                            x       y       z     vdW  Elec       q    Type
REMARK                         _______ _______ _______ _____ _____    ______ ____
ROOT
ATOM      1  C   UNK A   0       1.670   9.057  19.136  0.00  0.00    +0.000 A 
ATOM      2  C   UNK A   0       2.311   9.032  17.882  0.00  0.00    +0.000 A 
ATOM      3  C   UNK A   0       3.009   7.917  17.414  0.00  0.00    +0.000 A 
ATOM      4  C   UNK A   0       3.104   6.777  18.204  0.00  0.00    +0.000 A 
ATOM      5  C   UNK A   0       2.568   6.798  19.496  0.00  0.00    +0.000 A 
ATOM      6  C   UNK A   0       1.871   7.928  19.947  0.00  0.00    +0.000 A 
ENDROOT
BRANCH   4   7
ATOM      7  C   UNK A   0       3.756   5.590  17.605  0.00  0.00    +0.000 C 
ATOM      8  O   UNK A   0       3.151   4.531  17.499  0.00  0.00    +0.000 OA
ATOM      9  N   GLU A   1       5.072   5.739  17.233  0.00  0.00    +0.000 N 
ATOM     10  H   GLU A   1       5.581   6.582  17.476  0.00  0.00    +0.000 HD
BRANCH   9  11
ATOM     11  CA  GLU A   1       5.848   4.617  16.716  0.00  0.00    +0.000 C 
BRANCH  11  12
ATOM     12  C   GLU A   1       7.083   4.487  17.613  0.00  0.00    +0.000 C 
ATOM     13  O   GLU A   1       8.190   4.183  17.193  0.00  0.00    +0.000 OA
BRANCH  12  14
ATOM     14  OXT GLU A   1       6.860   4.774  18.916  0.00  0.00    +0.000 OA
ATOM     15  HXT GLU A   1       7.671   4.901  19.457  0.00  0.00    +0.000 HD
ENDBRANCH  12  14
ENDBRANCH  11  12
BRANCH  11  16
ATOM     16  CB  GLU A   1       6.247   4.862  15.251  0.00  0.00    +0.000 C 
BRANCH  16  17
ATOM     17  CG  GLU A   1       5.541   3.965  14.244  0.00  0.00    +0.000 C 
BRANCH  17  18
ATOM     18  CD  GLU A   1       6.371   3.811  13.001  0.00  0.00    +0.000 C 
ATOM     19  OE1 GLU A   1       7.258   4.606  12.706  0.00  0.00    +0.000 OA
BRANCH  18  20
ATOM     20  OE2 GLU A   1       6.125   2.688  12.306  0.00  0.00    +0.000 OA
ATOM     21  HE2 GLU A   1       5.324   2.723  11.740  0.00  0.00    +0.000 HD
ENDBRANCH  18  20
ENDBRANCH  17  18
ENDBRANCH  16  17
ENDBRANCH  11  16
ENDBRANCH   9  11
ENDBRANCH   4   7
BRANCH   1  22
ATOM     22  N   UNK A   0       0.854  10.126  19.519  0.00  0.00    +0.000 N 
BRANCH  22  23
ATOM     23  C   UNK A   0       0.920  10.619  20.918  0.00  0.00    +0.000 C 
BRANCH  23  25
ATOM     24  C   UNK A   0      -0.661   8.875  22.477  0.00  0.00    +0.000 C 
ATOM     25  C   UNK A   0       0.069   9.681  21.757  0.00  0.00    +0.000 C 
ENDBRANCH  23  25
ENDBRANCH  22  23
BRANCH  22  26
ATOM     26  C   UNK A   0       0.129  10.965  18.528  0.00  0.00    +0.000 C 
BRANCH  26  27
ATOM     27  C   UNK A   0      -1.406  10.992  18.567  0.00  0.00    +0.000 A 
ATOM     28  C   UNK A   0      -2.130  10.157  17.705  0.00  0.00    +0.000 A 
ATOM     29  C   UNK A   0      -3.530  10.263  17.588  0.00  0.00    +0.000 A 
ATOM     30  C   UNK A   0      -4.261  11.214  18.292  0.00  0.00    +0.000 A 
ATOM     31  N   UNK A   0      -5.567  11.370  18.028  0.00  0.00    +0.000 NA
ATOM     32  C   UNK A   0      -6.223  12.346  18.681  0.00  0.00    +0.000 A 
ATOM     33  C   UNK A   0      -7.621  12.680  18.249  0.00  0.00    +0.000 C 
ATOM     34  N   UNK A   0      -5.693  13.101  19.648  0.00  0.00    +0.000 NA
ATOM     35  C   UNK A   0      -4.385  12.908  19.911  0.00  0.00    +0.000 A 
ATOM     36  C   UNK A   0      -3.574  11.992  19.225  0.00  0.00    +0.000 A 
ATOM     37  C   UNK A   0      -2.158  11.855  19.372  0.00  0.00    +0.000 A 
BRANCH  35  38
ATOM     38  S   UNK A   0      -3.766  13.985  21.191  0.00  0.00    +0.000 S 
ATOM     39  H   UNK A   0      -2.542  13.441  21.178  0.00  0.00    +0.000 HD
ENDBRANCH  35  38
ENDBRANCH  26  27
ENDBRANCH  22  26
ENDBRANCH   1  22
TORSDOF 14
ENDMDL
MODEL 7
REMARK VINA RESULT:      -7.6      1.299      2.597
REMARK  Name = 
REMARK  15 active torsions:
REMARK  status: ('A' for Active; 'I' for Inactive)
REMARK    1  A    between atoms: C_2  and  C_3
REMARK    2  A    between atoms: C_3  and  N_4
REMARK    3  A    between atoms: N_4  and  C_5
REMARK    4  A    between atoms: N_4  and  C_18
REMARK    5  A    between atoms: C_5  and  C_6
REMARK    6  A    between atoms: C_11  and  C_12
REMARK    7  A    between atoms: C_14  and  S_15
REMARK    8  A    between atoms: C_21  and  C_22
REMARK    9  A    between atoms: N_24  and  CA_25
REMARK   10  A    between atoms: CA_25  and  CB_26
REMARK   11  A    between atoms: CA_25  and  C_31
REMARK   12  A    between atoms: CB_26  and  CG_27
REMARK   13  A    between atoms: CG_27  and  CD_28
REMARK   14  A    between atoms: CD_28  and  OE2_30
REMARK   15  A    between atoms: C_31  and  OXT_33
REMARK                            x       y       z     vdW  Elec       q    Type
REMARK                         _______ _______ _______ _____ _____    ______ ____
ROOT
ATOM      1  C   UNK A   0       1.131  10.106  19.164  0.00  0.00    +0.000 A 
ATOM      2  C   UNK A   0       1.146   9.121  20.170  0.00  0.00    +0.000 A 
ATOM      3  C   UNK A   0       1.794   7.894  20.017  0.00  0.00    +0.000 A 
ATOM      4  C   UNK A   0       2.446   7.601  18.824  0.00  0.00    +0.000 A 
ATOM      5  C   UNK A   0       2.369   8.510  17.765  0.00  0.00    +0.000 A 
ATOM      6  C   UNK A   0       1.712   9.737  17.941  0.00  0.00    +0.000 A 
ENDROOT
BRANCH   4   7
ATOM      7  C   UNK A   0       3.213   6.335  18.765  0.00  0.00    +0.000 C 
ATOM      8  O   UNK A   0       3.552   5.760  19.791  0.00  0.00    +0.000 OA
ATOM      9  N   GLU A   1       3.554   5.887  17.509  0.00  0.00    +0.000 N 
ATOM     10  H   GLU A   1       3.388   6.467  16.695  0.00  0.00    +0.000 HD
BRANCH   9  11
ATOM     11  CA  GLU A   1       4.385   4.702  17.326  0.00  0.00    +0.000 C 
BRANCH  11  12
ATOM     12  C   GLU A   1       5.293   4.984  16.125  0.00  0.00    +0.000 C 
ATOM     13  O   GLU A   1       5.503   6.108  15.690  0.00  0.00    +0.000 OA
BRANCH  12  14
ATOM     14  OXT GLU A   1       5.882   3.886  15.599  0.00  0.00    +0.000 OA
ATOM     15  HXT GLU A   1       5.614   3.672  14.677  0.00  0.00    +0.000 HD
ENDBRANCH  12  14
ENDBRANCH  11  12
BRANCH  11  16
ATOM     16  CB  GLU A   1       3.512   3.459  17.084  0.00  0.00    +0.000 C 
BRANCH  16  17
ATOM     17  CG  GLU A   1       2.043   3.637  17.441  0.00  0.00    +0.000 C 
BRANCH  17  18
ATOM     18  CD  GLU A   1       1.632   2.648  18.496  0.00  0.00    +0.000 C 
ATOM     19  OE1 GLU A   1       0.729   2.882  19.291  0.00  0.00    +0.000 OA
BRANCH  18  20
ATOM     20  OE2 GLU A   1       2.267   1.466  18.424  0.00  0.00    +0.000 OA
ATOM     21  HE2 GLU A   1       2.434   1.144  17.512  0.00  0.00    +0.000 HD
ENDBRANCH  18  20
ENDBRANCH  17  18
ENDBRANCH  16  17
ENDBRANCH  11  16
ENDBRANCH   9  11
ENDBRANCH   4   7
BRANCH   1  22
ATOM     22  N   UNK A   0       0.605  11.381  19.397  0.00  0.00    +0.000 N 
BRANCH  22  23
ATOM     23  C   UNK A   0      -0.384  11.938  18.439  0.00  0.00    +0.000 C 
BRANCH  23  25
ATOM     24  C   UNK A   0      -2.377   9.971  18.079  0.00  0.00    +0.000 C 
ATOM     25  C   UNK A   0      -1.457  10.879  18.246  0.00  0.00    +0.000 C 
ENDBRANCH  23  25
ENDBRANCH  22  23
BRANCH  22  26
ATOM     26  C   UNK A   0       0.780  12.087  20.693  0.00  0.00    +0.000 C 
BRANCH  26  27
ATOM     27  C   UNK A   0      -0.436  12.245  21.617  0.00  0.00    +0.000 A 
ATOM     28  C   UNK A   0      -0.710  11.252  22.569  0.00  0.00    +0.000 A 
ATOM     29  C   UNK A   0      -1.898  11.270  23.325  0.00  0.00    +0.000 A 
ATOM     30  C   UNK A   0      -2.872  12.246  23.148  0.00  0.00    +0.000 A 
ATOM     31  N   UNK A   0      -4.048  12.129  23.783  0.00  0.00    +0.000 NA
ATOM     32  C   UNK A   0      -4.989  13.058  23.533  0.00  0.00    +0.000 A 
ATOM     33  C   UNK A   0      -6.375  12.830  24.060  0.00  0.00    +0.000 C 
ATOM     34  N   UNK A   0      -4.800  14.145  22.779  0.00  0.00    +0.000 NA
ATOM     35  C   UNK A   0      -3.602  14.252  22.171  0.00  0.00    +0.000 A 
ATOM     36  C   UNK A   0      -2.581  13.296  22.274  0.00  0.00    +0.000 A 
ATOM     37  C   UNK A   0      -1.354  13.298  21.537  0.00  0.00    +0.000 A 
BRANCH  35  38
ATOM     38  S   UNK A   0      -3.461  15.717  21.163  0.00  0.00    +0.000 S 
ATOM     39  H   UNK A   0      -4.301  15.259  20.225  0.00  0.00    +0.000 HD
ENDBRANCH  35  38
ENDBRANCH  26  27
ENDBRANCH  22  26
ENDBRANCH   1  22
TORSDOF 14
ENDMDL
MODEL 8
REMARK VINA RESULT:      -7.6      2.209      3.268
REMARK  Name = 
REMARK  15 active torsions:
REMARK  status: ('A' for Active; 'I' for Inactive)
REMARK    1  A    between atoms: C_2  and  C_3
REMARK    2  A    between atoms: C_3  and  N_4
REMARK    3  A    between atoms: N_4  and  C_5
REMARK    4  A    between atoms: N_4  and  C_18
REMARK    5  A    between atoms: C_5  and  C_6
REMARK    6  A    between atoms: C_11  and  C_12
REMARK    7  A    between atoms: C_14  and  S_15
REMARK    8  A    between atoms: C_21  and  C_22
REMARK    9  A    between atoms: N_24  and  CA_25
REMARK   10  A    between atoms: CA_25  and  CB_26
REMARK   11  A    between atoms: CA_25  and  C_31
REMARK   12  A    between atoms: CB_26  and  CG_27
REMARK   13  A    between atoms: CG_27  and  CD_28
REMARK   14  A    between atoms: CD_28  and  OE2_30
REMARK   15  A    between atoms: C_31  and  OXT_33
REMARK                            x       y       z     vdW  Elec       q    Type
REMARK                         _______ _______ _______ _____ _____    ______ ____
ROOT
ATOM      1  C   UNK A   0       1.612   8.952  19.367  0.00  0.00    +0.000 A 
ATOM      2  C   UNK A   0       1.776   7.785  20.139  0.00  0.00    +0.000 A 
ATOM      3  C   UNK A   0       2.440   6.653  19.664  0.00  0.00    +0.000 A 
ATOM      4  C   UNK A   0       2.957   6.645  18.373  0.00  0.00    +0.000 A 
ATOM      5  C   UNK A   0       2.727   7.744  17.540  0.00  0.00    +0.000 A 
ATOM      6  C   UNK A   0       2.057   8.871  18.038  0.00  0.00    +0.000 A 
ENDROOT
BRANCH   4   7
ATOM      7  C   UNK A   0       3.751   5.461  17.969  0.00  0.00    +0.000 C 
ATOM      8  O   UNK A   0       3.379   4.330  18.256  0.00  0.00    +0.000 OA
ATOM      9  N   GLU A   1       4.933   5.714  17.311  0.00  0.00    +0.000 N 
ATOM     10  H   GLU A   1       5.280   6.664  17.227  0.00  0.00    +0.000 HD
BRANCH   9  11
ATOM     11  CA  GLU A   1       5.844   4.636  16.944  0.00  0.00    +0.000 C 
BRANCH  11  12
ATOM     12  C   GLU A   1       6.895   4.551  18.055  0.00  0.00    +0.000 C 
ATOM     13  O   GLU A   1       8.086   4.374  17.843  0.00  0.00    +0.000 OA
BRANCH  12  14
ATOM     14  OXT GLU A   1       6.404   4.727  19.303  0.00  0.00    +0.000 OA
ATOM     15  HXT GLU A   1       5.863   5.539  19.426  0.00  0.00    +0.000 HD
ENDBRANCH  12  14
ENDBRANCH  11  12
BRANCH  11  16
ATOM     16  CB  GLU A   1       6.498   4.919  15.580  0.00  0.00    +0.000 C 
BRANCH  16  17
ATOM     17  CG  GLU A   1       5.920   4.118  14.423  0.00  0.00    +0.000 C 
BRANCH  17  18
ATOM     18  CD  GLU A   1       6.765   4.282  13.191  0.00  0.00    +0.000 C 
ATOM     19  OE1 GLU A   1       6.621   3.572  12.202  0.00  0.00    +0.000 OA
BRANCH  18  20
ATOM     20  OE2 GLU A   1       7.611   5.325  13.236  0.00  0.00    +0.000 OA
ATOM     21  HE2 GLU A   1       8.194   5.415  12.451  0.00  0.00    +0.000 HD
ENDBRANCH  18  20
ENDBRANCH  17  18
ENDBRANCH  16  17
ENDBRANCH  11  16
ENDBRANCH   9  11
ENDBRANCH   4   7
BRANCH   1  22
ATOM     22  N   UNK A   0       1.077  10.122  19.915  0.00  0.00    +0.000 N 
BRANCH  22  23
ATOM     23  C   UNK A   0       1.388  10.465  21.326  0.00  0.00    +0.000 C 
BRANCH  23  25
ATOM     24  C   UNK A   0      -0.917   9.868  22.843  0.00  0.00    +0.000 C 
ATOM     25  C   UNK A   0       0.147  10.144  22.142  0.00  0.00    +0.000 C 
ENDBRANCH  23  25
ENDBRANCH  22  23
BRANCH  22  26
ATOM     26  C   UNK A   0       0.439  11.171  19.077  0.00  0.00    +0.000 C 
BRANCH  26  27
ATOM     27  C   UNK A   0      -1.079  11.111  18.849  0.00  0.00    +0.000 A 
ATOM     28  C   UNK A   0      -1.589  10.321  17.809  0.00  0.00    +0.000 A 
ATOM     29  C   UNK A   0      -2.952  10.362  17.459  0.00  0.00    +0.000 A 
ATOM     30  C   UNK A   0      -3.854  11.205  18.099  0.00  0.00    +0.000 A 
ATOM     31  N   UNK A   0      -5.105  11.315  17.625  0.00  0.00    +0.000 NA
ATOM     32  C   UNK A   0      -5.927  12.191  18.230  0.00  0.00    +0.000 A 
ATOM     33  C   UNK A   0      -7.252  12.487  17.589  0.00  0.00    +0.000 C 
ATOM     34  N   UNK A   0      -5.621  12.882  19.332  0.00  0.00    +0.000 NA
ATOM     35  C   UNK A   0      -4.367  12.736  19.803  0.00  0.00    +0.000 A 
ATOM     36  C   UNK A   0      -3.391  11.931  19.197  0.00  0.00    +0.000 A 
ATOM     37  C   UNK A   0      -2.013  11.857  19.578  0.00  0.00    +0.000 A 
BRANCH  35  38
ATOM     38  S   UNK A   0      -4.047  13.723  21.253  0.00  0.00    +0.000 S 
ATOM     39  H   UNK A   0      -5.205  13.392  21.841  0.00  0.00    +0.000 HD
ENDBRANCH  35  38
ENDBRANCH  26  27
ENDBRANCH  22  26
ENDBRANCH   1  22
TORSDOF 14
ENDMDL
MODEL 9
REMARK VINA RESULT:      -7.6      1.514      2.092
REMARK  Name = 
REMARK  15 active torsions:
REMARK  status: ('A' for Active; 'I' for Inactive)
REMARK    1  A    between atoms: C_2  and  C_3
REMARK    2  A    between atoms: C_3  and  N_4
REMARK    3  A    between atoms: N_4  and  C_5
REMARK    4  A    between atoms: N_4  and  C_18
REMARK    5  A    between atoms: C_5  and  C_6
REMARK    6  A    between atoms: C_11  and  C_12
REMARK    7  A    between atoms: C_14  and  S_15
REMARK    8  A    between atoms: C_21  and  C_22
REMARK    9  A    between atoms: N_24  and  CA_25
REMARK   10  A    between atoms: CA_25  and  CB_26
REMARK   11  A    between atoms: CA_25  and  C_31
REMARK   12  A    between atoms: CB_26  and  CG_27
REMARK   13  A    between atoms: CG_27  and  CD_28
REMARK   14  A    between atoms: CD_28  and  OE2_30
REMARK   15  A    between atoms: C_31  and  OXT_33
REMARK                            x       y       z     vdW  Elec       q    Type
REMARK                         _______ _______ _______ _____ _____    ______ ____
ROOT
ATOM      1  C   UNK A   0       1.224   9.759  19.639  0.00  0.00    +0.000 A 
ATOM      2  C   UNK A   0       1.713   9.384  18.373  0.00  0.00    +0.000 A 
ATOM      3  C   UNK A   0       2.155   8.091  18.087  0.00  0.00    +0.000 A 
ATOM      4  C   UNK A   0       2.137   7.118  19.080  0.00  0.00    +0.000 A 
ATOM      5  C   UNK A   0       1.755   7.476  20.376  0.00  0.00    +0.000 A 
ATOM      6  C   UNK A   0       1.314   8.780  20.642  0.00  0.00    +0.000 A 
ENDROOT
BRANCH   4   7
ATOM      7  C   UNK A   0       2.508   5.740  18.684  0.00  0.00    +0.000 C 
ATOM      8  O   UNK A   0       1.885   4.777  19.112  0.00  0.00    +0.000 OA
ATOM      9  N   GLU A   1       3.606   5.615  17.865  0.00  0.00    +0.000 N 
ATOM     10  H   GLU A   1       4.186   6.421  17.657  0.00  0.00    +0.000 HD
BRANCH   9  11
ATOM     11  CA  GLU A   1       4.123   4.306  17.481  0.00  0.00    +0.000 C 
BRANCH  11  12
ATOM     12  C   GLU A   1       4.903   3.771  18.687  0.00  0.00    +0.000 C 
ATOM     13  O   GLU A   1       5.874   4.340  19.165  0.00  0.00    +0.000 OA
BRANCH  12  14
ATOM     14  OXT GLU A   1       4.407   2.628  19.212  0.00  0.00    +0.000 OA
ATOM     15  HXT GLU A   1       4.822   2.344  20.057  0.00  0.00    +0.000 HD
ENDBRANCH  12  14
ENDBRANCH  11  12
BRANCH  11  16
ATOM     16  CB  GLU A   1       5.025   4.420  16.241  0.00  0.00    +0.000 C 
BRANCH  16  17
ATOM     17  CG  GLU A   1       5.601   5.809  16.003  0.00  0.00    +0.000 C 
BRANCH  17  18
ATOM     18  CD  GLU A   1       7.050   5.855  16.399  0.00  0.00    +0.000 C 
ATOM     19  OE1 GLU A   1       7.639   6.913  16.594  0.00  0.00    +0.000 OA
BRANCH  18  20
ATOM     20  OE2 GLU A   1       7.604   4.650  16.613  0.00  0.00    +0.000 OA
ATOM     21  HE2 GLU A   1       7.136   3.901  16.187  0.00  0.00    +0.000 HD
ENDBRANCH  18  20
ENDBRANCH  17  18
ENDBRANCH  16  17
ENDBRANCH  11  16
ENDBRANCH   9  11
ENDBRANCH   4   7
BRANCH   1  22
ATOM     22  N   UNK A   0       0.649  11.015  19.859  0.00  0.00    +0.000 N 
BRANCH  22  23
ATOM     23  C   UNK A   0       1.513  12.132  20.318  0.00  0.00    +0.000 C 
BRANCH  23  25
ATOM     24  C   UNK A   0       2.334  13.536  18.009  0.00  0.00    +0.000 C 
ATOM     25  C   UNK A   0       1.955  12.888  19.076  0.00  0.00    +0.000 C 
ENDBRANCH  23  25
ENDBRANCH  22  23
BRANCH  22  26
ATOM     26  C   UNK A   0      -0.722  11.352  19.395  0.00  0.00    +0.000 C 
BRANCH  26  27
ATOM     27  C   UNK A   0      -1.734  11.890  20.417  0.00  0.00    +0.000 A 
ATOM     28  C   UNK A   0      -1.434  11.823  21.785  0.00  0.00    +0.000 A 
ATOM     29  C   UNK A   0      -2.393  12.151  22.762  0.00  0.00    +0.000 A 
ATOM     30  C   UNK A   0      -3.690  12.527  22.428  0.00  0.00    +0.000 A 
ATOM     31  N   UNK A   0      -4.603  12.680  23.399  0.00  0.00    +0.000 NA
ATOM     32  C   UNK A   0      -5.863  12.977  23.031  0.00  0.00    +0.000 A 
ATOM     33  C   UNK A   0      -6.940  12.941  24.075  0.00  0.00    +0.000 C 
ATOM     34  N   UNK A   0      -6.245  13.234  21.776  0.00  0.00    +0.000 NA
ATOM     35  C   UNK A   0      -5.304  13.097  20.822  0.00  0.00    +0.000 A 
ATOM     36  C   UNK A   0      -3.984  12.692  21.074  0.00  0.00    +0.000 A 
ATOM     37  C   UNK A   0      -2.996  12.397  20.082  0.00  0.00    +0.000 A 
BRANCH  35  38
ATOM     38  S   UNK A   0      -5.921  13.427  19.181  0.00  0.00    +0.000 S 
ATOM     39  H   UNK A   0      -4.999  12.660  18.585  0.00  0.00    +0.000 HD
ENDBRANCH  35  38
ENDBRANCH  26  27
ENDBRANCH  22  26
ENDBRANCH   1  22
TORSDOF 14
ENDMDL
