MODEL 1
REMARK VINA RESULT:      -8.3      0.000      0.000
REMARK  Name = 
REMARK  3 active torsions:
REMARK  status: ('A' for Active; 'I' for Inactive)
REMARK    1  A    between atoms: C_1  and  C_2
REMARK    2  A    between atoms: C_7  and  N_8
REMARK    3  A    between atoms: C_13  and  C_14
REMARK                            x       y       z     vdW  Elec       q    Type
REMARK                         _______ _______ _______ _____ _____    ______ ____
ROOT
ATOM      1  N   UNL     1       1.966   8.328  19.601  0.00  0.00    +0.000 N 
ATOM      2  C   UNL     1       2.462   7.023  19.733  0.00  0.00    +0.000 A 
ATOM      3  N   UNL     1       1.685   6.082  20.300  0.00  0.00    +0.000 NA
ATOM      4  C   UNL     1       2.152   4.826  20.353  0.00  0.00    +0.000 A 
ATOM      5  C   UNL     1       3.368   4.460  19.847  0.00  0.00    +0.000 A 
ATOM      6  C   UNL     1       4.109   5.481  19.290  0.00  0.00    +0.000 A 
ATOM      7  N   UNL     1       3.685   6.766  19.239  0.00  0.00    +0.000 NA
ATOM      8  H   UNL     1       2.731   8.933  19.329  0.00  0.00    +0.000 HD
ENDROOT
BRANCH   6   9
ATOM      9  C   UNL     1       5.376   5.175  18.651  0.00  0.00    +0.000 A 
ATOM     10  C   UNL     1       6.657   5.036  19.235  0.00  0.00    +0.000 A 
ATOM     11  N   UNL     1       7.610   4.754  18.349  0.00  0.00    +0.000 NA
ATOM     12  N   UNL     1       6.954   4.695  17.179  0.00  0.00    +0.000 N 
ATOM     13  N   UNL     1       7.636   4.399  16.050  0.00  0.00    +0.000 NA
ATOM     14  C   UNL     1       6.888   4.413  14.999  0.00  0.00    +0.000 A 
ATOM     15  C   UNL     1       5.440   4.738  14.950  0.00  0.00    +0.000 A 
ATOM     16  C   UNL     1       4.838   5.009  16.114  0.00  0.00    +0.000 A 
ATOM     17  C   UNL     1       5.605   4.978  17.302  0.00  0.00    +0.000 A 
ENDBRANCH   6   9
BRANCH   1  24
ATOM     18  C   UNL     1      -0.007  10.194  18.455  0.00  0.00    +0.000 C 
ATOM     19  C   UNL     1       0.091   9.886  19.923  0.00  0.00    +0.000 A 
ATOM     20  C   UNL     1      -0.798  10.539  20.800  0.00  0.00    +0.000 A 
ATOM     21  C   UNL     1      -0.777  10.278  22.169  0.00  0.00    +0.000 A 
ATOM     22  C   UNL     1       0.140   9.372  22.684  0.00  0.00    +0.000 A 
ATOM     23  C   UNL     1       1.036   8.731  21.828  0.00  0.00    +0.000 A 
ATOM     24  C   UNL     1       1.021   8.958  20.441  0.00  0.00    +0.000 A 
ENDBRANCH   1  24
TORSDOF 2
ENDMDL
MODEL 2
REMARK VINA RESULT:      -8.0      2.330      8.370
REMARK  Name = 
REMARK  3 active torsions:
REMARK  status: ('A' for Active; 'I' for Inactive)
REMARK    1  A    between atoms: C_1  and  C_2
REMARK    2  A    between atoms: C_7  and  N_8
REMARK    3  A    between atoms: C_13  and  C_14
REMARK                            x       y       z     vdW  Elec       q    Type
REMARK                         _______ _______ _______ _____ _____    ______ ____
ROOT
ATOM      1  N   UNL     1       2.772   6.116  19.034  0.00  0.00    +0.000 N 
ATOM      2  C   UNL     1       2.277   7.428  18.996  0.00  0.00    +0.000 A 
ATOM      3  N   UNL     1       2.279   8.093  17.827  0.00  0.00    +0.000 NA
ATOM      4  C   UNL     1       1.738   9.320  17.798  0.00  0.00    +0.000 A 
ATOM      5  C   UNL     1       1.175   9.913  18.895  0.00  0.00    +0.000 A 
ATOM      6  C   UNL     1       1.219   9.172  20.056  0.00  0.00    +0.000 A 
ATOM      7  N   UNL     1       1.778   7.941  20.133  0.00  0.00    +0.000 NA
ATOM      8  H   UNL     1       2.865   5.839  20.004  0.00  0.00    +0.000 HD
ENDROOT
BRANCH   6   9
ATOM      9  C   UNL     1       0.572   9.682  21.251  0.00  0.00    +0.000 A 
ATOM     10  C   UNL     1       0.761   9.298  22.599  0.00  0.00    +0.000 A 
ATOM     11  N   UNL     1      -0.007   9.974  23.451  0.00  0.00    +0.000 NA
ATOM     12  N   UNL     1      -0.696  10.815  22.664  0.00  0.00    +0.000 N 
ATOM     13  N   UNL     1      -1.572  11.681  23.224  0.00  0.00    +0.000 NA
ATOM     14  C   UNL     1      -2.189  12.399  22.348  0.00  0.00    +0.000 A 
ATOM     15  C   UNL     1      -2.033  12.322  20.874  0.00  0.00    +0.000 A 
ATOM     16  C   UNL     1      -1.137  11.446  20.402  0.00  0.00    +0.000 A 
ATOM     17  C   UNL     1      -0.410  10.653  21.320  0.00  0.00    +0.000 A 
ENDBRANCH   6   9
BRANCH   1  24
ATOM     18  C   UNL     1       2.197   3.689  17.465  0.00  0.00    +0.000 C 
ATOM     19  C   UNL     1       3.531   4.383  17.464  0.00  0.00    +0.000 A 
ATOM     20  C   UNL     1       4.567   3.832  16.682  0.00  0.00    +0.000 A 
ATOM     21  C   UNL     1       5.817   4.443  16.616  0.00  0.00    +0.000 A 
ATOM     22  C   UNL     1       6.058   5.603  17.340  0.00  0.00    +0.000 A 
ATOM     23  C   UNL     1       5.045   6.149  18.130  0.00  0.00    +0.000 A 
ATOM     24  C   UNL     1       3.768   5.568  18.195  0.00  0.00    +0.000 A 
ENDBRANCH   1  24
TORSDOF 2
ENDMDL
MODEL 3
REMARK VINA RESULT:      -7.9      2.153      3.061
REMARK  Name = 
REMARK  3 active torsions:
REMARK  status: ('A' for Active; 'I' for Inactive)
REMARK    1  A    between atoms: C_1  and  C_2
REMARK    2  A    between atoms: C_7  and  N_8
REMARK    3  A    between atoms: C_13  and  C_14
REMARK                            x       y       z     vdW  Elec       q    Type
REMARK                         _______ _______ _______ _____ _____    ______ ____
ROOT
ATOM      1  N   UNL     1       1.361   9.976  17.810  0.00  0.00    +0.000 N 
ATOM      2  C   UNL     1       1.749   8.855  18.558  0.00  0.00    +0.000 A 
ATOM      3  N   UNL     1       1.372   8.766  19.846  0.00  0.00    +0.000 NA
ATOM      4  C   UNL     1       1.694   7.653  20.522  0.00  0.00    +0.000 A 
ATOM      5  C   UNL     1       2.372   6.607  19.958  0.00  0.00    +0.000 A 
ATOM      6  C   UNL     1       2.731   6.777  18.639  0.00  0.00    +0.000 A 
ATOM      7  N   UNL     1       2.446   7.894  17.927  0.00  0.00    +0.000 NA
ATOM      8  H   UNL     1       1.874   9.969  16.937  0.00  0.00    +0.000 HD
ENDROOT
BRANCH   6   9
ATOM      9  C   UNL     1       3.378   5.687  17.931  0.00  0.00    +0.000 A 
ATOM     10  C   UNL     1       2.867   4.408  17.610  0.00  0.00    +0.000 A 
ATOM     11  N   UNL     1       3.738   3.645  16.952  0.00  0.00    +0.000 NA
ATOM     12  N   UNL     1       4.821   4.428  16.828  0.00  0.00    +0.000 N 
ATOM     13  N   UNL     1       5.908   3.959  16.174  0.00  0.00    +0.000 NA
ATOM     14  C   UNL     1       6.885   4.802  16.164  0.00  0.00    +0.000 A 
ATOM     15  C   UNL     1       6.901   6.142  16.802  0.00  0.00    +0.000 A 
ATOM     16  C   UNL     1       5.781   6.535  17.420  0.00  0.00    +0.000 A 
ATOM     17  C   UNL     1       4.668   5.662  17.435  0.00  0.00    +0.000 A 
ENDBRANCH   6   9
BRANCH   1  24
ATOM     18  C   UNL     1      -1.377  10.771  18.556  0.00  0.00    +0.000 C 
ATOM     19  C   UNL     1      -0.192  11.694  18.635  0.00  0.00    +0.000 A 
ATOM     20  C   UNL     1      -0.408  13.016  19.073  0.00  0.00    +0.000 A 
ATOM     21  C   UNL     1       0.652  13.913  19.195  0.00  0.00    +0.000 A 
ATOM     22  C   UNL     1       1.939  13.509  18.867  0.00  0.00    +0.000 A 
ATOM     23  C   UNL     1       2.162  12.207  18.417  0.00  0.00    +0.000 A 
ATOM     24  C   UNL     1       1.116  11.275  18.308  0.00  0.00    +0.000 A 
ENDBRANCH   1  24
TORSDOF 2
ENDMDL
MODEL 4
REMARK VINA RESULT:      -7.8      2.545      3.849
REMARK  Name = 
REMARK  3 active torsions:
REMARK  status: ('A' for Active; 'I' for Inactive)
REMARK    1  A    between atoms: C_1  and  C_2
REMARK    2  A    between atoms: C_7  and  N_8
REMARK    3  A    between atoms: C_13  and  C_14
REMARK                            x       y       z     vdW  Elec       q    Type
REMARK                         _______ _______ _______ _____ _____    ______ ____
ROOT
ATOM      1  N   UNL     1       1.078  10.449  18.059  0.00  0.00    +0.000 N 
ATOM      2  C   UNL     1       1.441   9.354  18.856  0.00  0.00    +0.000 A 
ATOM      3  N   UNL     1       1.051   9.323  20.142  0.00  0.00    +0.000 NA
ATOM      4  C   UNL     1       1.349   8.234  20.867  0.00  0.00    +0.000 A 
ATOM      5  C   UNL     1       2.016   7.156  20.353  0.00  0.00    +0.000 A 
ATOM      6  C   UNL     1       2.391   7.267  19.031  0.00  0.00    +0.000 A 
ATOM      7  N   UNL     1       2.130   8.358  18.272  0.00  0.00    +0.000 NA
ATOM      8  H   UNL     1       1.599  10.399  17.192  0.00  0.00    +0.000 HD
ENDROOT
BRANCH   6   9
ATOM      9  C   UNL     1       3.028   6.139  18.375  0.00  0.00    +0.000 A 
ATOM     10  C   UNL     1       4.230   6.106  17.632  0.00  0.00    +0.000 A 
ATOM     11  N   UNL     1       4.523   4.895  17.161  0.00  0.00    +0.000 NA
ATOM     12  N   UNL     1       3.516   4.126  17.605  0.00  0.00    +0.000 N 
ATOM     13  N   UNL     1       3.515   2.804  17.318  0.00  0.00    +0.000 NA
ATOM     14  C   UNL     1       2.471   2.198  17.775  0.00  0.00    +0.000 A 
ATOM     15  C   UNL     1       1.342   2.817  18.513  0.00  0.00    +0.000 A 
ATOM     16  C   UNL     1       1.428   4.129  18.766  0.00  0.00    +0.000 A 
ATOM     17  C   UNL     1       2.565   4.838  18.314  0.00  0.00    +0.000 A 
ENDBRANCH   6   9
BRANCH   1  24
ATOM     18  C   UNL     1      -1.682  11.420  18.414  0.00  0.00    +0.000 C 
ATOM     19  C   UNL     1      -0.464  12.273  18.641  0.00  0.00    +0.000 A 
ATOM     20  C   UNL     1      -0.656  13.615  19.028  0.00  0.00    +0.000 A 
ATOM     21  C   UNL     1       0.430  14.450  19.280  0.00  0.00    +0.000 A 
ATOM     22  C   UNL     1       1.723  13.964  19.136  0.00  0.00    +0.000 A 
ATOM     23  C   UNL     1       1.925  12.641  18.738  0.00  0.00    +0.000 A 
ATOM     24  C   UNL     1       0.848  11.771  18.501  0.00  0.00    +0.000 A 
ENDBRANCH   1  24
TORSDOF 2
ENDMDL
MODEL 5
REMARK VINA RESULT:      -7.7      2.552      3.856
REMARK  Name = 
REMARK  3 active torsions:
REMARK  status: ('A' for Active; 'I' for Inactive)
REMARK    1  A    between atoms: C_1  and  C_2
REMARK    2  A    between atoms: C_7  and  N_8
REMARK    3  A    between atoms: C_13  and  C_14
REMARK                            x       y       z     vdW  Elec       q    Type
REMARK                         _______ _______ _______ _____ _____    ______ ____
ROOT
ATOM      1  N   UNL     1       0.557  10.655  18.193  0.00  0.00    +0.000 N 
ATOM      2  C   UNL     1       1.087   9.589  18.933  0.00  0.00    +0.000 A 
ATOM      3  N   UNL     1       0.777   9.481  20.237  0.00  0.00    +0.000 NA
ATOM      4  C   UNL     1       1.238   8.415  20.910  0.00  0.00    +0.000 A 
ATOM      5  C   UNL     1       1.992   7.434  20.326  0.00  0.00    +0.000 A 
ATOM      6  C   UNL     1       2.275   7.621  18.990  0.00  0.00    +0.000 A 
ATOM      7  N   UNL     1       1.849   8.694  18.282  0.00  0.00    +0.000 NA
ATOM      8  H   UNL     1       1.029  10.688  17.297  0.00  0.00    +0.000 HD
ENDROOT
BRANCH   6   9
ATOM      9  C   UNL     1       2.996   6.591  18.265  0.00  0.00    +0.000 A 
ATOM     10  C   UNL     1       4.172   6.708  17.487  0.00  0.00    +0.000 A 
ATOM     11  N   UNL     1       4.565   5.554  16.953  0.00  0.00    +0.000 NA
ATOM     12  N   UNL     1       3.652   4.671  17.388  0.00  0.00    +0.000 N 
ATOM     13  N   UNL     1       3.769   3.369  17.040  0.00  0.00    +0.000 NA
ATOM     14  C   UNL     1       2.805   2.644  17.497  0.00  0.00    +0.000 A 
ATOM     15  C   UNL     1       1.646   3.117  18.295  0.00  0.00    +0.000 A 
ATOM     16  C   UNL     1       1.612   4.418  18.606  0.00  0.00    +0.000 A 
ATOM     17  C   UNL     1       2.660   5.254  18.156  0.00  0.00    +0.000 A 
ENDBRANCH   6   9
BRANCH   1  24
ATOM     18  C   UNL     1       2.535  12.840  18.167  0.00  0.00    +0.000 C 
ATOM     19  C   UNL     1       1.146  12.983  18.724  0.00  0.00    +0.000 A 
ATOM     20  C   UNL     1       0.777  14.225  19.279  0.00  0.00    +0.000 A 
ATOM     21  C   UNL     1      -0.504  14.431  19.787  0.00  0.00    +0.000 A 
ATOM     22  C   UNL     1      -1.431  13.397  19.762  0.00  0.00    +0.000 A 
ATOM     23  C   UNL     1      -1.072  12.158  19.229  0.00  0.00    +0.000 A 
ATOM     24  C   UNL     1       0.205  11.931  18.689  0.00  0.00    +0.000 A 
ENDBRANCH   1  24
TORSDOF 2
ENDMDL
MODEL 6
REMARK VINA RESULT:      -7.7      1.159      1.253
REMARK  Name = 
REMARK  3 active torsions:
REMARK  status: ('A' for Active; 'I' for Inactive)
REMARK    1  A    between atoms: C_1  and  C_2
REMARK    2  A    between atoms: C_7  and  N_8
REMARK    3  A    between atoms: C_13  and  C_14
REMARK                            x       y       z     vdW  Elec       q    Type
REMARK                         _______ _______ _______ _____ _____    ______ ____
ROOT
ATOM      1  N   UNL     1       1.888   8.588  19.033  0.00  0.00    +0.000 N 
ATOM      2  C   UNL     1       2.653   7.413  19.032  0.00  0.00    +0.000 A 
ATOM      3  N   UNL     1       2.222   6.351  19.735  0.00  0.00    +0.000 NA
ATOM      4  C   UNL     1       2.934   5.215  19.663  0.00  0.00    +0.000 A 
ATOM      5  C   UNL     1       4.062   5.089  18.900  0.00  0.00    +0.000 A 
ATOM      6  C   UNL     1       4.444   6.223  18.217  0.00  0.00    +0.000 A 
ATOM      7  N   UNL     1       3.768   7.395  18.281  0.00  0.00    +0.000 NA
ATOM      8  H   UNL     1       2.438   9.328  18.615  0.00  0.00    +0.000 HD
ENDROOT
BRANCH   6   9
ATOM      9  C   UNL     1       5.580   6.162  17.314  0.00  0.00    +0.000 A 
ATOM     10  C   UNL     1       6.810   6.857  17.384  0.00  0.00    +0.000 A 
ATOM     11  N   UNL     1       7.635   6.564  16.380  0.00  0.00    +0.000 NA
ATOM     12  N   UNL     1       6.952   5.666  15.653  0.00  0.00    +0.000 N 
ATOM     13  N   UNL     1       7.522   5.133  14.549  0.00  0.00    +0.000 NA
ATOM     14  C   UNL     1       6.739   4.315  13.930  0.00  0.00    +0.000 A 
ATOM     15  C   UNL     1       5.346   3.970  14.308  0.00  0.00    +0.000 A 
ATOM     16  C   UNL     1       4.861   4.532  15.422  0.00  0.00    +0.000 A 
ATOM     17  C   UNL     1       5.687   5.415  16.156  0.00  0.00    +0.000 A 
ENDBRANCH   6   9
BRANCH   1  24
ATOM     18  C   UNL     1      -0.418  10.310  18.399  0.00  0.00    +0.000 C 
ATOM     19  C   UNL     1      -0.050   9.895  19.797  0.00  0.00    +0.000 A 
ATOM     20  C   UNL     1      -0.842  10.369  20.862  0.00  0.00    +0.000 A 
ATOM     21  C   UNL     1      -0.571   9.999  22.177  0.00  0.00    +0.000 A 
ATOM     22  C   UNL     1       0.502   9.162  22.451  0.00  0.00    +0.000 A 
ATOM     23  C   UNL     1       1.303   8.698  21.406  0.00  0.00    +0.000 A 
ATOM     24  C   UNL     1       1.038   9.036  20.069  0.00  0.00    +0.000 A 
ENDBRANCH   1  24
TORSDOF 2
ENDMDL
MODEL 7
REMARK VINA RESULT:      -7.7      4.013      5.187
REMARK  Name = 
REMARK  3 active torsions:
REMARK  status: ('A' for Active; 'I' for Inactive)
REMARK    1  A    between atoms: C_1  and  C_2
REMARK    2  A    between atoms: C_7  and  N_8
REMARK    3  A    between atoms: C_13  and  C_14
REMARK                            x       y       z     vdW  Elec       q    Type
REMARK                         _______ _______ _______ _____ _____    ______ ____
ROOT
ATOM      1  N   UNL     1       4.109   3.006  18.258  0.00  0.00    +0.000 N 
ATOM      2  C   UNL     1       5.039   4.017  17.975  0.00  0.00    +0.000 A 
ATOM      3  N   UNL     1       5.482   4.796  18.978  0.00  0.00    +0.000 NA
ATOM      4  C   UNL     1       6.423   5.710  18.698  0.00  0.00    +0.000 A 
ATOM      5  C   UNL     1       6.956   5.873  17.449  0.00  0.00    +0.000 A 
ATOM      6  C   UNL     1       6.445   5.044  16.474  0.00  0.00    +0.000 A 
ATOM      7  N   UNL     1       5.478   4.125  16.710  0.00  0.00    +0.000 NA
ATOM      8  H   UNL     1       3.753   2.646  17.381  0.00  0.00    +0.000 HD
ENDROOT
BRANCH   6   9
ATOM      9  C   UNL     1       7.009   5.085  15.137  0.00  0.00    +0.000 A 
ATOM     10  C   UNL     1       8.137   5.797  14.669  0.00  0.00    +0.000 A 
ATOM     11  N   UNL     1       8.376   5.610  13.372  0.00  0.00    +0.000 NA
ATOM     12  N   UNL     1       7.408   4.763  12.987  0.00  0.00    +0.000 N 
ATOM     13  N   UNL     1       7.370   4.339  11.703  0.00  0.00    +0.000 NA
ATOM     14  C   UNL     1       6.369   3.560  11.467  0.00  0.00    +0.000 A 
ATOM     15  C   UNL     1       5.318   3.154  12.433  0.00  0.00    +0.000 A 
ATOM     16  C   UNL     1       5.437   3.608  13.687  0.00  0.00    +0.000 A 
ATOM     17  C   UNL     1       6.533   4.442  14.009  0.00  0.00    +0.000 A 
ENDBRANCH   6   9
BRANCH   1  24
ATOM     18  C   UNL     1       1.451   4.190  17.792  0.00  0.00    +0.000 C 
ATOM     19  C   UNL     1       1.882   3.608  19.109  0.00  0.00    +0.000 A 
ATOM     20  C   UNL     1       0.971   3.647  20.184  0.00  0.00    +0.000 A 
ATOM     21  C   UNL     1       1.299   3.100  21.422  0.00  0.00    +0.000 A 
ATOM     22  C   UNL     1       2.545   2.520  21.613  0.00  0.00    +0.000 A 
ATOM     23  C   UNL     1       3.463   2.489  20.560  0.00  0.00    +0.000 A 
ATOM     24  C   UNL     1       3.149   3.011  19.294  0.00  0.00    +0.000 A 
ENDBRANCH   1  24
TORSDOF 2
ENDMDL
MODEL 8
REMARK VINA RESULT:      -7.6      1.794      8.141
REMARK  Name = 
REMARK  3 active torsions:
REMARK  status: ('A' for Active; 'I' for Inactive)
REMARK    1  A    between atoms: C_1  and  C_2
REMARK    2  A    between atoms: C_7  and  N_8
REMARK    3  A    between atoms: C_13  and  C_14
REMARK                            x       y       z     vdW  Elec       q    Type
REMARK                         _______ _______ _______ _____ _____    ______ ____
ROOT
ATOM      1  N   UNL     1       4.853   7.096  17.257  0.00  0.00    +0.000 N 
ATOM      2  C   UNL     1       3.822   6.935  18.194  0.00  0.00    +0.000 A 
ATOM      3  N   UNL     1       3.773   5.807  18.924  0.00  0.00    +0.000 NA
ATOM      4  C   UNL     1       2.820   5.704  19.862  0.00  0.00    +0.000 A 
ATOM      5  C   UNL     1       1.912   6.695  20.116  0.00  0.00    +0.000 A 
ATOM      6  C   UNL     1       2.021   7.815  19.320  0.00  0.00    +0.000 A 
ATOM      7  N   UNL     1       2.953   7.949  18.346  0.00  0.00    +0.000 NA
ATOM      8  H   UNL     1       4.637   7.900  16.680  0.00  0.00    +0.000 HD
ENDROOT
BRANCH   6   9
ATOM      9  C   UNL     1       1.157   8.954  19.572  0.00  0.00    +0.000 A 
ATOM     10  C   UNL     1       0.670   9.920  18.660  0.00  0.00    +0.000 A 
ATOM     11  N   UNL     1      -0.104  10.840  19.233  0.00  0.00    +0.000 NA
ATOM     12  N   UNL     1      -0.136  10.473  20.524  0.00  0.00    +0.000 N 
ATOM     13  N   UNL     1      -0.868  11.197  21.402  0.00  0.00    +0.000 NA
ATOM     14  C   UNL     1      -0.776  10.753  22.610  0.00  0.00    +0.000 A 
ATOM     15  C   UNL     1       0.043   9.604  23.069  0.00  0.00    +0.000 A 
ATOM     16  C   UNL     1       0.728   8.933  22.135  0.00  0.00    +0.000 A 
ATOM     17  C   UNL     1       0.641   9.359  20.789  0.00  0.00    +0.000 A 
ENDBRANCH   6   9
BRANCH   1  24
ATOM     18  C   UNL     1       7.455   6.114  18.231  0.00  0.00    +0.000 C 
ATOM     19  C   UNL     1       6.790   5.606  16.982  0.00  0.00    +0.000 A 
ATOM     20  C   UNL     1       7.456   4.619  16.228  0.00  0.00    +0.000 A 
ATOM     21  C   UNL     1       6.881   4.088  15.076  0.00  0.00    +0.000 A 
ATOM     22  C   UNL     1       5.640   4.543  14.650  0.00  0.00    +0.000 A 
ATOM     23  C   UNL     1       4.978   5.532  15.381  0.00  0.00    +0.000 A 
ATOM     24  C   UNL     1       5.524   6.067  16.559  0.00  0.00    +0.000 A 
ENDBRANCH   1  24
TORSDOF 2
ENDMDL
MODEL 9
REMARK VINA RESULT:      -7.5      2.950      8.097
REMARK  Name = 
REMARK  3 active torsions:
REMARK  status: ('A' for Active; 'I' for Inactive)
REMARK    1  A    between atoms: C_1  and  C_2
REMARK    2  A    between atoms: C_7  and  N_8
REMARK    3  A    between atoms: C_13  and  C_14
REMARK                            x       y       z     vdW  Elec       q    Type
REMARK                         _______ _______ _______ _____ _____    ______ ____
ROOT
ATOM      1  N   UNL     1       2.988   7.309  17.784  0.00  0.00    +0.000 N 
ATOM      2  C   UNL     1       2.182   7.937  18.745  0.00  0.00    +0.000 A 
ATOM      3  N   UNL     1       2.145   7.441  19.994  0.00  0.00    +0.000 NA
ATOM      4  C   UNL     1       1.423   8.097  20.913  0.00  0.00    +0.000 A 
ATOM      5  C   UNL     1       0.739   9.250  20.641  0.00  0.00    +0.000 A 
ATOM      6  C   UNL     1       0.818   9.691  19.337  0.00  0.00    +0.000 A 
ATOM      7  N   UNL     1       1.517   9.044  18.373  0.00  0.00    +0.000 NA
ATOM      8  H   UNL     1       2.760   7.693  16.875  0.00  0.00    +0.000 HD
ENDROOT
BRANCH   6   9
ATOM      9  C   UNL     1       0.196  10.951  18.973  0.00  0.00    +0.000 A 
ATOM     10  C   UNL     1      -1.089  11.185  18.430  0.00  0.00    +0.000 A 
ATOM     11  N   UNL     1      -1.339  12.474  18.209  0.00  0.00    +0.000 NA
ATOM     12  N   UNL     1      -0.220  13.093  18.618  0.00  0.00    +0.000 N 
ATOM     13  N   UNL     1      -0.146  14.441  18.551  0.00  0.00    +0.000 NA
ATOM     14  C   UNL     1       0.997  14.896  18.941  0.00  0.00    +0.000 A 
ATOM     15  C   UNL     1       2.159  14.092  19.395  0.00  0.00    +0.000 A 
ATOM     16  C   UNL     1       1.998  12.764  19.443  0.00  0.00    +0.000 A 
ATOM     17  C   UNL     1       0.754  12.213  19.055  0.00  0.00    +0.000 A 
ENDBRANCH   6   9
BRANCH   1  24
ATOM     18  C   UNL     1       5.803   6.522  17.407  0.00  0.00    +0.000 C 
ATOM     19  C   UNL     1       4.673   5.537  17.526  0.00  0.00    +0.000 A 
ATOM     20  C   UNL     1       4.977   4.164  17.434  0.00  0.00    +0.000 A 
ATOM     21  C   UNL     1       3.979   3.199  17.563  0.00  0.00    +0.000 A 
ATOM     22  C   UNL     1       2.664   3.591  17.771  0.00  0.00    +0.000 A 
ATOM     23  C   UNL     1       2.349   4.948  17.848  0.00  0.00    +0.000 A 
ATOM     24  C   UNL     1       3.338   5.941  17.745  0.00  0.00    +0.000 A 
ENDBRANCH   1  24
TORSDOF 2
ENDMDL
