MODEL 1
REMARK VINA RESULT:      -7.8      0.000      0.000
REMARK  Name = 
REMARK  9 active torsions:
REMARK  status: ('A' for Active; 'I' for Inactive)
REMARK    1  A    between atoms: C_1  and  C_2
REMARK    2  A    between atoms: C_2  and  S_3
REMARK    3  A    between atoms: C_2  and  C_21
REMARK    4  A    between atoms: S_3  and  C_4
REMARK    5  A    between atoms: C_7  and  C_8
REMARK    6  A    between atoms: C_8  and  C_9
REMARK    7  A    between atoms: N_14  and  C_15
REMARK    8  A    between atoms: N_23  and  C_24
REMARK    9  A    between atoms: C_24  and  C_25
REMARK                            x       y       z     vdW  Elec       q    Type
REMARK                         _______ _______ _______ _____ _____    ______ ____
ROOT
ATOM      1  C   UNL     1       1.954   7.522  19.490  0.00  0.00    +0.000 A 
ATOM      2  N   UNL     1       2.059   8.523  18.640  0.00  0.00    +0.000 NA
ATOM      3  N   UNL     1       2.998   8.209  17.706  0.00  0.00    +0.000 NA
ATOM      4  C   UNL     1       3.462   7.006  17.972  0.00  0.00    +0.000 A 
ATOM      5  N   UNL     1       2.812   6.503  19.112  0.00  0.00    +0.000 N 
ENDROOT
BRANCH   5   6
ATOM      6  C   UNL     1       3.026   5.142  19.595  0.00  0.00    +0.000 C 
ATOM      7  C   UNL     1       2.269   4.659  20.838  0.00  0.00    +0.000 C 
ATOM      8  C   UNL     1       0.890   4.094  20.558  0.00  0.00    +0.000 C 
ATOM      9  C   UNL     1       0.841   3.146  19.358  0.00  0.00    +0.000 C 
ATOM     10  C   UNL     1       1.684   3.539  18.143  0.00  0.00    +0.000 C 
ATOM     11  C   UNL     1       3.059   4.070  18.503  0.00  0.00    +0.000 C 
ENDBRANCH   5   6
BRANCH   1  12
ATOM     12  S   UNL     1       0.858   7.596  20.842  0.00  0.00    +0.000 S 
BRANCH  12  14
ATOM     13  C   UNL     1       0.877   9.420  22.957  0.00  0.00    +0.000 C 
ATOM     14  C   UNL     1       0.990   9.334  21.435  0.00  0.00    +0.000 C 
BRANCH  14  15
ATOM     15  C   UNL     1      -0.106  10.233  20.802  0.00  0.00    +0.000 C 
ATOM     16  O   UNL     1      -0.993  10.783  21.455  0.00  0.00    +0.000 OA
ATOM     17  N   UNL     1       0.027  10.489  19.454  0.00  0.00    +0.000 N 
ATOM     18  H   UNL     1       0.824  10.105  18.960  0.00  0.00    +0.000 HD
BRANCH  17  19
ATOM     19  C   UNL     1      -0.685  11.577  18.814  0.00  0.00    +0.000 C 
BRANCH  19  20
ATOM     20  C   UNL     1      -1.728  11.042  17.902  0.00  0.00    +0.000 A 
ATOM     21  C   UNL     1      -1.819   9.892  17.143  0.00  0.00    +0.000 A 
ATOM     22  C   UNL     1      -3.086   9.927  16.511  0.00  0.00    +0.000 A 
ATOM     23  C   UNL     1      -3.690  11.090  16.928  0.00  0.00    +0.000 A 
ATOM     24  O   UNL     1      -2.876  11.774  17.773  0.00  0.00    +0.000 OA
ENDBRANCH  19  20
ENDBRANCH  17  19
ENDBRANCH  14  15
ENDBRANCH  12  14
ENDBRANCH   1  12
BRANCH   4  25
ATOM     25  C   UNL     1       4.512   6.311  17.147  0.00  0.00    +0.000 C 
BRANCH  25  26
ATOM     26  C   UNL     1       5.896   6.487  17.713  0.00  0.00    +0.000 A 
ATOM     27  C   UNL     1       6.808   7.487  17.431  0.00  0.00    +0.000 A 
ATOM     28  C   UNL     1       8.063   7.276  18.072  0.00  0.00    +0.000 A 
ATOM     29  C   UNL     1       8.051   6.154  18.869  0.00  0.00    +0.000 A 
ATOM     30  S   UNL     1       6.521   5.393  18.878  0.00  0.00    +0.000 S 
ENDBRANCH  25  26
ENDBRANCH   4  25
TORSDOF 8
ENDMDL
MODEL 2
REMARK VINA RESULT:      -7.7      4.220      7.667
REMARK  Name = 
REMARK  9 active torsions:
REMARK  status: ('A' for Active; 'I' for Inactive)
REMARK    1  A    between atoms: C_1  and  C_2
REMARK    2  A    between atoms: C_2  and  S_3
REMARK    3  A    between atoms: C_2  and  C_21
REMARK    4  A    between atoms: S_3  and  C_4
REMARK    5  A    between atoms: C_7  and  C_8
REMARK    6  A    between atoms: C_8  and  C_9
REMARK    7  A    between atoms: N_14  and  C_15
REMARK    8  A    between atoms: N_23  and  C_24
REMARK    9  A    between atoms: C_24  and  C_25
REMARK                            x       y       z     vdW  Elec       q    Type
REMARK                         _______ _______ _______ _____ _____    ______ ____
ROOT
ATOM      1  C   UNL     1       4.162   5.692  18.019  0.00  0.00    +0.000 A 
ATOM      2  N   UNL     1       4.776   6.823  17.735  0.00  0.00    +0.000 NA
ATOM      3  N   UNL     1       3.864   7.833  17.750  0.00  0.00    +0.000 NA
ATOM      4  C   UNL     1       2.689   7.327  18.057  0.00  0.00    +0.000 A 
ATOM      5  N   UNL     1       2.821   5.942  18.257  0.00  0.00    +0.000 N 
ENDROOT
BRANCH   5   6
ATOM      6  C   UNL     1       1.713   5.112  18.722  0.00  0.00    +0.000 C 
ATOM      7  C   UNL     1       1.274   3.908  17.880  0.00  0.00    +0.000 C 
ATOM      8  C   UNL     1       2.042   2.630  18.157  0.00  0.00    +0.000 C 
ATOM      9  C   UNL     1       2.250   2.343  19.645  0.00  0.00    +0.000 C 
ATOM     10  C   UNL     1       2.571   3.545  20.534  0.00  0.00    +0.000 C 
ATOM     11  C   UNL     1       1.744   4.776  20.214  0.00  0.00    +0.000 C 
ENDBRANCH   5   6
BRANCH   1  12
ATOM     12  S   UNL     1       5.025   4.180  18.059  0.00  0.00    +0.000 S 
BRANCH  12  14
ATOM     13  C   UNL     1       7.241   5.675  18.869  0.00  0.00    +0.000 C 
ATOM     14  C   UNL     1       6.787   4.659  17.821  0.00  0.00    +0.000 C 
BRANCH  14  15
ATOM     15  C   UNL     1       7.025   5.260  16.409  0.00  0.00    +0.000 C 
ATOM     16  O   UNL     1       7.602   6.331  16.215  0.00  0.00    +0.000 OA
ATOM     17  N   UNL     1       6.652   4.467  15.344  0.00  0.00    +0.000 N 
ATOM     18  H   UNL     1       6.271   3.546  15.531  0.00  0.00    +0.000 HD
BRANCH  17  19
ATOM     19  C   UNL     1       7.134   4.723  14.002  0.00  0.00    +0.000 C 
BRANCH  19  20
ATOM     20  C   UNL     1       6.370   3.914  13.019  0.00  0.00    +0.000 A 
ATOM     21  C   UNL     1       6.743   2.990  12.063  0.00  0.00    +0.000 A 
ATOM     22  C   UNL     1       5.547   2.528  11.462  0.00  0.00    +0.000 A 
ATOM     23  C   UNL     1       4.521   3.193  12.092  0.00  0.00    +0.000 A 
ATOM     24  O   UNL     1       5.008   4.035  13.039  0.00  0.00    +0.000 OA
ENDBRANCH  19  20
ENDBRANCH  17  19
ENDBRANCH  14  15
ENDBRANCH  12  14
ENDBRANCH   1  12
BRANCH   4  25
ATOM     25  C   UNL     1       1.430   8.144  18.182  0.00  0.00    +0.000 C 
BRANCH  25  26
ATOM     26  C   UNL     1       1.282   8.763  19.546  0.00  0.00    +0.000 A 
ATOM     27  C   UNL     1       1.444   8.154  20.778  0.00  0.00    +0.000 A 
ATOM     28  C   UNL     1       1.117   9.021  21.860  0.00  0.00    +0.000 A 
ATOM     29  C   UNL     1       0.772  10.280  21.425  0.00  0.00    +0.000 A 
ATOM     30  S   UNL     1       0.891  10.424  19.726  0.00  0.00    +0.000 S 
ENDBRANCH  25  26
ENDBRANCH   4  25
TORSDOF 8
ENDMDL
MODEL 3
REMARK VINA RESULT:      -7.5      0.796      1.055
REMARK  Name = 
REMARK  9 active torsions:
REMARK  status: ('A' for Active; 'I' for Inactive)
REMARK    1  A    between atoms: C_1  and  C_2
REMARK    2  A    between atoms: C_2  and  S_3
REMARK    3  A    between atoms: C_2  and  C_21
REMARK    4  A    between atoms: S_3  and  C_4
REMARK    5  A    between atoms: C_7  and  C_8
REMARK    6  A    between atoms: C_8  and  C_9
REMARK    7  A    between atoms: N_14  and  C_15
REMARK    8  A    between atoms: N_23  and  C_24
REMARK    9  A    between atoms: C_24  and  C_25
REMARK                            x       y       z     vdW  Elec       q    Type
REMARK                         _______ _______ _______ _____ _____    ______ ____
ROOT
ATOM      1  C   UNL     1       2.077   7.544  19.264  0.00  0.00    +0.000 A 
ATOM      2  N   UNL     1       2.188   8.560  18.433  0.00  0.00    +0.000 NA
ATOM      3  N   UNL     1       3.134   8.262  17.500  0.00  0.00    +0.000 NA
ATOM      4  C   UNL     1       3.595   7.055  17.748  0.00  0.00    +0.000 A 
ATOM      5  N   UNL     1       2.937   6.532  18.874  0.00  0.00    +0.000 N 
ENDROOT
BRANCH   5   6
ATOM      6  C   UNL     1       3.148   5.162  19.335  0.00  0.00    +0.000 C 
ATOM      7  C   UNL     1       2.539   4.718  20.671  0.00  0.00    +0.000 C 
ATOM      8  C   UNL     1       1.110   4.220  20.579  0.00  0.00    +0.000 C 
ATOM      9  C   UNL     1       0.857   3.275  19.403  0.00  0.00    +0.000 C 
ATOM     10  C   UNL     1       1.550   3.625  18.085  0.00  0.00    +0.000 C 
ATOM     11  C   UNL     1       2.984   4.089  18.256  0.00  0.00    +0.000 C 
ENDBRANCH   5   6
BRANCH   1  12
ATOM     12  S   UNL     1       0.971   7.595  20.610  0.00  0.00    +0.000 S 
BRANCH  12  14
ATOM     13  C   UNL     1       1.144   9.329  22.792  0.00  0.00    +0.000 C 
ATOM     14  C   UNL     1       1.135   9.308  21.264  0.00  0.00    +0.000 C 
BRANCH  14  15
ATOM     15  C   UNL     1      -0.016  10.219  20.760  0.00  0.00    +0.000 C 
ATOM     16  O   UNL     1      -0.826  10.767  21.509  0.00  0.00    +0.000 OA
ATOM     17  N   UNL     1      -0.025  10.489  19.407  0.00  0.00    +0.000 N 
ATOM     18  H   UNL     1       0.713  10.107  18.828  0.00  0.00    +0.000 HD
BRANCH  17  19
ATOM     19  C   UNL     1      -0.794  11.587  18.858  0.00  0.00    +0.000 C 
BRANCH  19  20
ATOM     20  C   UNL     1      -1.852  11.070  17.952  0.00  0.00    +0.000 A 
ATOM     21  C   UNL     1      -3.156  11.452  17.709  0.00  0.00    +0.000 A 
ATOM     22  C   UNL     1      -3.646  10.591  16.697  0.00  0.00    +0.000 A 
ATOM     23  C   UNL     1      -2.610   9.743  16.383  0.00  0.00    +0.000 A 
ATOM     24  O   UNL     1      -1.516  10.025  17.137  0.00  0.00    +0.000 OA
ENDBRANCH  19  20
ENDBRANCH  17  19
ENDBRANCH  14  15
ENDBRANCH  12  14
ENDBRANCH   1  12
BRANCH   4  25
ATOM     25  C   UNL     1       4.651   6.373  16.918  0.00  0.00    +0.000 C 
BRANCH  25  26
ATOM     26  C   UNL     1       5.990   6.343  17.606  0.00  0.00    +0.000 A 
ATOM     27  C   UNL     1       6.509   5.345  18.410  0.00  0.00    +0.000 A 
ATOM     28  C   UNL     1       7.764   5.704  18.981  0.00  0.00    +0.000 A 
ATOM     29  C   UNL     1       8.191   6.940  18.549  0.00  0.00    +0.000 A 
ATOM     30  S   UNL     1       7.106   7.634  17.426  0.00  0.00    +0.000 S 
ENDBRANCH  25  26
ENDBRANCH   4  25
TORSDOF 8
ENDMDL
MODEL 4
REMARK VINA RESULT:      -7.4      4.307      7.696
REMARK  Name = 
REMARK  9 active torsions:
REMARK  status: ('A' for Active; 'I' for Inactive)
REMARK    1  A    between atoms: C_1  and  C_2
REMARK    2  A    between atoms: C_2  and  S_3
REMARK    3  A    between atoms: C_2  and  C_21
REMARK    4  A    between atoms: S_3  and  C_4
REMARK    5  A    between atoms: C_7  and  C_8
REMARK    6  A    between atoms: C_8  and  C_9
REMARK    7  A    between atoms: N_14  and  C_15
REMARK    8  A    between atoms: N_23  and  C_24
REMARK    9  A    between atoms: C_24  and  C_25
REMARK                            x       y       z     vdW  Elec       q    Type
REMARK                         _______ _______ _______ _____ _____    ______ ____
ROOT
ATOM      1  C   UNL     1       3.176   5.658  18.153  0.00  0.00    +0.000 A 
ATOM      2  N   UNL     1       3.526   6.859  17.740  0.00  0.00    +0.000 NA
ATOM      3  N   UNL     1       2.925   7.787  18.535  0.00  0.00    +0.000 NA
ATOM      4  C   UNL     1       2.217   7.157  19.448  0.00  0.00    +0.000 A 
ATOM      5  N   UNL     1       2.351   5.771  19.259  0.00  0.00    +0.000 N 
ENDROOT
BRANCH   5   6
ATOM      6  C   UNL     1       1.774   4.798  20.183  0.00  0.00    +0.000 C 
ATOM      7  C   UNL     1       0.629   3.897  19.705  0.00  0.00    +0.000 C 
ATOM      8  C   UNL     1       1.076   2.624  19.011  0.00  0.00    +0.000 C 
ATOM      9  C   UNL     1       2.221   1.900  19.722  0.00  0.00    +0.000 C 
ATOM     10  C   UNL     1       3.320   2.781  20.317  0.00  0.00    +0.000 C 
ATOM     11  C   UNL     1       2.794   4.020  21.017  0.00  0.00    +0.000 C 
ENDBRANCH   5   6
BRANCH   1  12
ATOM     12  S   UNL     1       3.740   4.223  17.340  0.00  0.00    +0.000 S 
BRANCH  12  14
ATOM     13  C   UNL     1       5.889   5.019  18.938  0.00  0.00    +0.000 C 
ATOM     14  C   UNL     1       5.543   4.174  17.712  0.00  0.00    +0.000 C 
BRANCH  14  15
ATOM     15  C   UNL     1       6.384   4.676  16.508  0.00  0.00    +0.000 C 
ATOM     16  O   UNL     1       7.494   5.197  16.625  0.00  0.00    +0.000 OA
ATOM     17  N   UNL     1       5.871   4.403  15.257  0.00  0.00    +0.000 N 
ATOM     18  H   UNL     1       5.004   3.883  15.187  0.00  0.00    +0.000 HD
BRANCH  17  19
ATOM     19  C   UNL     1       6.694   4.478  14.067  0.00  0.00    +0.000 C 
BRANCH  19  20
ATOM     20  C   UNL     1       6.076   3.696  12.965  0.00  0.00    +0.000 A 
ATOM     21  C   UNL     1       6.541   2.684  12.149  0.00  0.00    +0.000 A 
ATOM     22  C   UNL     1       5.460   2.314  11.312  0.00  0.00    +0.000 A 
ATOM     23  C   UNL     1       4.404   3.117  11.673  0.00  0.00    +0.000 A 
ATOM     24  O   UNL     1       4.765   3.959  12.676  0.00  0.00    +0.000 OA
ENDBRANCH  19  20
ENDBRANCH  17  19
ENDBRANCH  14  15
ENDBRANCH  12  14
ENDBRANCH   1  12
BRANCH   4  25
ATOM     25  C   UNL     1       1.418   7.852  20.517  0.00  0.00    +0.000 C 
BRANCH  25  26
ATOM     26  C   UNL     1       1.027   9.251  20.122  0.00  0.00    +0.000 A 
ATOM     27  C   UNL     1       0.945  10.371  20.930  0.00  0.00    +0.000 A 
ATOM     28  C   UNL     1       0.436  11.506  20.236  0.00  0.00    +0.000 A 
ATOM     29  C   UNL     1       0.200  11.235  18.908  0.00  0.00    +0.000 A 
ATOM     30  S   UNL     1       0.638   9.635  18.495  0.00  0.00    +0.000 S 
ENDBRANCH  25  26
ENDBRANCH   4  25
TORSDOF 8
ENDMDL
MODEL 5
REMARK VINA RESULT:      -7.4      4.517      7.775
REMARK  Name = 
REMARK  9 active torsions:
REMARK  status: ('A' for Active; 'I' for Inactive)
REMARK    1  A    between atoms: C_1  and  C_2
REMARK    2  A    between atoms: C_2  and  S_3
REMARK    3  A    between atoms: C_2  and  C_21
REMARK    4  A    between atoms: S_3  and  C_4
REMARK    5  A    between atoms: C_7  and  C_8
REMARK    6  A    between atoms: C_8  and  C_9
REMARK    7  A    between atoms: N_14  and  C_15
REMARK    8  A    between atoms: N_23  and  C_24
REMARK    9  A    between atoms: C_24  and  C_25
REMARK                            x       y       z     vdW  Elec       q    Type
REMARK                         _______ _______ _______ _____ _____    ______ ____
ROOT
ATOM      1  C   UNL     1       3.271   5.734  18.203  0.00  0.00    +0.000 A 
ATOM      2  N   UNL     1       3.552   6.935  17.738  0.00  0.00    +0.000 NA
ATOM      3  N   UNL     1       2.928   7.862  18.515  0.00  0.00    +0.000 NA
ATOM      4  C   UNL     1       2.274   7.234  19.468  0.00  0.00    +0.000 A 
ATOM      5  N   UNL     1       2.469   5.850  19.326  0.00  0.00    +0.000 N 
ENDROOT
BRANCH   5   6
ATOM      6  C   UNL     1       1.963   4.887  20.301  0.00  0.00    +0.000 C 
ATOM      7  C   UNL     1       0.696   4.087  19.976  0.00  0.00    +0.000 C 
ATOM      8  C   UNL     1       0.937   2.813  19.190  0.00  0.00    +0.000 C 
ATOM      9  C   UNL     1       2.117   1.984  19.701  0.00  0.00    +0.000 C 
ATOM     10  C   UNL     1       3.356   2.762  20.148  0.00  0.00    +0.000 C 
ATOM     11  C   UNL     1       3.034   4.008  20.951  0.00  0.00    +0.000 C 
ENDBRANCH   5   6
BRANCH   1  12
ATOM     12  S   UNL     1       3.882   4.299  17.428  0.00  0.00    +0.000 S 
BRANCH  12  14
ATOM     13  C   UNL     1       6.101   5.409  18.714  0.00  0.00    +0.000 C 
ATOM     14  C   UNL     1       5.711   4.439  17.598  0.00  0.00    +0.000 C 
BRANCH  14  15
ATOM     15  C   UNL     1       6.368   4.912  16.274  0.00  0.00    +0.000 C 
ATOM     16  O   UNL     1       7.355   5.647  16.230  0.00  0.00    +0.000 OA
ATOM     17  N   UNL     1       5.854   4.367  15.116  0.00  0.00    +0.000 N 
ATOM     18  H   UNL     1       5.106   3.686  15.186  0.00  0.00    +0.000 HD
BRANCH  17  19
ATOM     19  C   UNL     1       6.580   4.424  13.863  0.00  0.00    +0.000 C 
BRANCH  19  20
ATOM     20  C   UNL     1       5.874   3.632  12.824  0.00  0.00    +0.000 A 
ATOM     21  C   UNL     1       4.633   3.748  12.229  0.00  0.00    +0.000 A 
ATOM     22  C   UNL     1       4.548   2.707  11.272  0.00  0.00    +0.000 A 
ATOM     23  C   UNL     1       5.741   2.027  11.339  0.00  0.00    +0.000 A 
ATOM     24  O   UNL     1       6.554   2.580  12.276  0.00  0.00    +0.000 OA
ENDBRANCH  19  20
ENDBRANCH  17  19
ENDBRANCH  14  15
ENDBRANCH  12  14
ENDBRANCH   1  12
BRANCH   4  25
ATOM     25  C   UNL     1       1.469   7.931  20.533  0.00  0.00    +0.000 C 
BRANCH  25  26
ATOM     26  C   UNL     1       0.964   9.276  20.082  0.00  0.00    +0.000 A 
ATOM     27  C   UNL     1       0.607   9.663  18.803  0.00  0.00    +0.000 A 
ATOM     28  C   UNL     1       0.276  11.047  18.726  0.00  0.00    +0.000 A 
ATOM     29  C   UNL     1       0.334  11.659  19.958  0.00  0.00    +0.000 A 
ATOM     30  S   UNL     1       0.738  10.557  21.200  0.00  0.00    +0.000 S 
ENDBRANCH  25  26
ENDBRANCH   4  25
TORSDOF 8
ENDMDL
MODEL 6
REMARK VINA RESULT:      -7.3      4.912      8.288
REMARK  Name = 
REMARK  9 active torsions:
REMARK  status: ('A' for Active; 'I' for Inactive)
REMARK    1  A    between atoms: C_1  and  C_2
REMARK    2  A    between atoms: C_2  and  S_3
REMARK    3  A    between atoms: C_2  and  C_21
REMARK    4  A    between atoms: S_3  and  C_4
REMARK    5  A    between atoms: C_7  and  C_8
REMARK    6  A    between atoms: C_8  and  C_9
REMARK    7  A    between atoms: N_14  and  C_15
REMARK    8  A    between atoms: N_23  and  C_24
REMARK    9  A    between atoms: C_24  and  C_25
REMARK                            x       y       z     vdW  Elec       q    Type
REMARK                         _______ _______ _______ _____ _____    ______ ____
ROOT
ATOM      1  C   UNL     1       3.854   5.412  17.462  0.00  0.00    +0.000 A 
ATOM      2  N   UNL     1       4.173   6.648  17.138  0.00  0.00    +0.000 NA
ATOM      3  N   UNL     1       3.549   7.501  17.996  0.00  0.00    +0.000 NA
ATOM      4  C   UNL     1       2.855   6.789  18.858  0.00  0.00    +0.000 A 
ATOM      5  N   UNL     1       3.025   5.424  18.571  0.00  0.00    +0.000 N 
ENDROOT
BRANCH   5   6
ATOM      6  C   UNL     1       2.472   4.374  19.421  0.00  0.00    +0.000 C 
ATOM      7  C   UNL     1       1.441   3.400  18.836  0.00  0.00    +0.000 C 
ATOM      8  C   UNL     1       2.039   2.195  18.135  0.00  0.00    +0.000 C 
ATOM      9  C   UNL     1       3.191   1.542  18.900  0.00  0.00    +0.000 C 
ATOM     10  C   UNL     1       4.170   2.487  19.599  0.00  0.00    +0.000 C 
ATOM     11  C   UNL     1       3.496   3.651  20.299  0.00  0.00    +0.000 C 
ENDBRANCH   5   6
BRANCH   1  12
ATOM     12  S   UNL     1       4.455   4.054  16.551  0.00  0.00    +0.000 S 
BRANCH  12  14
ATOM     13  C   UNL     1       6.728   5.229  17.674  0.00  0.00    +0.000 C 
ATOM     14  C   UNL     1       6.283   4.277  16.564  0.00  0.00    +0.000 C 
BRANCH  14  15
ATOM     15  C   UNL     1       6.797   4.822  15.204  0.00  0.00    +0.000 C 
ATOM     16  O   UNL     1       7.738   5.609  15.100  0.00  0.00    +0.000 OA
ATOM     17  N   UNL     1       6.211   4.284  14.077  0.00  0.00    +0.000 N 
ATOM     18  H   UNL     1       5.508   3.563  14.189  0.00  0.00    +0.000 HD
BRANCH  17  19
ATOM     19  C   UNL     1       6.820   4.416  12.769  0.00  0.00    +0.000 C 
BRANCH  19  20
ATOM     20  C   UNL     1       6.650   3.160  11.995  0.00  0.00    +0.000 A 
ATOM     21  C   UNL     1       7.540   2.299  11.385  0.00  0.00    +0.000 A 
ATOM     22  C   UNL     1       6.769   1.246  10.835  0.00  0.00    +0.000 A 
ATOM     23  C   UNL     1       5.460   1.527  11.149  0.00  0.00    +0.000 A 
ATOM     24  O   UNL     1       5.375   2.685  11.853  0.00  0.00    +0.000 OA
ENDBRANCH  19  20
ENDBRANCH  17  19
ENDBRANCH  14  15
ENDBRANCH  12  14
ENDBRANCH   1  12
BRANCH   4  25
ATOM     25  C   UNL     1       2.037   7.386  19.972  0.00  0.00    +0.000 C 
BRANCH  25  26
ATOM     26  C   UNL     1       1.424   8.706  19.589  0.00  0.00    +0.000 A 
ATOM     27  C   UNL     1       1.328   9.264  18.327  0.00  0.00    +0.000 A 
ATOM     28  C   UNL     1       0.781  10.579  18.353  0.00  0.00    +0.000 A 
ATOM     29  C   UNL     1       0.423  10.962  19.626  0.00  0.00    +0.000 A 
ATOM     30  S   UNL     1       0.701   9.722  20.768  0.00  0.00    +0.000 S 
ENDBRANCH  25  26
ENDBRANCH   4  25
TORSDOF 8
ENDMDL
MODEL 7
REMARK VINA RESULT:      -7.2      2.867      3.732
REMARK  Name = 
REMARK  9 active torsions:
REMARK  status: ('A' for Active; 'I' for Inactive)
REMARK    1  A    between atoms: C_1  and  C_2
REMARK    2  A    between atoms: C_2  and  S_3
REMARK    3  A    between atoms: C_2  and  C_21
REMARK    4  A    between atoms: S_3  and  C_4
REMARK    5  A    between atoms: C_7  and  C_8
REMARK    6  A    between atoms: C_8  and  C_9
REMARK    7  A    between atoms: N_14  and  C_15
REMARK    8  A    between atoms: N_23  and  C_24
REMARK    9  A    between atoms: C_24  and  C_25
REMARK                            x       y       z     vdW  Elec       q    Type
REMARK                         _______ _______ _______ _____ _____    ______ ____
ROOT
ATOM      1  C   UNL     1       3.576   6.019  17.738  0.00  0.00    +0.000 A 
ATOM      2  N   UNL     1       4.172   7.041  17.160  0.00  0.00    +0.000 NA
ATOM      3  N   UNL     1       5.314   6.602  16.563  0.00  0.00    +0.000 NA
ATOM      4  C   UNL     1       5.415   5.305  16.761  0.00  0.00    +0.000 A 
ATOM      5  N   UNL     1       4.308   4.866  17.508  0.00  0.00    +0.000 N 
ENDROOT
BRANCH   5   6
ATOM      6  C   UNL     1       4.072   3.454  17.795  0.00  0.00    +0.000 C 
ATOM      7  C   UNL     1       4.331   2.923  19.211  0.00  0.00    +0.000 C 
ATOM      8  C   UNL     1       3.161   3.073  20.164  0.00  0.00    +0.000 C 
ATOM      9  C   UNL     1       1.813   2.679  19.558  0.00  0.00    +0.000 C 
ATOM     10  C   UNL     1       1.573   3.090  18.104  0.00  0.00    +0.000 C 
ATOM     11  C   UNL     1       2.779   2.885  17.207  0.00  0.00    +0.000 C 
ENDBRANCH   5   6
BRANCH   1  12
ATOM     12  S   UNL     1       2.092   6.222  18.628  0.00  0.00    +0.000 S 
BRANCH  12  14
ATOM     13  C   UNL     1       1.657   7.872  20.840  0.00  0.00    +0.000 C 
ATOM     14  C   UNL     1       2.275   7.864  19.442  0.00  0.00    +0.000 C 
BRANCH  14  15
ATOM     15  C   UNL     1       1.618   8.990  18.599  0.00  0.00    +0.000 C 
ATOM     16  O   UNL     1       1.794   9.121  17.387  0.00  0.00    +0.000 OA
ATOM     17  N   UNL     1       0.714   9.792  19.263  0.00  0.00    +0.000 N 
ATOM     18  H   UNL     1       0.512   9.599  20.237  0.00  0.00    +0.000 HD
BRANCH  17  19
ATOM     19  C   UNL     1      -0.229  10.626  18.546  0.00  0.00    +0.000 C 
BRANCH  19  20
ATOM     20  C   UNL     1       0.126  12.059  18.707  0.00  0.00    +0.000 A 
ATOM     21  C   UNL     1       1.325  12.744  18.677  0.00  0.00    +0.000 A 
ATOM     22  C   UNL     1       1.010  14.113  18.856  0.00  0.00    +0.000 A 
ATOM     23  C   UNL     1      -0.358  14.178  18.977  0.00  0.00    +0.000 A 
ATOM     24  O   UNL     1      -0.905  12.939  18.887  0.00  0.00    +0.000 OA
ENDBRANCH  19  20
ENDBRANCH  17  19
ENDBRANCH  14  15
ENDBRANCH  12  14
ENDBRANCH   1  12
BRANCH   4  25
ATOM     25  C   UNL     1       6.547   4.462  16.238  0.00  0.00    +0.000 C 
BRANCH  25  26
ATOM     26  C   UNL     1       6.480   4.277  14.745  0.00  0.00    +0.000 A 
ATOM     27  C   UNL     1       5.538   3.572  14.018  0.00  0.00    +0.000 A 
ATOM     28  C   UNL     1       5.851   3.519  12.629  0.00  0.00    +0.000 A 
ATOM     29  C   UNL     1       6.989   4.233  12.330  0.00  0.00    +0.000 A 
ATOM     30  S   UNL     1       7.643   5.000  13.711  0.00  0.00    +0.000 S 
ENDBRANCH  25  26
ENDBRANCH   4  25
TORSDOF 8
ENDMDL
MODEL 8
REMARK VINA RESULT:      -7.2      1.990      2.855
REMARK  Name = 
REMARK  9 active torsions:
REMARK  status: ('A' for Active; 'I' for Inactive)
REMARK    1  A    between atoms: C_1  and  C_2
REMARK    2  A    between atoms: C_2  and  S_3
REMARK    3  A    between atoms: C_2  and  C_21
REMARK    4  A    between atoms: S_3  and  C_4
REMARK    5  A    between atoms: C_7  and  C_8
REMARK    6  A    between atoms: C_8  and  C_9
REMARK    7  A    between atoms: N_14  and  C_15
REMARK    8  A    between atoms: N_23  and  C_24
REMARK    9  A    between atoms: C_24  and  C_25
REMARK                            x       y       z     vdW  Elec       q    Type
REMARK                         _______ _______ _______ _____ _____    ______ ____
ROOT
ATOM      1  C   UNL     1       2.072   7.371  19.585  0.00  0.00    +0.000 A 
ATOM      2  N   UNL     1       2.179   8.365  18.727  0.00  0.00    +0.000 NA
ATOM      3  N   UNL     1       3.099   8.031  17.781  0.00  0.00    +0.000 NA
ATOM      4  C   UNL     1       3.549   6.823  18.047  0.00  0.00    +0.000 A 
ATOM      5  N   UNL     1       2.909   6.337  19.200  0.00  0.00    +0.000 N 
ENDROOT
BRANCH   5   6
ATOM      6  C   UNL     1       3.111   4.975  19.688  0.00  0.00    +0.000 C 
ATOM      7  C   UNL     1       2.363   4.510  20.944  0.00  0.00    +0.000 C 
ATOM      8  C   UNL     1       0.973   3.962  20.684  0.00  0.00    +0.000 C 
ATOM      9  C   UNL     1       0.896   3.009  19.490  0.00  0.00    +0.000 C 
ATOM     10  C   UNL     1       1.729   3.383  18.263  0.00  0.00    +0.000 C 
ATOM     11  C   UNL     1       3.115   3.897  18.602  0.00  0.00    +0.000 C 
ENDBRANCH   5   6
BRANCH   1  12
ATOM     12  S   UNL     1       0.999   7.469  20.954  0.00  0.00    +0.000 S 
BRANCH  12  14
ATOM     13  C   UNL     1       0.279   9.505  22.726  0.00  0.00    +0.000 C 
ATOM     14  C   UNL     1       1.003   9.255  21.403  0.00  0.00    +0.000 C 
BRANCH  14  15
ATOM     15  C   UNL     1       0.337  10.118  20.299  0.00  0.00    +0.000 C 
ATOM     16  O   UNL     1      -0.794   9.903  19.859  0.00  0.00    +0.000 OA
ATOM     17  N   UNL     1       1.039  11.235  19.898  0.00  0.00    +0.000 N 
ATOM     18  H   UNL     1       1.923  11.444  20.348  0.00  0.00    +0.000 HD
BRANCH  17  19
ATOM     19  C   UNL     1       0.402  12.309  19.164  0.00  0.00    +0.000 C 
BRANCH  19  20
ATOM     20  C   UNL     1       1.387  13.378  18.859  0.00  0.00    +0.000 A 
ATOM     21  C   UNL     1       1.343  14.755  18.946  0.00  0.00    +0.000 A 
ATOM     22  C   UNL     1       2.619  15.224  18.549  0.00  0.00    +0.000 A 
ATOM     23  C   UNL     1       3.361  14.106  18.251  0.00  0.00    +0.000 A 
ATOM     24  O   UNL     1       2.625  12.980  18.437  0.00  0.00    +0.000 OA
ENDBRANCH  19  20
ENDBRANCH  17  19
ENDBRANCH  14  15
ENDBRANCH  12  14
ENDBRANCH   1  12
BRANCH   4  25
ATOM     25  C   UNL     1       4.575   6.108  17.210  0.00  0.00    +0.000 C 
BRANCH  25  26
ATOM     26  C   UNL     1       5.957   6.191  17.802  0.00  0.00    +0.000 A 
ATOM     27  C   UNL     1       6.557   5.312  18.685  0.00  0.00    +0.000 A 
ATOM     28  C   UNL     1       7.836   5.765  19.119  0.00  0.00    +0.000 A 
ATOM     29  C   UNL     1       8.198   6.945  18.510  0.00  0.00    +0.000 A 
ATOM     30  S   UNL     1       7.021   7.471  17.388  0.00  0.00    +0.000 S 
ENDBRANCH  25  26
ENDBRANCH   4  25
TORSDOF 8
ENDMDL
MODEL 9
REMARK VINA RESULT:      -7.1      2.731      3.581
REMARK  Name = 
REMARK  9 active torsions:
REMARK  status: ('A' for Active; 'I' for Inactive)
REMARK    1  A    between atoms: C_1  and  C_2
REMARK    2  A    between atoms: C_2  and  S_3
REMARK    3  A    between atoms: C_2  and  C_21
REMARK    4  A    between atoms: S_3  and  C_4
REMARK    5  A    between atoms: C_7  and  C_8
REMARK    6  A    between atoms: C_8  and  C_9
REMARK    7  A    between atoms: N_14  and  C_15
REMARK    8  A    between atoms: N_23  and  C_24
REMARK    9  A    between atoms: C_24  and  C_25
REMARK                            x       y       z     vdW  Elec       q    Type
REMARK                         _______ _______ _______ _____ _____    ______ ____
ROOT
ATOM      1  C   UNL     1       3.576   5.972  17.999  0.00  0.00    +0.000 A 
ATOM      2  N   UNL     1       4.124   7.016  17.412  0.00  0.00    +0.000 NA
ATOM      3  N   UNL     1       5.261   6.615  16.779  0.00  0.00    +0.000 NA
ATOM      4  C   UNL     1       5.406   5.320  16.964  0.00  0.00    +0.000 A 
ATOM      5  N   UNL     1       4.334   4.843  17.737  0.00  0.00    +0.000 N 
ENDROOT
BRANCH   5   6
ATOM      6  C   UNL     1       4.148   3.423  18.020  0.00  0.00    +0.000 C 
ATOM      7  C   UNL     1       4.339   2.911  19.453  0.00  0.00    +0.000 C 
ATOM      8  C   UNL     1       3.103   3.008  20.327  0.00  0.00    +0.000 C 
ATOM      9  C   UNL     1       1.818   2.547  19.637  0.00  0.00    +0.000 C 
ATOM     10  C   UNL     1       1.654   2.939  18.168  0.00  0.00    +0.000 C 
ATOM     11  C   UNL     1       2.925   2.789  17.353  0.00  0.00    +0.000 C 
ENDBRANCH   5   6
BRANCH   1  12
ATOM     12  S   UNL     1       2.113   6.125  18.932  0.00  0.00    +0.000 S 
BRANCH  12  14
ATOM     13  C   UNL     1       1.578   7.882  21.037  0.00  0.00    +0.000 C 
ATOM     14  C   UNL     1       2.208   7.820  19.646  0.00  0.00    +0.000 C 
BRANCH  14  15
ATOM     15  C   UNL     1       1.505   8.859  18.733  0.00  0.00    +0.000 C 
ATOM     16  O   UNL     1       1.545   8.820  17.503  0.00  0.00    +0.000 OA
ATOM     17  N   UNL     1       0.715   9.791  19.374  0.00  0.00    +0.000 N 
ATOM     18  H   UNL     1       0.619   9.739  20.382  0.00  0.00    +0.000 HD
BRANCH  17  19
ATOM     19  C   UNL     1      -0.270  10.573  18.656  0.00  0.00    +0.000 C 
BRANCH  19  20
ATOM     20  C   UNL     1      -1.092  11.363  19.608  0.00  0.00    +0.000 A 
ATOM     21  C   UNL     1      -2.203  12.168  19.454  0.00  0.00    +0.000 A 
ATOM     22  C   UNL     1      -2.558  12.616  20.749  0.00  0.00    +0.000 A 
ATOM     23  C   UNL     1      -1.645  12.055  21.611  0.00  0.00    +0.000 A 
ATOM     24  O   UNL     1      -0.752  11.291  20.930  0.00  0.00    +0.000 OA
ENDBRANCH  19  20
ENDBRANCH  17  19
ENDBRANCH  14  15
ENDBRANCH  12  14
ENDBRANCH   1  12
BRANCH   4  25
ATOM     25  C   UNL     1       6.546   4.515  16.401  0.00  0.00    +0.000 C 
BRANCH  25  26
ATOM     26  C   UNL     1       6.421   4.306  14.915  0.00  0.00    +0.000 A 
ATOM     27  C   UNL     1       5.425   3.632  14.232  0.00  0.00    +0.000 A 
ATOM     28  C   UNL     1       5.689   3.540  12.835  0.00  0.00    +0.000 A 
ATOM     29  C   UNL     1       6.847   4.197  12.486  0.00  0.00    +0.000 A 
ATOM     30  S   UNL     1       7.580   4.958  13.830  0.00  0.00    +0.000 S 
ENDBRANCH  25  26
ENDBRANCH   4  25
TORSDOF 8
ENDMDL
