MODEL 1
REMARK VINA RESULT:      -9.0      0.000      0.000
REMARK  Name = 
REMARK  5 active torsions:
REMARK  status: ('A' for Active; 'I' for Inactive)
REMARK    1  A    between atoms: C_1  and  C_2
REMARK    2  A    between atoms: C_5  and  S_6
REMARK    3  A    between atoms: S_6  and  N_9
REMARK    4  A    between atoms: C_13  and  C_14
REMARK    5  A    between atoms: C_20  and  N_21
REMARK                            x       y       z     vdW  Elec       q    Type
REMARK                         _______ _______ _______ _____ _____    ______ ____
ROOT
ATOM      1  N   UNL     1      -0.195   9.344  21.085  0.00  0.00    +0.000 N 
ATOM      2  C   UNL     1       0.706   8.498  20.406  0.00  0.00    +0.000 A 
ATOM      3  C   UNL     1       1.215   7.351  20.968  0.00  0.00    +0.000 A 
ATOM      4  C   UNL     1       2.121   6.607  20.214  0.00  0.00    +0.000 A 
ATOM      5  C   UNL     1       2.536   7.077  18.965  0.00  0.00    +0.000 A 
ATOM      6  N   UNL     1       2.078   8.269  18.525  0.00  0.00    +0.000 NA
ATOM      7  N   UNL     1       1.108   8.952  19.212  0.00  0.00    +0.000 NA
ATOM      8  H   UNL     1      -0.830   9.797  20.431  0.00  0.00    +0.000 HD
ENDROOT
BRANCH   5   9
ATOM      9  C   UNL     1       3.470   6.338  18.077  0.00  0.00    +0.000 A 
ATOM     10  C   UNL     1       4.311   7.133  17.242  0.00  0.00    +0.000 A 
ATOM     11  C   UNL     1       5.201   6.587  16.320  0.00  0.00    +0.000 A 
ATOM     12  C   UNL     1       5.276   5.216  16.196  0.00  0.00    +0.000 A 
ATOM     13  C   UNL     1       4.478   4.409  17.006  0.00  0.00    +0.000 A 
ATOM     14  F   UNL     1       4.669   3.083  16.871  0.00  0.00    +0.000 F 
ATOM     15  C   UNL     1       3.550   4.911  17.968  0.00  0.00    +0.000 A 
BRANCH  15  16
ATOM     16  N   UNL     1       2.839   3.997  18.746  0.00  0.00    +0.000 N 
ATOM     17  C   UNL     1       1.493   3.509  18.447  0.00  0.00    +0.000 C 
ATOM     18  C   UNL     1       0.597   3.642  19.677  0.00  0.00    +0.000 C 
ATOM     19  C   UNL     1       1.226   3.024  20.923  0.00  0.00    +0.000 C 
ATOM     20  C   UNL     1       2.664   3.501  21.126  0.00  0.00    +0.000 C 
ATOM     21  C   UNL     1       3.496   3.290  19.858  0.00  0.00    +0.000 C 
ENDBRANCH  15  16
ENDBRANCH   5   9
BRANCH   1  22
ATOM     22  S   UNL     1       0.559  10.525  22.029  0.00  0.00    +0.000 S 
ATOM     23  O   UNL     1       1.539  11.216  21.224  0.00  0.00    +0.000 OA
ATOM     24  O   UNL     1       0.943   9.872  23.263  0.00  0.00    +0.000 OA
BRANCH  22  29
ATOM     25  C   UNL     1      -3.914  14.424  23.361  0.00  0.00    +0.000 C 
ATOM     26  C   UNL     1      -2.802  13.471  23.032  0.00  0.00    +0.000 A 
ATOM     27  C   UNL     1      -1.702  13.884  22.266  0.00  0.00    +0.000 A 
ATOM     28  C   UNL     1      -0.670  12.990  21.968  0.00  0.00    +0.000 A 
ATOM     29  C   UNL     1      -0.744  11.674  22.431  0.00  0.00    +0.000 A 
ATOM     30  C   UNL     1      -1.849  11.242  23.172  0.00  0.00    +0.000 A 
ATOM     31  C   UNL     1      -2.871  12.141  23.473  0.00  0.00    +0.000 A 
ENDBRANCH  22  29
ENDBRANCH   1  22
TORSDOF 4
ENDMDL
MODEL 2
REMARK VINA RESULT:      -8.9      0.999      1.656
REMARK  Name = 
REMARK  5 active torsions:
REMARK  status: ('A' for Active; 'I' for Inactive)
REMARK    1  A    between atoms: C_1  and  C_2
REMARK    2  A    between atoms: C_5  and  S_6
REMARK    3  A    between atoms: S_6  and  N_9
REMARK    4  A    between atoms: C_13  and  C_14
REMARK    5  A    between atoms: C_20  and  N_21
REMARK                            x       y       z     vdW  Elec       q    Type
REMARK                         _______ _______ _______ _____ _____    ______ ____
ROOT
ATOM      1  N   UNL     1      -0.278  10.404  20.193  0.00  0.00    +0.000 N 
ATOM      2  C   UNL     1       0.619   9.415  19.737  0.00  0.00    +0.000 A 
ATOM      3  C   UNL     1       1.207   8.501  20.579  0.00  0.00    +0.000 A 
ATOM      4  C   UNL     1       2.101   7.587  20.021  0.00  0.00    +0.000 A 
ATOM      5  C   UNL     1       2.423   7.672  18.665  0.00  0.00    +0.000 A 
ATOM      6  N   UNL     1       1.889   8.666  17.921  0.00  0.00    +0.000 NA
ATOM      7  N   UNL     1       0.932   9.500  18.439  0.00  0.00    +0.000 NA
ATOM      8  H   UNL     1      -0.967  10.625  19.479  0.00  0.00    +0.000 HD
ENDROOT
BRANCH   5   9
ATOM      9  C   UNL     1       3.336   6.723  17.976  0.00  0.00    +0.000 A 
ATOM     10  C   UNL     1       4.269   7.295  17.061  0.00  0.00    +0.000 A 
ATOM     11  C   UNL     1       5.154   6.534  16.302  0.00  0.00    +0.000 A 
ATOM     12  C   UNL     1       5.130   5.160  16.428  0.00  0.00    +0.000 A 
ATOM     13  C   UNL     1       4.239   4.569  17.322  0.00  0.00    +0.000 A 
ATOM     14  F   UNL     1       4.334   3.231  17.435  0.00  0.00    +0.000 F 
ATOM     15  C   UNL     1       3.312   5.297  18.126  0.00  0.00    +0.000 A 
BRANCH  15  16
ATOM     16  N   UNL     1       2.500   4.589  19.013  0.00  0.00    +0.000 N 
ATOM     17  C   UNL     1       2.754   4.442  20.447  0.00  0.00    +0.000 C 
ATOM     18  C   UNL     1       2.663   2.972  20.851  0.00  0.00    +0.000 C 
ATOM     19  C   UNL     1       1.371   2.317  20.373  0.00  0.00    +0.000 C 
ATOM     20  C   UNL     1       1.116   2.588  18.889  0.00  0.00    +0.000 C 
ATOM     21  C   UNL     1       1.184   4.088  18.587  0.00  0.00    +0.000 C 
ENDBRANCH  15  16
ENDBRANCH   5   9
BRANCH   1  22
ATOM     22  S   UNL     1       0.478  11.831  20.690  0.00  0.00    +0.000 S 
ATOM     23  O   UNL     1       0.586  12.724  19.560  0.00  0.00    +0.000 OA
ATOM     24  O   UNL     1       1.655  11.428  21.431  0.00  0.00    +0.000 OA
BRANCH  22  29
ATOM     25  C   UNL     1      -3.354  14.273  24.732  0.00  0.00    +0.000 C 
ATOM     26  C   UNL     1      -2.417  13.664  23.730  0.00  0.00    +0.000 A 
ATOM     27  C   UNL     1      -2.592  12.343  23.291  0.00  0.00    +0.000 A 
ATOM     28  C   UNL     1      -1.717  11.785  22.356  0.00  0.00    +0.000 A 
ATOM     29  C   UNL     1      -0.656  12.550  21.864  0.00  0.00    +0.000 A 
ATOM     30  C   UNL     1      -0.454  13.858  22.315  0.00  0.00    +0.000 A 
ATOM     31  C   UNL     1      -1.335  14.412  23.242  0.00  0.00    +0.000 A 
ENDBRANCH  22  29
ENDBRANCH   1  22
TORSDOF 4
ENDMDL
MODEL 3
REMARK VINA RESULT:      -8.8      0.584      1.014
REMARK  Name = 
REMARK  5 active torsions:
REMARK  status: ('A' for Active; 'I' for Inactive)
REMARK    1  A    between atoms: C_1  and  C_2
REMARK    2  A    between atoms: C_5  and  S_6
REMARK    3  A    between atoms: S_6  and  N_9
REMARK    4  A    between atoms: C_13  and  C_14
REMARK    5  A    between atoms: C_20  and  N_21
REMARK                            x       y       z     vdW  Elec       q    Type
REMARK                         _______ _______ _______ _____ _____    ______ ____
ROOT
ATOM      1  N   UNL     1      -0.070   9.312  20.504  0.00  0.00    +0.000 N 
ATOM      2  C   UNL     1       0.866   8.437  19.915  0.00  0.00    +0.000 A 
ATOM      3  C   UNL     1       1.514   7.454  20.626  0.00  0.00    +0.000 A 
ATOM      4  C   UNL     1       2.441   6.666  19.945  0.00  0.00    +0.000 A 
ATOM      5  C   UNL     1       2.735   6.940  18.607  0.00  0.00    +0.000 A 
ATOM      6  N   UNL     1       2.140   7.992  18.003  0.00  0.00    +0.000 NA
ATOM      7  N   UNL     1       1.151   8.703  18.634  0.00  0.00    +0.000 NA
ATOM      8  H   UNL     1      -0.782   9.587  19.832  0.00  0.00    +0.000 HD
ENDROOT
BRANCH   5   9
ATOM      9  C   UNL     1       3.681   6.135  17.791  0.00  0.00    +0.000 A 
ATOM     10  C   UNL     1       4.570   6.866  16.949  0.00  0.00    +0.000 A 
ATOM     11  C   UNL     1       5.478   6.254  16.089  0.00  0.00    +0.000 A 
ATOM     12  C   UNL     1       5.523   4.877  16.036  0.00  0.00    +0.000 A 
ATOM     13  C   UNL     1       4.677   4.131  16.855  0.00  0.00    +0.000 A 
ATOM     14  F   UNL     1       4.839   2.796  16.793  0.00  0.00    +0.000 F 
ATOM     15  C   UNL     1       3.729   4.702  17.756  0.00  0.00    +0.000 A 
BRANCH  15  16
ATOM     16  N   UNL     1       2.967   3.846  18.552  0.00  0.00    +0.000 N 
ATOM     17  C   UNL     1       1.593   3.434  18.266  0.00  0.00    +0.000 C 
ATOM     18  C   UNL     1       0.712   3.642  19.496  0.00  0.00    +0.000 C 
ATOM     19  C   UNL     1       1.307   3.008  20.750  0.00  0.00    +0.000 C 
ATOM     20  C   UNL     1       2.773   3.402  20.940  0.00  0.00    +0.000 C 
ATOM     21  C   UNL     1       3.585   3.120  19.674  0.00  0.00    +0.000 C 
ENDBRANCH  15  16
ENDBRANCH   5   9
BRANCH   1  22
ATOM     22  S   UNL     1       0.623  10.701  21.172  0.00  0.00    +0.000 S 
ATOM     23  O   UNL     1       1.271  11.454  20.123  0.00  0.00    +0.000 OA
ATOM     24  O   UNL     1       1.364  10.263  22.336  0.00  0.00    +0.000 OA
BRANCH  22  29
ATOM     25  C   UNL     1      -4.077  13.974  23.218  0.00  0.00    +0.000 C 
ATOM     26  C   UNL     1      -2.922  13.156  22.718  0.00  0.00    +0.000 A 
ATOM     27  C   UNL     1      -2.474  12.032  23.427  0.00  0.00    +0.000 A 
ATOM     28  C   UNL     1      -1.401  11.275  22.952  0.00  0.00    +0.000 A 
ATOM     29  C   UNL     1      -0.765  11.650  21.765  0.00  0.00    +0.000 A 
ATOM     30  C   UNL     1      -1.183  12.785  21.064  0.00  0.00    +0.000 A 
ATOM     31  C   UNL     1      -2.260  13.531  21.538  0.00  0.00    +0.000 A 
ENDBRANCH  22  29
ENDBRANCH   1  22
TORSDOF 4
ENDMDL
MODEL 4
REMARK VINA RESULT:      -8.8      1.889      3.578
REMARK  Name = 
REMARK  5 active torsions:
REMARK  status: ('A' for Active; 'I' for Inactive)
REMARK    1  A    between atoms: C_1  and  C_2
REMARK    2  A    between atoms: C_5  and  S_6
REMARK    3  A    between atoms: S_6  and  N_9
REMARK    4  A    between atoms: C_13  and  C_14
REMARK    5  A    between atoms: C_20  and  N_21
REMARK                            x       y       z     vdW  Elec       q    Type
REMARK                         _______ _______ _______ _____ _____    ______ ____
ROOT
ATOM      1  N   UNL     1       1.125  10.714  19.599  0.00  0.00    +0.000 N 
ATOM      2  C   UNL     1       1.480   9.350  19.566  0.00  0.00    +0.000 A 
ATOM      3  C   UNL     1       2.006   8.745  18.449  0.00  0.00    +0.000 A 
ATOM      4  C   UNL     1       2.292   7.382  18.523  0.00  0.00    +0.000 A 
ATOM      5  C   UNL     1       1.974   6.668  19.681  0.00  0.00    +0.000 A 
ATOM      6  N   UNL     1       1.357   7.307  20.700  0.00  0.00    +0.000 NA
ATOM      7  N   UNL     1       1.169   8.665  20.674  0.00  0.00    +0.000 NA
ATOM      8  H   UNL     1       1.251  11.099  20.532  0.00  0.00    +0.000 HD
ENDROOT
BRANCH   5   9
ATOM      9  C   UNL     1       2.272   5.225  19.865  0.00  0.00    +0.000 A 
ATOM     10  C   UNL     1       1.336   4.480  20.643  0.00  0.00    +0.000 A 
ATOM     11  C   UNL     1       1.504   3.131  20.947  0.00  0.00    +0.000 A 
ATOM     12  C   UNL     1       2.626   2.477  20.485  0.00  0.00    +0.000 A 
ATOM     13  C   UNL     1       3.555   3.172  19.710  0.00  0.00    +0.000 A 
ATOM     14  F   UNL     1       4.581   2.438  19.240  0.00  0.00    +0.000 F 
ATOM     15  C   UNL     1       3.436   4.552  19.366  0.00  0.00    +0.000 A 
BRANCH  15  16
ATOM     16  N   UNL     1       4.414   5.121  18.550  0.00  0.00    +0.000 N 
ATOM     17  C   UNL     1       4.300   5.294  17.101  0.00  0.00    +0.000 C 
ATOM     18  C   UNL     1       5.544   4.746  16.405  0.00  0.00    +0.000 C 
ATOM     19  C   UNL     1       6.835   5.297  17.002  0.00  0.00    +0.000 C 
ATOM     20  C   UNL     1       6.850   5.172  18.527  0.00  0.00    +0.000 C 
ATOM     21  C   UNL     1       5.588   5.785  19.139  0.00  0.00    +0.000 C 
ENDBRANCH  15  16
ENDBRANCH   5   9
BRANCH   1  22
ATOM     22  S   UNL     1      -0.455  11.020  19.085  0.00  0.00    +0.000 S 
ATOM     23  O   UNL     1      -1.069   9.774  18.688  0.00  0.00    +0.000 OA
ATOM     24  O   UNL     1      -0.371  12.131  18.161  0.00  0.00    +0.000 OA
BRANCH  22  29
ATOM     25  C   UNL     1      -3.333  13.008  24.059  0.00  0.00    +0.000 C 
ATOM     26  C   UNL     1      -2.626  12.527  22.826  0.00  0.00    +0.000 A 
ATOM     27  C   UNL     1      -3.070  12.900  21.549  0.00  0.00    +0.000 A 
ATOM     28  C   UNL     1      -2.403  12.451  20.406  0.00  0.00    +0.000 A 
ATOM     29  C   UNL     1      -1.291  11.616  20.542  0.00  0.00    +0.000 A 
ATOM     30  C   UNL     1      -0.855  11.214  21.809  0.00  0.00    +0.000 A 
ATOM     31  C   UNL     1      -1.519  11.672  22.944  0.00  0.00    +0.000 A 
ENDBRANCH  22  29
ENDBRANCH   1  22
TORSDOF 4
ENDMDL
MODEL 5
REMARK VINA RESULT:      -8.7      1.299      1.956
REMARK  Name = 
REMARK  5 active torsions:
REMARK  status: ('A' for Active; 'I' for Inactive)
REMARK    1  A    between atoms: C_1  and  C_2
REMARK    2  A    between atoms: C_5  and  S_6
REMARK    3  A    between atoms: S_6  and  N_9
REMARK    4  A    between atoms: C_13  and  C_14
REMARK    5  A    between atoms: C_20  and  N_21
REMARK                            x       y       z     vdW  Elec       q    Type
REMARK                         _______ _______ _______ _____ _____    ______ ____
ROOT
ATOM      1  N   UNL     1      -0.215   8.921  21.341  0.00  0.00    +0.000 N 
ATOM      2  C   UNL     1       0.707   8.150  20.605  0.00  0.00    +0.000 A 
ATOM      3  C   UNL     1       1.326   7.036  21.123  0.00  0.00    +0.000 A 
ATOM      4  C   UNL     1       2.242   6.367  20.313  0.00  0.00    +0.000 A 
ATOM      5  C   UNL     1       2.555   6.878  19.051  0.00  0.00    +0.000 A 
ATOM      6  N   UNL     1       1.989   8.038  18.650  0.00  0.00    +0.000 NA
ATOM      7  N   UNL     1       1.010   8.642  19.397  0.00  0.00    +0.000 NA
ATOM      8  H   UNL     1      -0.915   9.333  20.728  0.00  0.00    +0.000 HD
ENDROOT
BRANCH   5   9
ATOM      9  C   UNL     1       3.491   6.217  18.105  0.00  0.00    +0.000 A 
ATOM     10  C   UNL     1       4.306   7.081  17.314  0.00  0.00    +0.000 A 
ATOM     11  C   UNL     1       5.194   6.615  16.348  0.00  0.00    +0.000 A 
ATOM     12  C   UNL     1       5.292   5.256  16.132  0.00  0.00    +0.000 A 
ATOM     13  C   UNL     1       4.520   4.382  16.896  0.00  0.00    +0.000 A 
ATOM     14  F   UNL     1       4.733   3.072  16.672  0.00  0.00    +0.000 F 
ATOM     15  C   UNL     1       3.596   4.802  17.900  0.00  0.00    +0.000 A 
BRANCH  15  16
ATOM     16  N   UNL     1       2.912   3.825  18.625  0.00  0.00    +0.000 N 
ATOM     17  C   UNL     1       1.553   3.364  18.337  0.00  0.00    +0.000 C 
ATOM     18  C   UNL     1       0.705   3.393  19.607  0.00  0.00    +0.000 C 
ATOM     19  C   UNL     1       1.378   2.671  20.771  0.00  0.00    +0.000 C 
ATOM     20  C   UNL     1       2.825   3.130  20.959  0.00  0.00    +0.000 C 
ATOM     21  C   UNL     1       3.607   3.026  19.647  0.00  0.00    +0.000 C 
ENDBRANCH  15  16
ENDBRANCH   5   9
BRANCH   1  22
ATOM     22  S   UNL     1       0.502  10.145  22.260  0.00  0.00    +0.000 S 
ATOM     23  O   UNL     1       1.918   9.881  22.371  0.00  0.00    +0.000 OA
ATOM     24  O   UNL     1      -0.318  10.295  23.444  0.00  0.00    +0.000 OA
BRANCH  22  29
ATOM     25  C   UNL     1      -0.222  15.209  18.971  0.00  0.00    +0.000 C 
ATOM     26  C   UNL     1      -0.055  13.956  19.781  0.00  0.00    +0.000 A 
ATOM     27  C   UNL     1      -1.095  13.480  20.593  0.00  0.00    +0.000 A 
ATOM     28  C   UNL     1      -0.932  12.312  21.341  0.00  0.00    +0.000 A 
ATOM     29  C   UNL     1       0.282  11.621  21.284  0.00  0.00    +0.000 A 
ATOM     30  C   UNL     1       1.337  12.102  20.501  0.00  0.00    +0.000 A 
ATOM     31  C   UNL     1       1.164  13.263  19.751  0.00  0.00    +0.000 A 
ENDBRANCH  22  29
ENDBRANCH   1  22
TORSDOF 4
ENDMDL
MODEL 6
REMARK VINA RESULT:      -8.6      1.585      2.157
REMARK  Name = 
REMARK  5 active torsions:
REMARK  status: ('A' for Active; 'I' for Inactive)
REMARK    1  A    between atoms: C_1  and  C_2
REMARK    2  A    between atoms: C_5  and  S_6
REMARK    3  A    between atoms: S_6  and  N_9
REMARK    4  A    between atoms: C_13  and  C_14
REMARK    5  A    between atoms: C_20  and  N_21
REMARK                            x       y       z     vdW  Elec       q    Type
REMARK                         _______ _______ _______ _____ _____    ______ ____
ROOT
ATOM      1  N   UNL     1      -0.026  10.596  19.518  0.00  0.00    +0.000 N 
ATOM      2  C   UNL     1       0.837   9.527  19.197  0.00  0.00    +0.000 A 
ATOM      3  C   UNL     1       1.314   8.649  20.142  0.00  0.00    +0.000 A 
ATOM      4  C   UNL     1       2.185   7.647  19.714  0.00  0.00    +0.000 A 
ATOM      5  C   UNL     1       2.598   7.610  18.380  0.00  0.00    +0.000 A 
ATOM      6  N   UNL     1       2.174   8.572  17.531  0.00  0.00    +0.000 NA
ATOM      7  N   UNL     1       1.237   9.495  17.920  0.00  0.00    +0.000 NA
ATOM      8  H   UNL     1      -0.654  10.799  18.744  0.00  0.00    +0.000 HD
ENDROOT
BRANCH   5   9
ATOM      9  C   UNL     1       3.494   6.562  17.826  0.00  0.00    +0.000 A 
ATOM     10  C   UNL     1       4.492   7.005  16.907  0.00  0.00    +0.000 A 
ATOM     11  C   UNL     1       5.372   6.138  16.264  0.00  0.00    +0.000 A 
ATOM     12  C   UNL     1       5.279   4.785  16.516  0.00  0.00    +0.000 A 
ATOM     13  C   UNL     1       4.323   4.319  17.418  0.00  0.00    +0.000 A 
ATOM     14  F   UNL     1       4.351   2.995  17.659  0.00  0.00    +0.000 F 
ATOM     15  C   UNL     1       3.397   5.160  18.106  0.00  0.00    +0.000 A 
BRANCH  15  16
ATOM     16  N   UNL     1       2.516   4.574  19.016  0.00  0.00    +0.000 N 
ATOM     17  C   UNL     1       2.661   4.619  20.471  0.00  0.00    +0.000 C 
ATOM     18  C   UNL     1       2.529   3.215  21.059  0.00  0.00    +0.000 C 
ATOM     19  C   UNL     1       1.272   2.500  20.577  0.00  0.00    +0.000 C 
ATOM     20  C   UNL     1       1.130   2.571  19.055  0.00  0.00    +0.000 C 
ATOM     21  C   UNL     1       1.232   4.016  18.562  0.00  0.00    +0.000 C 
ENDBRANCH  15  16
ENDBRANCH   5   9
BRANCH   1  22
ATOM     22  S   UNL     1       0.781  12.013  19.960  0.00  0.00    +0.000 S 
ATOM     23  O   UNL     1       1.555  12.484  18.835  0.00  0.00    +0.000 OA
ATOM     24  O   UNL     1       1.415  11.736  21.232  0.00  0.00    +0.000 OA
BRANCH  22  29
ATOM     25  C   UNL     1      -3.646  16.030  21.078  0.00  0.00    +0.000 C 
ATOM     26  C   UNL     1      -2.562  15.030  20.798  0.00  0.00    +0.000 A 
ATOM     27  C   UNL     1      -2.806  13.653  20.905  0.00  0.00    +0.000 A 
ATOM     28  C   UNL     1      -1.792  12.730  20.639  0.00  0.00    +0.000 A 
ATOM     29  C   UNL     1      -0.523  13.189  20.273  0.00  0.00    +0.000 A 
ATOM     30  C   UNL     1      -0.259  14.559  20.191  0.00  0.00    +0.000 A 
ATOM     31  C   UNL     1      -1.277  15.474  20.449  0.00  0.00    +0.000 A 
ENDBRANCH  22  29
ENDBRANCH   1  22
TORSDOF 4
ENDMDL
MODEL 7
REMARK VINA RESULT:      -8.6      2.289      4.005
REMARK  Name = 
REMARK  5 active torsions:
REMARK  status: ('A' for Active; 'I' for Inactive)
REMARK    1  A    between atoms: C_1  and  C_2
REMARK    2  A    between atoms: C_5  and  S_6
REMARK    3  A    between atoms: S_6  and  N_9
REMARK    4  A    between atoms: C_13  and  C_14
REMARK    5  A    between atoms: C_20  and  N_21
REMARK                            x       y       z     vdW  Elec       q    Type
REMARK                         _______ _______ _______ _____ _____    ______ ____
ROOT
ATOM      1  N   UNL     1       1.295  10.365  18.943  0.00  0.00    +0.000 N 
ATOM      2  C   UNL     1       1.650   9.007  19.078  0.00  0.00    +0.000 A 
ATOM      3  C   UNL     1       1.834   8.176  17.998  0.00  0.00    +0.000 A 
ATOM      4  C   UNL     1       2.155   6.843  18.253  0.00  0.00    +0.000 A 
ATOM      5  C   UNL     1       2.208   6.381  19.570  0.00  0.00    +0.000 A 
ATOM      6  N   UNL     1       1.909   7.230  20.578  0.00  0.00    +0.000 NA
ATOM      7  N   UNL     1       1.696   8.564  20.341  0.00  0.00    +0.000 NA
ATOM      8  H   UNL     1       1.684  10.919  19.703  0.00  0.00    +0.000 HD
ENDROOT
BRANCH   5   9
ATOM      9  C   UNL     1       2.576   4.990  19.940  0.00  0.00    +0.000 A 
ATOM     10  C   UNL     1       1.748   4.355  20.914  0.00  0.00    +0.000 A 
ATOM     11  C   UNL     1       1.994   3.074  21.400  0.00  0.00    +0.000 A 
ATOM     12  C   UNL     1       3.089   2.380  20.931  0.00  0.00    +0.000 A 
ATOM     13  C   UNL     1       3.912   2.966  19.969  0.00  0.00    +0.000 A 
ATOM     14  F   UNL     1       4.913   2.190  19.513  0.00  0.00    +0.000 F 
ATOM     15  C   UNL     1       3.709   4.273  19.434  0.00  0.00    +0.000 A 
BRANCH  15  16
ATOM     16  N   UNL     1       4.581   4.729  18.444  0.00  0.00    +0.000 N 
ATOM     17  C   UNL     1       4.355   4.605  17.004  0.00  0.00    +0.000 C 
ATOM     18  C   UNL     1       5.586   4.009  16.325  0.00  0.00    +0.000 C 
ATOM     19  C   UNL     1       6.868   4.747  16.696  0.00  0.00    +0.000 C 
ATOM     20  C   UNL     1       6.998   4.927  18.210  0.00  0.00    +0.000 C 
ATOM     21  C   UNL     1       5.738   5.569  18.795  0.00  0.00    +0.000 C 
ENDBRANCH  15  16
ENDBRANCH   5   9
BRANCH   1  22
ATOM     22  S   UNL     1      -0.372  10.628  18.867  0.00  0.00    +0.000 S 
ATOM     23  O   UNL     1      -1.014   9.883  19.925  0.00  0.00    +0.000 OA
ATOM     24  O   UNL     1      -0.750  10.426  17.484  0.00  0.00    +0.000 OA
BRANCH  22  29
ATOM     25  C   UNL     1      -1.074  16.560  20.010  0.00  0.00    +0.000 C 
ATOM     26  C   UNL     1      -0.889  15.098  19.725  0.00  0.00    +0.000 A 
ATOM     27  C   UNL     1       0.017  14.663  18.746  0.00  0.00    +0.000 A 
ATOM     28  C   UNL     1       0.185  13.300  18.491  0.00  0.00    +0.000 A 
ATOM     29  C   UNL     1      -0.565  12.367  19.211  0.00  0.00    +0.000 A 
ATOM     30  C   UNL     1      -1.493  12.788  20.169  0.00  0.00    +0.000 A 
ATOM     31  C   UNL     1      -1.649  14.149  20.425  0.00  0.00    +0.000 A 
ENDBRANCH  22  29
ENDBRANCH   1  22
TORSDOF 4
ENDMDL
MODEL 8
REMARK VINA RESULT:      -8.5      2.365      4.246
REMARK  Name = 
REMARK  5 active torsions:
REMARK  status: ('A' for Active; 'I' for Inactive)
REMARK    1  A    between atoms: C_1  and  C_2
REMARK    2  A    between atoms: C_5  and  S_6
REMARK    3  A    between atoms: S_6  and  N_9
REMARK    4  A    between atoms: C_13  and  C_14
REMARK    5  A    between atoms: C_20  and  N_21
REMARK                            x       y       z     vdW  Elec       q    Type
REMARK                         _______ _______ _______ _____ _____    ______ ____
ROOT
ATOM      1  N   UNL     1       1.474  10.079  18.821  0.00  0.00    +0.000 N 
ATOM      2  C   UNL     1       1.770   8.714  19.017  0.00  0.00    +0.000 A 
ATOM      3  C   UNL     1       1.855   7.815  17.980  0.00  0.00    +0.000 A 
ATOM      4  C   UNL     1       2.125   6.484  18.296  0.00  0.00    +0.000 A 
ATOM      5  C   UNL     1       2.227   6.095  19.634  0.00  0.00    +0.000 A 
ATOM      6  N   UNL     1       2.024   7.013  20.604  0.00  0.00    +0.000 NA
ATOM      7  N   UNL     1       1.863   8.341  20.300  0.00  0.00    +0.000 NA
ATOM      8  H   UNL     1       1.930  10.654  19.526  0.00  0.00    +0.000 HD
ENDROOT
BRANCH   5   9
ATOM      9  C   UNL     1       2.547   4.710  20.066  0.00  0.00    +0.000 A 
ATOM     10  C   UNL     1       1.649   4.117  21.003  0.00  0.00    +0.000 A 
ATOM     11  C   UNL     1       1.842   2.846  21.540  0.00  0.00    +0.000 A 
ATOM     12  C   UNL     1       2.952   2.123  21.161  0.00  0.00    +0.000 A 
ATOM     13  C   UNL     1       3.844   2.667  20.237  0.00  0.00    +0.000 A 
ATOM     14  F   UNL     1       4.859   1.863  19.868  0.00  0.00    +0.000 F 
ATOM     15  C   UNL     1       3.697   3.961  19.653  0.00  0.00    +0.000 A 
BRANCH  15  16
ATOM     16  N   UNL     1       4.638   4.374  18.708  0.00  0.00    +0.000 N 
ATOM     17  C   UNL     1       5.770   5.259  18.983  0.00  0.00    +0.000 C 
ATOM     18  C   UNL     1       5.813   6.395  17.963  0.00  0.00    +0.000 C 
ATOM     19  C   UNL     1       5.748   5.889  16.526  0.00  0.00    +0.000 C 
ATOM     20  C   UNL     1       4.601   4.896  16.328  0.00  0.00    +0.000 C 
ATOM     21  C   UNL     1       4.665   3.772  17.365  0.00  0.00    +0.000 C 
ENDBRANCH  15  16
ENDBRANCH   5   9
BRANCH   1  22
ATOM     22  S   UNL     1      -0.180  10.422  18.815  0.00  0.00    +0.000 S 
ATOM     23  O   UNL     1      -0.797   9.785  19.956  0.00  0.00    +0.000 OA
ATOM     24  O   UNL     1      -0.646  10.145  17.472  0.00  0.00    +0.000 OA
BRANCH  22  29
ATOM     25  C   UNL     1      -0.453  16.441  19.636  0.00  0.00    +0.000 C 
ATOM     26  C   UNL     1      -0.398  14.955  19.433  0.00  0.00    +0.000 A 
ATOM     27  C   UNL     1      -1.383  14.117  19.976  0.00  0.00    +0.000 A 
ATOM     28  C   UNL     1      -1.325  12.735  19.780  0.00  0.00    +0.000 A 
ATOM     29  C   UNL     1      -0.270  12.188  19.044  0.00  0.00    +0.000 A 
ATOM     30  C   UNL     1       0.734  13.010  18.522  0.00  0.00    +0.000 A 
ATOM     31  C   UNL     1       0.665  14.388  18.714  0.00  0.00    +0.000 A 
ENDBRANCH  22  29
ENDBRANCH   1  22
TORSDOF 4
ENDMDL
MODEL 9
REMARK VINA RESULT:      -8.5      1.948      3.696
REMARK  Name = 
REMARK  5 active torsions:
REMARK  status: ('A' for Active; 'I' for Inactive)
REMARK    1  A    between atoms: C_1  and  C_2
REMARK    2  A    between atoms: C_5  and  S_6
REMARK    3  A    between atoms: S_6  and  N_9
REMARK    4  A    between atoms: C_13  and  C_14
REMARK    5  A    between atoms: C_20  and  N_21
REMARK                            x       y       z     vdW  Elec       q    Type
REMARK                         _______ _______ _______ _____ _____    ______ ____
ROOT
ATOM      1  N   UNL     1       1.199  10.722  19.061  0.00  0.00    +0.000 N 
ATOM      2  C   UNL     1       1.532   9.354  19.145  0.00  0.00    +0.000 A 
ATOM      3  C   UNL     1       1.806   8.586  18.037  0.00  0.00    +0.000 A 
ATOM      4  C   UNL     1       2.095   7.237  18.239  0.00  0.00    +0.000 A 
ATOM      5  C   UNL     1       2.027   6.697  19.526  0.00  0.00    +0.000 A 
ATOM      6  N   UNL     1       1.644   7.488  20.552  0.00  0.00    +0.000 NA
ATOM      7  N   UNL     1       1.461   8.836  20.378  0.00  0.00    +0.000 NA
ATOM      8  H   UNL     1       1.521  11.225  19.885  0.00  0.00    +0.000 HD
ENDROOT
BRANCH   5   9
ATOM      9  C   UNL     1       2.351   5.282  19.842  0.00  0.00    +0.000 A 
ATOM     10  C   UNL     1       1.432   4.598  20.693  0.00  0.00    +0.000 A 
ATOM     11  C   UNL     1       1.624   3.287  21.121  0.00  0.00    +0.000 A 
ATOM     12  C   UNL     1       2.755   2.611  20.714  0.00  0.00    +0.000 A 
ATOM     13  C   UNL     1       3.667   3.245  19.871  0.00  0.00    +0.000 A 
ATOM     14  F   UNL     1       4.703   2.488  19.464  0.00  0.00    +0.000 F 
ATOM     15  C   UNL     1       3.523   4.585  19.400  0.00  0.00    +0.000 A 
BRANCH  15  16
ATOM     16  N   UNL     1       4.486   5.091  18.526  0.00  0.00    +0.000 N 
ATOM     17  C   UNL     1       4.378   5.089  17.067  0.00  0.00    +0.000 C 
ATOM     18  C   UNL     1       5.646   4.510  16.444  0.00  0.00    +0.000 C 
ATOM     19  C   UNL     1       6.911   5.175  16.978  0.00  0.00    +0.000 C 
ATOM     20  C   UNL     1       6.918   5.229  18.506  0.00  0.00    +0.000 C 
ATOM     21  C   UNL     1       5.630   5.862  19.038  0.00  0.00    +0.000 C 
ENDBRANCH  15  16
ENDBRANCH   5   9
BRANCH   1  22
ATOM     22  S   UNL     1      -0.453  11.009  18.853  0.00  0.00    +0.000 S 
ATOM     23  O   UNL     1      -1.146   9.742  18.790  0.00  0.00    +0.000 OA
ATOM     24  O   UNL     1      -0.564  11.967  17.773  0.00  0.00    +0.000 OA
BRANCH  22  29
ATOM     25  C   UNL     1      -2.115  13.897  23.940  0.00  0.00    +0.000 C 
ATOM     26  C   UNL     1      -1.705  13.173  22.690  0.00  0.00    +0.000 A 
ATOM     27  C   UNL     1      -0.966  11.983  22.756  0.00  0.00    +0.000 A 
ATOM     28  C   UNL     1      -0.592  11.315  21.588  0.00  0.00    +0.000 A 
ATOM     29  C   UNL     1      -0.952  11.846  20.346  0.00  0.00    +0.000 A 
ATOM     30  C   UNL     1      -1.664  13.046  20.266  0.00  0.00    +0.000 A 
ATOM     31  C   UNL     1      -2.042  13.703  21.435  0.00  0.00    +0.000 A 
ENDBRANCH  22  29
ENDBRANCH   1  22
TORSDOF 4
ENDMDL
