MODEL 1
REMARK VINA RESULT:      -7.8      0.000      0.000
REMARK  Name = 
REMARK  8 active torsions:
REMARK  status: ('A' for Active; 'I' for Inactive)
REMARK    1  A    between atoms: C_1  and  O_2
REMARK    2  A    between atoms: O_2  and  C_3
REMARK    3  A    between atoms: C_8  and  C_9
REMARK    4  A    between atoms: N_11  and  C_12
REMARK    5  A    between atoms: C_16  and  N_17
REMARK    6  A    between atoms: C_18  and  C_20
REMARK    7  A    between atoms: C_20  and  C_21
REMARK    8  A    between atoms: C_20  and  C_22
REMARK                            x       y       z     vdW  Elec       q    Type
REMARK                         _______ _______ _______ _____ _____    ______ ____
ROOT
ATOM      1  C   UNL     1       2.050   6.022  20.419  0.00  0.00    +0.000 A 
ATOM      2  C   UNL     1       1.439   4.767  20.504  0.00  0.00    +0.000 A 
ATOM      3  C   UNL     1       1.983   3.658  19.869  0.00  0.00    +0.000 A 
ATOM      4  C   UNL     1       3.153   3.785  19.133  0.00  0.00    +0.000 A 
ATOM      5  C   UNL     1       3.801   5.018  19.023  0.00  0.00    +0.000 A 
ATOM      6  C   UNL     1       3.258   6.133  19.701  0.00  0.00    +0.000 A 
ENDROOT
BRANCH   1   9
ATOM      7  C   UNL     1       1.258   8.390  20.402  0.00  0.00    +0.000 C 
ATOM      8  O   UNL     1       1.623   8.652  19.257  0.00  0.00    +0.000 OA
ATOM      9  N   UNL     1       1.484   7.172  21.036  0.00  0.00    +0.000 N 
ATOM     10  H   UNL     1       1.290   7.136  22.032  0.00  0.00    +0.000 HD
BRANCH   7  16
ATOM     11  C   UNL     1       0.519  10.843  20.786  0.00  0.00    +0.000 A 
ATOM     12  C   UNL     1      -0.205  11.745  21.588  0.00  0.00    +0.000 A 
ATOM     13  C   UNL     1      -0.833  11.330  22.765  0.00  0.00    +0.000 A 
ATOM     14  C   UNL     1      -0.764  10.001  23.151  0.00  0.00    +0.000 A 
ATOM     15  C   UNL     1      -0.087   9.090  22.343  0.00  0.00    +0.000 A 
ATOM     16  C   UNL     1       0.556   9.487  21.148  0.00  0.00    +0.000 A 
BRANCH  11  18
ATOM     17  C   UNL     1       1.701  12.569  19.696  0.00  0.00    +0.000 C 
ATOM     18  O   UNL     1       1.164  11.245  19.641  0.00  0.00    +0.000 OA
ENDBRANCH  11  18
ENDBRANCH   7  16
ENDBRANCH   1   9
BRANCH   5  19
ATOM     19  N   UNL     1       4.978   5.180  18.241  0.00  0.00    +0.000 N 
ATOM     20  C   UNL     1       6.275   5.250  18.745  0.00  0.00    +0.000 C 
ATOM     21  O   UNL     1       6.586   5.147  19.928  0.00  0.00    +0.000 OA
ATOM     22  H   UNL     1       4.868   5.130  17.237  0.00  0.00    +0.000 HD
BRANCH  20  23
ATOM     23  C   UNL     1       7.364   5.418  17.678  0.00  0.00    +0.000 C 
ATOM     24  C   UNL     1       7.058   4.605  16.425  0.00  0.00    +0.000 C 
ATOM     25  C   UNL     1       7.502   6.901  17.307  0.00  0.00    +0.000 C 
ENDBRANCH  20  23
ENDBRANCH   5  19
TORSDOF 5
ENDMDL
MODEL 2
REMARK VINA RESULT:      -7.7      3.343      5.367
REMARK  Name = 
REMARK  8 active torsions:
REMARK  status: ('A' for Active; 'I' for Inactive)
REMARK    1  A    between atoms: C_1  and  O_2
REMARK    2  A    between atoms: O_2  and  C_3
REMARK    3  A    between atoms: C_8  and  C_9
REMARK    4  A    between atoms: N_11  and  C_12
REMARK    5  A    between atoms: C_16  and  N_17
REMARK    6  A    between atoms: C_18  and  C_20
REMARK    7  A    between atoms: C_20  and  C_21
REMARK    8  A    between atoms: C_20  and  C_22
REMARK                            x       y       z     vdW  Elec       q    Type
REMARK                         _______ _______ _______ _____ _____    ______ ____
ROOT
ATOM      1  C   UNL     1       5.412   5.964  16.857  0.00  0.00    +0.000 A 
ATOM      2  C   UNL     1       6.611   5.615  17.486  0.00  0.00    +0.000 A 
ATOM      3  C   UNL     1       7.481   4.695  16.915  0.00  0.00    +0.000 A 
ATOM      4  C   UNL     1       7.165   4.104  15.700  0.00  0.00    +0.000 A 
ATOM      5  C   UNL     1       5.980   4.423  15.033  0.00  0.00    +0.000 A 
ATOM      6  C   UNL     1       5.118   5.386  15.604  0.00  0.00    +0.000 A 
ENDROOT
BRANCH   1   9
ATOM      7  C   UNL     1       3.215   6.558  17.885  0.00  0.00    +0.000 C 
ATOM      8  O   UNL     1       2.679   5.465  17.712  0.00  0.00    +0.000 OA
ATOM      9  N   UNL     1       4.496   6.878  17.447  0.00  0.00    +0.000 N 
ATOM     10  H   UNL     1       4.760   7.858  17.496  0.00  0.00    +0.000 HD
BRANCH   7  16
ATOM     11  C   UNL     1       1.979   7.566  19.926  0.00  0.00    +0.000 A 
ATOM     12  C   UNL     1       1.228   8.641  20.437  0.00  0.00    +0.000 A 
ATOM     13  C   UNL     1       0.837   9.708  19.623  0.00  0.00    +0.000 A 
ATOM     14  C   UNL     1       1.208   9.728  18.288  0.00  0.00    +0.000 A 
ATOM     15  C   UNL     1       1.988   8.690  17.781  0.00  0.00    +0.000 A 
ATOM     16  C   UNL     1       2.395   7.601  18.585  0.00  0.00    +0.000 A 
BRANCH  11  18
ATOM     17  C   UNL     1       1.386   5.440  20.757  0.00  0.00    +0.000 C 
ATOM     18  O   UNL     1       2.345   6.498  20.710  0.00  0.00    +0.000 OA
ENDBRANCH  11  18
ENDBRANCH   7  16
ENDBRANCH   1   9
BRANCH   5  19
ATOM     19  N   UNL     1       5.617   3.800  13.807  0.00  0.00    +0.000 N 
ATOM     20  C   UNL     1       6.336   3.885  12.617  0.00  0.00    +0.000 C 
ATOM     21  O   UNL     1       7.399   4.481  12.468  0.00  0.00    +0.000 OA
ATOM     22  H   UNL     1       4.837   3.158  13.837  0.00  0.00    +0.000 HD
BRANCH  20  23
ATOM     23  C   UNL     1       5.723   3.106  11.446  0.00  0.00    +0.000 C 
ATOM     24  C   UNL     1       6.082   1.626  11.503  0.00  0.00    +0.000 C 
ATOM     25  C   UNL     1       4.197   3.266  11.460  0.00  0.00    +0.000 C 
ENDBRANCH  20  23
ENDBRANCH   5  19
TORSDOF 5
ENDMDL
MODEL 3
REMARK VINA RESULT:      -7.6      3.360      8.614
REMARK  Name = 
REMARK  8 active torsions:
REMARK  status: ('A' for Active; 'I' for Inactive)
REMARK    1  A    between atoms: C_1  and  O_2
REMARK    2  A    between atoms: O_2  and  C_3
REMARK    3  A    between atoms: C_8  and  C_9
REMARK    4  A    between atoms: N_11  and  C_12
REMARK    5  A    between atoms: C_16  and  N_17
REMARK    6  A    between atoms: C_18  and  C_20
REMARK    7  A    between atoms: C_20  and  C_21
REMARK    8  A    between atoms: C_20  and  C_22
REMARK                            x       y       z     vdW  Elec       q    Type
REMARK                         _______ _______ _______ _____ _____    ______ ____
ROOT
ATOM      1  C   UNL     1       1.544   9.830  18.066  0.00  0.00    +0.000 A 
ATOM      2  C   UNL     1       2.311  10.992  18.200  0.00  0.00    +0.000 A 
ATOM      3  C   UNL     1       1.725  12.208  18.529  0.00  0.00    +0.000 A 
ATOM      4  C   UNL     1       0.353  12.283  18.729  0.00  0.00    +0.000 A 
ATOM      5  C   UNL     1      -0.454  11.149  18.610  0.00  0.00    +0.000 A 
ATOM      6  C   UNL     1       0.157   9.910  18.309  0.00  0.00    +0.000 A 
ENDROOT
BRANCH   1   9
ATOM      7  C   UNL     1       2.379   7.531  18.566  0.00  0.00    +0.000 C 
ATOM      8  O   UNL     1       2.227   7.588  19.785  0.00  0.00    +0.000 OA
ATOM      9  N   UNL     1       2.128   8.588  17.696  0.00  0.00    +0.000 N 
ATOM     10  H   UNL     1       2.454   8.476  16.741  0.00  0.00    +0.000 HD
BRANCH   7  16
ATOM     11  C   UNL     1       4.155   6.040  17.410  0.00  0.00    +0.000 A 
ATOM     12  C   UNL     1       4.504   4.751  16.966  0.00  0.00    +0.000 A 
ATOM     13  C   UNL     1       3.610   3.682  17.061  0.00  0.00    +0.000 A 
ATOM     14  C   UNL     1       2.358   3.878  17.621  0.00  0.00    +0.000 A 
ATOM     15  C   UNL     1       2.016   5.140  18.104  0.00  0.00    +0.000 A 
ATOM     16  C   UNL     1       2.905   6.236  18.018  0.00  0.00    +0.000 A 
BRANCH  11  18
ATOM     17  C   UNL     1       6.393   6.746  17.180  0.00  0.00    +0.000 C 
ATOM     18  O   UNL     1       5.015   7.106  17.296  0.00  0.00    +0.000 OA
ENDBRANCH  11  18
ENDBRANCH   7  16
ENDBRANCH   1   9
BRANCH   5  19
ATOM     19  N   UNL     1      -1.865  11.211  18.771  0.00  0.00    +0.000 N 
ATOM     20  C   UNL     1      -2.789  11.327  17.735  0.00  0.00    +0.000 C 
ATOM     21  O   UNL     1      -2.517  11.358  16.538  0.00  0.00    +0.000 OA
ATOM     22  H   UNL     1      -2.224  11.047  19.702  0.00  0.00    +0.000 HD
BRANCH  20  23
ATOM     23  C   UNL     1      -4.253  11.363  18.189  0.00  0.00    +0.000 C 
ATOM     24  C   UNL     1      -4.454  12.297  19.377  0.00  0.00    +0.000 C 
ATOM     25  C   UNL     1      -5.146  11.812  17.025  0.00  0.00    +0.000 C 
ENDBRANCH  20  23
ENDBRANCH   5  19
TORSDOF 5
ENDMDL
MODEL 4
REMARK VINA RESULT:      -7.5      1.501      2.361
REMARK  Name = 
REMARK  8 active torsions:
REMARK  status: ('A' for Active; 'I' for Inactive)
REMARK    1  A    between atoms: C_1  and  O_2
REMARK    2  A    between atoms: O_2  and  C_3
REMARK    3  A    between atoms: C_8  and  C_9
REMARK    4  A    between atoms: N_11  and  C_12
REMARK    5  A    between atoms: C_16  and  N_17
REMARK    6  A    between atoms: C_18  and  C_20
REMARK    7  A    between atoms: C_20  and  C_21
REMARK    8  A    between atoms: C_20  and  C_22
REMARK                            x       y       z     vdW  Elec       q    Type
REMARK                         _______ _______ _______ _____ _____    ______ ____
ROOT
ATOM      1  C   UNL     1       2.289   6.203  20.157  0.00  0.00    +0.000 A 
ATOM      2  C   UNL     1       1.526   5.125  20.618  0.00  0.00    +0.000 A 
ATOM      3  C   UNL     1       1.937   3.813  20.415  0.00  0.00    +0.000 A 
ATOM      4  C   UNL     1       3.124   3.556  19.743  0.00  0.00    +0.000 A 
ATOM      5  C   UNL     1       3.921   4.600  19.267  0.00  0.00    +0.000 A 
ATOM      6  C   UNL     1       3.512   5.931  19.509  0.00  0.00    +0.000 A 
ENDROOT
BRANCH   1   9
ATOM      7  C   UNL     1       1.591   8.439  19.295  0.00  0.00    +0.000 C 
ATOM      8  O   UNL     1       1.795   8.202  18.106  0.00  0.00    +0.000 OA
ATOM      9  N   UNL     1       1.862   7.548  20.328  0.00  0.00    +0.000 N 
ATOM     10  H   UNL     1       1.813   7.920  21.272  0.00  0.00    +0.000 HD
BRANCH   7  16
ATOM     11  C   UNL     1       0.185  10.114  20.684  0.00  0.00    +0.000 A 
ATOM     12  C   UNL     1      -0.219  11.450  20.864  0.00  0.00    +0.000 A 
ATOM     13  C   UNL     1       0.168  12.454  19.973  0.00  0.00    +0.000 A 
ATOM     14  C   UNL     1       0.984  12.143  18.897  0.00  0.00    +0.000 A 
ATOM     15  C   UNL     1       1.426  10.831  18.732  0.00  0.00    +0.000 A 
ATOM     16  C   UNL     1       1.046   9.800  19.621  0.00  0.00    +0.000 A 
BRANCH  11  18
ATOM     17  C   UNL     1      -0.060   9.422  22.925  0.00  0.00    +0.000 C 
ATOM     18  O   UNL     1      -0.213   9.113  21.538  0.00  0.00    +0.000 OA
ENDBRANCH  11  18
ENDBRANCH   7  16
ENDBRANCH   1   9
BRANCH   5  19
ATOM     19  N   UNL     1       5.119   4.359  18.540  0.00  0.00    +0.000 N 
ATOM     20  C   UNL     1       5.279   4.541  17.169  0.00  0.00    +0.000 C 
ATOM     21  O   UNL     1       4.419   4.966  16.401  0.00  0.00    +0.000 OA
ATOM     22  H   UNL     1       5.945   4.145  19.083  0.00  0.00    +0.000 HD
BRANCH  20  23
ATOM     23  C   UNL     1       6.682   4.214  16.642  0.00  0.00    +0.000 C 
ATOM     24  C   UNL     1       6.961   4.905  15.312  0.00  0.00    +0.000 C 
ATOM     25  C   UNL     1       7.735   4.640  17.674  0.00  0.00    +0.000 C 
ENDBRANCH  20  23
ENDBRANCH   5  19
TORSDOF 5
ENDMDL
MODEL 5
REMARK VINA RESULT:      -7.5      1.255      1.321
REMARK  Name = 
REMARK  8 active torsions:
REMARK  status: ('A' for Active; 'I' for Inactive)
REMARK    1  A    between atoms: C_1  and  O_2
REMARK    2  A    between atoms: O_2  and  C_3
REMARK    3  A    between atoms: C_8  and  C_9
REMARK    4  A    between atoms: N_11  and  C_12
REMARK    5  A    between atoms: C_16  and  N_17
REMARK    6  A    between atoms: C_18  and  C_20
REMARK    7  A    between atoms: C_20  and  C_21
REMARK    8  A    between atoms: C_20  and  C_22
REMARK                            x       y       z     vdW  Elec       q    Type
REMARK                         _______ _______ _______ _____ _____    ______ ____
ROOT
ATOM      1  C   UNL     1       2.018   5.245  20.527  0.00  0.00    +0.000 A 
ATOM      2  C   UNL     1       1.265   4.070  20.612  0.00  0.00    +0.000 A 
ATOM      3  C   UNL     1       1.744   2.869  20.104  0.00  0.00    +0.000 A 
ATOM      4  C   UNL     1       2.992   2.822  19.498  0.00  0.00    +0.000 A 
ATOM      5  C   UNL     1       3.783   3.969  19.392  0.00  0.00    +0.000 A 
ATOM      6  C   UNL     1       3.301   5.179  19.943  0.00  0.00    +0.000 A 
ENDROOT
BRANCH   1   9
ATOM      7  C   UNL     1       1.588   7.696  20.327  0.00  0.00    +0.000 C 
ATOM      8  O   UNL     1       2.180   7.856  19.261  0.00  0.00    +0.000 OA
ATOM      9  N   UNL     1       1.524   6.487  21.012  0.00  0.00    +0.000 N 
ATOM     10  H   UNL     1       1.157   6.520  21.959  0.00  0.00    +0.000 HD
BRANCH   7  16
ATOM     11  C   UNL     1       0.755  10.148  20.279  0.00  0.00    +0.000 A 
ATOM     12  C   UNL     1       0.096  11.184  20.968  0.00  0.00    +0.000 A 
ATOM     13  C   UNL     1      -0.327  11.025  22.290  0.00  0.00    +0.000 A 
ATOM     14  C   UNL     1      -0.117   9.819  22.940  0.00  0.00    +0.000 A 
ATOM     15  C   UNL     1       0.495   8.771  22.254  0.00  0.00    +0.000 A 
ATOM     16  C   UNL     1       0.931   8.910  20.917  0.00  0.00    +0.000 A 
BRANCH  11  18
ATOM     17  C   UNL     1       1.628  11.627  18.663  0.00  0.00    +0.000 C 
ATOM     18  O   UNL     1       1.200  10.303  18.988  0.00  0.00    +0.000 OA
ENDBRANCH  11  18
ENDBRANCH   7  16
ENDBRANCH   1   9
BRANCH   5  19
ATOM     19  N   UNL     1       5.045   3.954  18.739  0.00  0.00    +0.000 N 
ATOM     20  C   UNL     1       5.297   4.446  17.461  0.00  0.00    +0.000 C 
ATOM     21  O   UNL     1       4.472   4.991  16.732  0.00  0.00    +0.000 OA
ATOM     22  H   UNL     1       5.840   3.663  19.293  0.00  0.00    +0.000 HD
BRANCH  20  23
ATOM     23  C   UNL     1       6.754   4.311  17.001  0.00  0.00    +0.000 C 
ATOM     24  C   UNL     1       6.933   4.757  15.555  0.00  0.00    +0.000 C 
ATOM     25  C   UNL     1       7.664   5.146  17.913  0.00  0.00    +0.000 C 
ENDBRANCH  20  23
ENDBRANCH   5  19
TORSDOF 5
ENDMDL
MODEL 6
REMARK VINA RESULT:      -7.4      2.676      4.073
REMARK  Name = 
REMARK  8 active torsions:
REMARK  status: ('A' for Active; 'I' for Inactive)
REMARK    1  A    between atoms: C_1  and  O_2
REMARK    2  A    between atoms: O_2  and  C_3
REMARK    3  A    between atoms: C_8  and  C_9
REMARK    4  A    between atoms: N_11  and  C_12
REMARK    5  A    between atoms: C_16  and  N_17
REMARK    6  A    between atoms: C_18  and  C_20
REMARK    7  A    between atoms: C_20  and  C_21
REMARK    8  A    between atoms: C_20  and  C_22
REMARK                            x       y       z     vdW  Elec       q    Type
REMARK                         _______ _______ _______ _____ _____    ______ ____
ROOT
ATOM      1  C   UNL     1       1.709   8.734  19.437  0.00  0.00    +0.000 A 
ATOM      2  C   UNL     1       2.262   8.997  18.180  0.00  0.00    +0.000 A 
ATOM      3  C   UNL     1       2.949   8.015  17.476  0.00  0.00    +0.000 A 
ATOM      4  C   UNL     1       3.096   6.748  18.021  0.00  0.00    +0.000 A 
ATOM      5  C   UNL     1       2.558   6.437  19.272  0.00  0.00    +0.000 A 
ATOM      6  C   UNL     1       1.831   7.432  19.965  0.00  0.00    +0.000 A 
ENDROOT
BRANCH   1   9
ATOM      7  C   UNL     1      -0.217  10.263  19.869  0.00  0.00    +0.000 C 
ATOM      8  O   UNL     1      -0.842   9.995  18.844  0.00  0.00    +0.000 OA
ATOM      9  N   UNL     1       1.034   9.740  20.181  0.00  0.00    +0.000 N 
ATOM     10  H   UNL     1       1.521  10.166  20.964  0.00  0.00    +0.000 HD
BRANCH   7  16
ATOM     11  C   UNL     1      -0.589  11.382  22.176  0.00  0.00    +0.000 A 
ATOM     12  C   UNL     1      -1.264  12.375  22.910  0.00  0.00    +0.000 A 
ATOM     13  C   UNL     1      -2.237  13.184  22.316  0.00  0.00    +0.000 A 
ATOM     14  C   UNL     1      -2.536  13.028  20.973  0.00  0.00    +0.000 A 
ATOM     15  C   UNL     1      -1.844  12.078  20.225  0.00  0.00    +0.000 A 
ATOM     16  C   UNL     1      -0.857  11.248  20.804  0.00  0.00    +0.000 A 
BRANCH  11  18
ATOM     17  C   UNL     1      -0.194   9.426  23.434  0.00  0.00    +0.000 C 
ATOM     18  O   UNL     1       0.349  10.561  22.755  0.00  0.00    +0.000 OA
ENDBRANCH  11  18
ENDBRANCH   7  16
ENDBRANCH   1   9
BRANCH   5  19
ATOM     19  N   UNL     1       2.731   5.157  19.868  0.00  0.00    +0.000 N 
ATOM     20  C   UNL     1       2.028   4.006  19.520  0.00  0.00    +0.000 C 
ATOM     21  O   UNL     1       1.186   3.927  18.630  0.00  0.00    +0.000 OA
ATOM     22  H   UNL     1       3.502   5.057  20.515  0.00  0.00    +0.000 HD
BRANCH  20  23
ATOM     23  C   UNL     1       2.420   2.756  20.317  0.00  0.00    +0.000 C 
ATOM     24  C   UNL     1       3.930   2.540  20.324  0.00  0.00    +0.000 C 
ATOM     25  C   UNL     1       1.912   2.879  21.760  0.00  0.00    +0.000 C 
ENDBRANCH  20  23
ENDBRANCH   5  19
TORSDOF 5
ENDMDL
MODEL 7
REMARK VINA RESULT:      -7.4      3.695      6.858
REMARK  Name = 
REMARK  8 active torsions:
REMARK  status: ('A' for Active; 'I' for Inactive)
REMARK    1  A    between atoms: C_1  and  O_2
REMARK    2  A    between atoms: O_2  and  C_3
REMARK    3  A    between atoms: C_8  and  C_9
REMARK    4  A    between atoms: N_11  and  C_12
REMARK    5  A    between atoms: C_16  and  N_17
REMARK    6  A    between atoms: C_18  and  C_20
REMARK    7  A    between atoms: C_20  and  C_21
REMARK    8  A    between atoms: C_20  and  C_22
REMARK                            x       y       z     vdW  Elec       q    Type
REMARK                         _______ _______ _______ _____ _____    ______ ____
ROOT
ATOM      1  C   UNL     1       5.237   4.682  16.055  0.00  0.00    +0.000 A 
ATOM      2  C   UNL     1       6.105   5.770  16.191  0.00  0.00    +0.000 A 
ATOM      3  C   UNL     1       7.133   5.988  15.283  0.00  0.00    +0.000 A 
ATOM      4  C   UNL     1       7.313   5.116  14.218  0.00  0.00    +0.000 A 
ATOM      5  C   UNL     1       6.469   4.017  14.039  0.00  0.00    +0.000 A 
ATOM      6  C   UNL     1       5.405   3.824  14.949  0.00  0.00    +0.000 A 
ENDROOT
BRANCH   1   9
ATOM      7  C   UNL     1       4.399   3.988  18.303  0.00  0.00    +0.000 C 
ATOM      8  O   UNL     1       5.490   3.659  18.764  0.00  0.00    +0.000 OA
ATOM      9  N   UNL     1       4.202   4.429  16.997  0.00  0.00    +0.000 N 
ATOM     10  H   UNL     1       3.239   4.505  16.685  0.00  0.00    +0.000 HD
BRANCH   7  16
ATOM     11  C   UNL     1       2.598   4.909  19.921  0.00  0.00    +0.000 A 
ATOM     12  C   UNL     1       1.482   4.624  20.729  0.00  0.00    +0.000 A 
ATOM     13  C   UNL     1       1.021   3.315  20.898  0.00  0.00    +0.000 A 
ATOM     14  C   UNL     1       1.656   2.272  20.244  0.00  0.00    +0.000 A 
ATOM     15  C   UNL     1       2.735   2.547  19.407  0.00  0.00    +0.000 A 
ATOM     16  C   UNL     1       3.219   3.862  19.221  0.00  0.00    +0.000 A 
BRANCH  11  18
ATOM     17  C   UNL     1       2.334   6.997  18.856  0.00  0.00    +0.000 C 
ATOM     18  O   UNL     1       3.078   6.189  19.770  0.00  0.00    +0.000 OA
ENDBRANCH  11  18
ENDBRANCH   7  16
ENDBRANCH   1   9
BRANCH   5  19
ATOM     19  N   UNL     1       6.660   3.089  12.979  0.00  0.00    +0.000 N 
ATOM     20  C   UNL     1       5.730   2.803  11.983  0.00  0.00    +0.000 C 
ATOM     21  O   UNL     1       4.629   3.334  11.862  0.00  0.00    +0.000 OA
ATOM     22  H   UNL     1       7.585   2.692  12.883  0.00  0.00    +0.000 HD
BRANCH  20  23
ATOM     23  C   UNL     1       6.197   1.765  10.954  0.00  0.00    +0.000 C 
ATOM     24  C   UNL     1       7.697   1.856  10.702  0.00  0.00    +0.000 C 
ATOM     25  C   UNL     1       5.841   0.354  11.443  0.00  0.00    +0.000 C 
ENDBRANCH  20  23
ENDBRANCH   5  19
TORSDOF 5
ENDMDL
MODEL 8
REMARK VINA RESULT:      -7.4      0.991      1.225
REMARK  Name = 
REMARK  8 active torsions:
REMARK  status: ('A' for Active; 'I' for Inactive)
REMARK    1  A    between atoms: C_1  and  O_2
REMARK    2  A    between atoms: O_2  and  C_3
REMARK    3  A    between atoms: C_8  and  C_9
REMARK    4  A    between atoms: N_11  and  C_12
REMARK    5  A    between atoms: C_16  and  N_17
REMARK    6  A    between atoms: C_18  and  C_20
REMARK    7  A    between atoms: C_20  and  C_21
REMARK    8  A    between atoms: C_20  and  C_22
REMARK                            x       y       z     vdW  Elec       q    Type
REMARK                         _______ _______ _______ _____ _____    ______ ____
ROOT
ATOM      1  C   UNL     1       1.998   6.218  20.424  0.00  0.00    +0.000 A 
ATOM      2  C   UNL     1       1.293   5.014  20.327  0.00  0.00    +0.000 A 
ATOM      3  C   UNL     1       1.840   3.910  19.684  0.00  0.00    +0.000 A 
ATOM      4  C   UNL     1       3.107   3.992  19.123  0.00  0.00    +0.000 A 
ATOM      5  C   UNL     1       3.850   5.173  19.197  0.00  0.00    +0.000 A 
ATOM      6  C   UNL     1       3.299   6.279  19.883  0.00  0.00    +0.000 A 
ENDROOT
BRANCH   1   9
ATOM      7  C   UNL     1       1.161   8.570  20.410  0.00  0.00    +0.000 C 
ATOM      8  O   UNL     1       1.476   8.825  19.249  0.00  0.00    +0.000 OA
ATOM      9  N   UNL     1       1.435   7.365  21.048  0.00  0.00    +0.000 N 
ATOM     10  H   UNL     1       1.281   7.338  22.052  0.00  0.00    +0.000 HD
BRANCH   7  16
ATOM     11  C   UNL     1       0.441  11.024  20.824  0.00  0.00    +0.000 A 
ATOM     12  C   UNL     1      -0.275  11.921  21.638  0.00  0.00    +0.000 A 
ATOM     13  C   UNL     1      -0.903  11.498  22.812  0.00  0.00    +0.000 A 
ATOM     14  C   UNL     1      -0.843  10.164  23.182  0.00  0.00    +0.000 A 
ATOM     15  C   UNL     1      -0.174   9.257  22.362  0.00  0.00    +0.000 A 
ATOM     16  C   UNL     1       0.469   9.664  21.170  0.00  0.00    +0.000 A 
BRANCH  11  18
ATOM     17  C   UNL     1       1.655  12.744  19.760  0.00  0.00    +0.000 C 
ATOM     18  O   UNL     1       1.086  11.435  19.682  0.00  0.00    +0.000 OA
ENDBRANCH  11  18
ENDBRANCH   7  16
ENDBRANCH   1   9
BRANCH   5  19
ATOM     19  N   UNL     1       5.132   5.293  18.594  0.00  0.00    +0.000 N 
ATOM     20  C   UNL     1       5.401   5.958  17.401  0.00  0.00    +0.000 C 
ATOM     21  O   UNL     1       4.576   6.562  16.720  0.00  0.00    +0.000 OA
ATOM     22  H   UNL     1       5.921   4.963  19.133  0.00  0.00    +0.000 HD
BRANCH  20  23
ATOM     23  C   UNL     1       6.876   5.943  16.981  0.00  0.00    +0.000 C 
ATOM     24  C   UNL     1       7.625   7.163  17.504  0.00  0.00    +0.000 C 
ATOM     25  C   UNL     1       7.549   4.665  17.501  0.00  0.00    +0.000 C 
ENDBRANCH  20  23
ENDBRANCH   5  19
TORSDOF 5
ENDMDL
MODEL 9
REMARK VINA RESULT:      -7.2      1.035      1.118
REMARK  Name = 
REMARK  8 active torsions:
REMARK  status: ('A' for Active; 'I' for Inactive)
REMARK    1  A    between atoms: C_1  and  O_2
REMARK    2  A    between atoms: O_2  and  C_3
REMARK    3  A    between atoms: C_8  and  C_9
REMARK    4  A    between atoms: N_11  and  C_12
REMARK    5  A    between atoms: C_16  and  N_17
REMARK    6  A    between atoms: C_18  and  C_20
REMARK    7  A    between atoms: C_20  and  C_21
REMARK    8  A    between atoms: C_20  and  C_22
REMARK                            x       y       z     vdW  Elec       q    Type
REMARK                         _______ _______ _______ _____ _____    ______ ____
ROOT
ATOM      1  C   UNL     1       1.867   6.821  20.279  0.00  0.00    +0.000 A 
ATOM      2  C   UNL     1       1.524   5.567  20.794  0.00  0.00    +0.000 A 
ATOM      3  C   UNL     1       2.298   4.445  20.530  0.00  0.00    +0.000 A 
ATOM      4  C   UNL     1       3.435   4.557  19.743  0.00  0.00    +0.000 A 
ATOM      5  C   UNL     1       3.821   5.789  19.209  0.00  0.00    +0.000 A 
ATOM      6  C   UNL     1       3.045   6.932  19.511  0.00  0.00    +0.000 A 
ENDROOT
BRANCH   1   9
ATOM      7  C   UNL     1       1.191   8.828  21.601  0.00  0.00    +0.000 C 
ATOM      8  O   UNL     1       1.946   8.631  22.552  0.00  0.00    +0.000 OA
ATOM      9  N   UNL     1       1.064   7.971  20.513  0.00  0.00    +0.000 N 
ATOM     10  H   UNL     1       0.290   8.152  19.881  0.00  0.00    +0.000 HD
BRANCH   7  16
ATOM     11  C   UNL     1       0.329  11.110  20.729  0.00  0.00    +0.000 A 
ATOM     12  C   UNL     1      -0.546  12.195  20.929  0.00  0.00    +0.000 A 
ATOM     13  C   UNL     1      -1.351  12.281  22.067  0.00  0.00    +0.000 A 
ATOM     14  C   UNL     1      -1.311  11.273  23.017  0.00  0.00    +0.000 A 
ATOM     15  C   UNL     1      -0.481  10.172  22.810  0.00  0.00    +0.000 A 
ATOM     16  C   UNL     1       0.343  10.065  21.666  0.00  0.00    +0.000 A 
BRANCH  11  18
ATOM     17  C   UNL     1       0.986  12.096  18.690  0.00  0.00    +0.000 C 
ATOM     18  O   UNL     1       1.146  11.029  19.627  0.00  0.00    +0.000 OA
ENDBRANCH  11  18
ENDBRANCH   7  16
ENDBRANCH   1   9
BRANCH   5  19
ATOM     19  N   UNL     1       4.958   5.920  18.366  0.00  0.00    +0.000 N 
ATOM     20  C   UNL     1       6.273   5.659  18.744  0.00  0.00    +0.000 C 
ATOM     21  O   UNL     1       6.631   5.249  19.845  0.00  0.00    +0.000 OA
ATOM     22  H   UNL     1       4.782   6.110  17.389  0.00  0.00    +0.000 HD
BRANCH  20  23
ATOM     23  C   UNL     1       7.309   5.873  17.633  0.00  0.00    +0.000 C 
ATOM     24  C   UNL     1       6.861   5.251  16.315  0.00  0.00    +0.000 C 
ATOM     25  C   UNL     1       7.554   7.375  17.435  0.00  0.00    +0.000 C 
ENDBRANCH  20  23
ENDBRANCH   5  19
TORSDOF 5
ENDMDL
