MODEL 1
REMARK VINA RESULT:      -7.9      0.000      0.000
REMARK  Name = 
REMARK  8 active torsions:
REMARK  status: ('A' for Active; 'I' for Inactive)
REMARK    1  A    between atoms: C_1  and  C_2
REMARK    2  A    between atoms: C_2  and  O_3
REMARK    3  A    between atoms: O_3  and  C_4
REMARK    4  A    between atoms: C_7  and  N_8
REMARK    5  A    between atoms: C_9  and  C_11
REMARK    6  A    between atoms: C_11  and  N_12
REMARK    7  A    between atoms: N_15  and  C_16
REMARK    8  A    between atoms: C_16  and  C_17
REMARK                            x       y       z     vdW  Elec       q    Type
REMARK                         _______ _______ _______ _____ _____    ______ ____
ROOT
ATOM      1  N   UNL     1       3.448   5.580  17.545  0.00  0.00    +0.000 N 
ATOM      2  C   UNL     1       4.549   5.946  16.739  0.00  0.00    +0.000 A 
ATOM      3  O   UNL     1       4.454   6.892  15.946  0.00  0.00    +0.000 OA
ATOM      4  N   UNL     1       5.743   5.247  16.898  0.00  0.00    +0.000 N 
ATOM      5  C   UNL     1       5.989   4.383  17.952  0.00  0.00    +0.000 A 
ATOM      6  O   UNL     1       7.126   3.982  18.230  0.00  0.00    +0.000 OA
ATOM      7  C   UNL     1       4.834   4.040  18.722  0.00  0.00    +0.000 A 
ATOM      8  S   UNL     1       4.981   3.003  20.031  0.00  0.00    +0.000 S 
ATOM      9  C   UNL     1       3.322   3.148  20.402  0.00  0.00    +0.000 A 
ATOM     10  C   UNL     1       2.712   2.549  21.522  0.00  0.00    +0.000 A 
ATOM     11  C   UNL     1       1.333   2.594  21.642  0.00  0.00    +0.000 A 
ATOM     12  C   UNL     1       0.583   3.215  20.655  0.00  0.00    +0.000 A 
ATOM     13  C   UNL     1       1.207   3.889  19.580  0.00  0.00    +0.000 A 
ATOM     14  C   UNL     1       2.626   3.909  19.444  0.00  0.00    +0.000 A 
ATOM     15  C   UNL     1       3.575   4.556  18.522  0.00  0.00    +0.000 A 
ENDROOT
BRANCH   1  16
ATOM     16  C   UNL     1       2.291   6.469  17.418  0.00  0.00    +0.000 C 
BRANCH  16  18
ATOM     17  N   UNL     1       1.465   8.641  18.275  0.00  0.00    +0.000 N 
ATOM     18  C   UNL     1       2.259   7.521  18.527  0.00  0.00    +0.000 C 
ATOM     19  O   UNL     1       2.881   7.298  19.560  0.00  0.00    +0.000 OA
ATOM     20  H   UNL     1       0.926   8.646  17.411  0.00  0.00    +0.000 HD
BRANCH  17  24
ATOM     21  C   UNL     1       0.690  11.893  20.911  0.00  0.00    +0.000 A 
ATOM     22  C   UNL     1       0.371  10.591  21.285  0.00  0.00    +0.000 A 
ATOM     23  C   UNL     1       0.655   9.518  20.439  0.00  0.00    +0.000 A 
ATOM     24  C   UNL     1       1.231   9.710  19.185  0.00  0.00    +0.000 A 
ATOM     25  C   UNL     1       1.566  11.025  18.818  0.00  0.00    +0.000 A 
ATOM     26  C   UNL     1       1.289  12.108  19.675  0.00  0.00    +0.000 A 
BRANCH  21  27
ATOM     27  O   UNL     1       0.337  12.835  21.837  0.00  0.00    +0.000 OA
BRANCH  27  29
ATOM     28  C   UNL     1      -1.992  13.294  21.930  0.00  0.00    +0.000 C 
ATOM     29  C   UNL     1      -0.831  12.584  22.614  0.00  0.00    +0.000 C 
ENDBRANCH  27  29
ENDBRANCH  21  27
ENDBRANCH  17  24
ENDBRANCH  16  18
ENDBRANCH   1  16
BRANCH   4  30
ATOM     30  C   UNL     1       6.906   5.668  16.134  0.00  0.00    +0.000 C 
BRANCH  30  31
ATOM     31  C   UNL     1       7.018   5.068  14.751  0.00  0.00    +0.000 A 
ATOM     32  C   UNL     1       6.163   4.021  14.374  0.00  0.00    +0.000 A 
ATOM     33  C   UNL     1       6.129   3.573  13.054  0.00  0.00    +0.000 A 
ATOM     34  C   UNL     1       6.957   4.155  12.098  0.00  0.00    +0.000 A 
ATOM     35  C   UNL     1       7.849   5.161  12.470  0.00  0.00    +0.000 A 
ATOM     36  C   UNL     1       7.887   5.609  13.793  0.00  0.00    +0.000 A 
ENDBRANCH  30  31
ENDBRANCH   4  30
TORSDOF 7
ENDMDL
MODEL 2
REMARK VINA RESULT:      -7.7      4.603     11.919
REMARK  Name = 
REMARK  8 active torsions:
REMARK  status: ('A' for Active; 'I' for Inactive)
REMARK    1  A    between atoms: C_1  and  C_2
REMARK    2  A    between atoms: C_2  and  O_3
REMARK    3  A    between atoms: O_3  and  C_4
REMARK    4  A    between atoms: C_7  and  N_8
REMARK    5  A    between atoms: C_9  and  C_11
REMARK    6  A    between atoms: C_11  and  N_12
REMARK    7  A    between atoms: N_15  and  C_16
REMARK    8  A    between atoms: C_16  and  C_17
REMARK                            x       y       z     vdW  Elec       q    Type
REMARK                         _______ _______ _______ _____ _____    ______ ____
ROOT
ATOM      1  N   UNL     1      -1.773  12.644  20.765  0.00  0.00    +0.000 N 
ATOM      2  C   UNL     1      -1.933  12.999  22.123  0.00  0.00    +0.000 A 
ATOM      3  O   UNL     1      -0.966  13.407  22.779  0.00  0.00    +0.000 OA
ATOM      4  N   UNL     1      -3.208  12.921  22.678  0.00  0.00    +0.000 N 
ATOM      5  C   UNL     1      -4.360  12.749  21.928  0.00  0.00    +0.000 A 
ATOM      6  O   UNL     1      -5.489  12.947  22.392  0.00  0.00    +0.000 OA
ATOM      7  C   UNL     1      -4.132  12.378  20.566  0.00  0.00    +0.000 A 
ATOM      8  S   UNL     1      -5.435  12.136  19.539  0.00  0.00    +0.000 S 
ATOM      9  C   UNL     1      -4.404  11.816  18.218  0.00  0.00    +0.000 A 
ATOM     10  C   UNL     1      -4.858  11.581  16.904  0.00  0.00    +0.000 A 
ATOM     11  C   UNL     1      -3.951  11.172  15.942  0.00  0.00    +0.000 A 
ATOM     12  C   UNL     1      -2.622  10.990  16.291  0.00  0.00    +0.000 A 
ATOM     13  C   UNL     1      -2.157  11.311  17.588  0.00  0.00    +0.000 A 
ATOM     14  C   UNL     1      -3.048  11.782  18.596  0.00  0.00    +0.000 A 
ATOM     15  C   UNL     1      -2.894  12.264  19.979  0.00  0.00    +0.000 A 
ENDROOT
BRANCH   1  16
ATOM     16  C   UNL     1      -0.435  12.908  20.231  0.00  0.00    +0.000 C 
BRANCH  16  18
ATOM     17  N   UNL     1       0.313  10.707  19.376  0.00  0.00    +0.000 N 
ATOM     18  C   UNL     1       0.477  11.688  20.356  0.00  0.00    +0.000 C 
ATOM     19  O   UNL     1       1.307  11.670  21.260  0.00  0.00    +0.000 OA
ATOM     20  H   UNL     1      -0.349  10.902  18.627  0.00  0.00    +0.000 HD
BRANCH  17  24
ATOM     21  C   UNL     1       2.544   7.097  19.035  0.00  0.00    +0.000 A 
ATOM     22  C   UNL     1       2.441   7.967  17.953  0.00  0.00    +0.000 A 
ATOM     23  C   UNL     1       1.740   9.167  18.070  0.00  0.00    +0.000 A 
ATOM     24  C   UNL     1       1.094   9.523  19.253  0.00  0.00    +0.000 A 
ATOM     25  C   UNL     1       1.213   8.649  20.347  0.00  0.00    +0.000 A 
ATOM     26  C   UNL     1       1.928   7.441  20.233  0.00  0.00    +0.000 A 
BRANCH  21  27
ATOM     27  O   UNL     1       3.247   5.957  18.760  0.00  0.00    +0.000 OA
BRANCH  27  29
ATOM     28  C   UNL     1       1.710   4.423  17.798  0.00  0.00    +0.000 C 
ATOM     29  C   UNL     1       2.598   4.712  19.001  0.00  0.00    +0.000 C 
ENDBRANCH  27  29
ENDBRANCH  21  27
ENDBRANCH  17  24
ENDBRANCH  16  18
ENDBRANCH   1  16
BRANCH   4  30
ATOM     30  C   UNL     1      -3.400  13.362  24.051  0.00  0.00    +0.000 C 
BRANCH  30  31
ATOM     31  C   UNL     1      -3.161  14.835  24.291  0.00  0.00    +0.000 A 
ATOM     32  C   UNL     1      -3.925  15.787  23.599  0.00  0.00    +0.000 A 
ATOM     33  C   UNL     1      -3.845  17.139  23.932  0.00  0.00    +0.000 A 
ATOM     34  C   UNL     1      -2.991  17.558  24.949  0.00  0.00    +0.000 A 
ATOM     35  C   UNL     1      -2.188  16.628  25.610  0.00  0.00    +0.000 A 
ATOM     36  C   UNL     1      -2.264  15.273  25.275  0.00  0.00    +0.000 A 
ENDBRANCH  30  31
ENDBRANCH   4  30
TORSDOF 7
ENDMDL
MODEL 3
REMARK VINA RESULT:      -7.6      0.603      1.053
REMARK  Name = 
REMARK  8 active torsions:
REMARK  status: ('A' for Active; 'I' for Inactive)
REMARK    1  A    between atoms: C_1  and  C_2
REMARK    2  A    between atoms: C_2  and  O_3
REMARK    3  A    between atoms: O_3  and  C_4
REMARK    4  A    between atoms: C_7  and  N_8
REMARK    5  A    between atoms: C_9  and  C_11
REMARK    6  A    between atoms: C_11  and  N_12
REMARK    7  A    between atoms: N_15  and  C_16
REMARK    8  A    between atoms: C_16  and  C_17
REMARK                            x       y       z     vdW  Elec       q    Type
REMARK                         _______ _______ _______ _____ _____    ______ ____
ROOT
ATOM      1  N   UNL     1       3.562   5.697  17.484  0.00  0.00    +0.000 N 
ATOM      2  C   UNL     1       4.684   6.022  16.689  0.00  0.00    +0.000 A 
ATOM      3  O   UNL     1       4.644   6.990  15.919  0.00  0.00    +0.000 OA
ATOM      4  N   UNL     1       5.838   5.255  16.834  0.00  0.00    +0.000 N 
ATOM      5  C   UNL     1       6.033   4.354  17.869  0.00  0.00    +0.000 A 
ATOM      6  O   UNL     1       7.145   3.885  18.139  0.00  0.00    +0.000 OA
ATOM      7  C   UNL     1       4.857   4.057  18.627  0.00  0.00    +0.000 A 
ATOM      8  S   UNL     1       4.943   2.983  19.912  0.00  0.00    +0.000 S 
ATOM      9  C   UNL     1       3.294   3.210  20.282  0.00  0.00    +0.000 A 
ATOM     10  C   UNL     1       2.647   2.619  21.387  0.00  0.00    +0.000 A 
ATOM     11  C   UNL     1       1.273   2.737  21.504  0.00  0.00    +0.000 A 
ATOM     12  C   UNL     1       0.561   3.421  20.531  0.00  0.00    +0.000 A 
ATOM     13  C   UNL     1       1.225   4.085  19.473  0.00  0.00    +0.000 A 
ATOM     14  C   UNL     1       2.644   4.031  19.341  0.00  0.00    +0.000 A 
ATOM     15  C   UNL     1       3.630   4.646  18.436  0.00  0.00    +0.000 A 
ENDROOT
BRANCH   1  16
ATOM     16  C   UNL     1       2.456   6.652  17.376  0.00  0.00    +0.000 C 
BRANCH  16  18
ATOM     17  N   UNL     1       1.234   8.390  18.649  0.00  0.00    +0.000 N 
ATOM     18  C   UNL     1       2.271   7.455  18.663  0.00  0.00    +0.000 C 
ATOM     19  O   UNL     1       2.996   7.200  19.619  0.00  0.00    +0.000 OA
ATOM     20  H   UNL     1       0.648   8.424  17.817  0.00  0.00    +0.000 HD
BRANCH  17  24
ATOM     21  C   UNL     1       0.137  10.759  22.012  0.00  0.00    +0.000 A 
ATOM     22  C   UNL     1       0.458  11.362  20.799  0.00  0.00    +0.000 A 
ATOM     23  C   UNL     1       0.784  10.589  19.684  0.00  0.00    +0.000 A 
ATOM     24  C   UNL     1       0.835   9.198  19.751  0.00  0.00    +0.000 A 
ATOM     25  C   UNL     1       0.495   8.592  20.973  0.00  0.00    +0.000 A 
ATOM     26  C   UNL     1       0.157   9.372  22.096  0.00  0.00    +0.000 A 
BRANCH  21  27
ATOM     27  O   UNL     1      -0.144  11.648  23.011  0.00  0.00    +0.000 OA
BRANCH  27  29
ATOM     28  C   UNL     1      -1.469  13.619  23.012  0.00  0.00    +0.000 C 
ATOM     29  C   UNL     1      -1.490  12.100  23.128  0.00  0.00    +0.000 C 
ENDBRANCH  27  29
ENDBRANCH  21  27
ENDBRANCH  17  24
ENDBRANCH  16  18
ENDBRANCH   1  16
BRANCH   4  30
ATOM     30  C   UNL     1       7.025   5.630  16.083  0.00  0.00    +0.000 C 
BRANCH  30  31
ATOM     31  C   UNL     1       7.111   5.053  14.688  0.00  0.00    +0.000 A 
ATOM     32  C   UNL     1       6.273   3.989  14.321  0.00  0.00    +0.000 A 
ATOM     33  C   UNL     1       6.211   3.560  12.996  0.00  0.00    +0.000 A 
ATOM     34  C   UNL     1       6.994   4.178  12.024  0.00  0.00    +0.000 A 
ATOM     35  C   UNL     1       7.869   5.202  12.385  0.00  0.00    +0.000 A 
ATOM     36  C   UNL     1       7.936   5.631  13.713  0.00  0.00    +0.000 A 
ENDBRANCH  30  31
ENDBRANCH   4  30
TORSDOF 7
ENDMDL
MODEL 4
REMARK VINA RESULT:      -7.6      4.336      7.849
REMARK  Name = 
REMARK  8 active torsions:
REMARK  status: ('A' for Active; 'I' for Inactive)
REMARK    1  A    between atoms: C_1  and  C_2
REMARK    2  A    between atoms: C_2  and  O_3
REMARK    3  A    between atoms: O_3  and  C_4
REMARK    4  A    between atoms: C_7  and  N_8
REMARK    5  A    between atoms: C_9  and  C_11
REMARK    6  A    between atoms: C_11  and  N_12
REMARK    7  A    between atoms: N_15  and  C_16
REMARK    8  A    between atoms: C_16  and  C_17
REMARK                            x       y       z     vdW  Elec       q    Type
REMARK                         _______ _______ _______ _____ _____    ______ ____
ROOT
ATOM      1  N   UNL     1       0.020  10.702  19.208  0.00  0.00    +0.000 N 
ATOM      2  C   UNL     1       1.014   9.724  18.978  0.00  0.00    +0.000 A 
ATOM      3  O   UNL     1       1.597   9.673  17.887  0.00  0.00    +0.000 OA
ATOM      4  N   UNL     1       1.344   8.862  20.021  0.00  0.00    +0.000 N 
ATOM      5  C   UNL     1       0.936   9.054  21.331  0.00  0.00    +0.000 A 
ATOM      6  O   UNL     1       1.445   8.448  22.280  0.00  0.00    +0.000 OA
ATOM      7  C   UNL     1      -0.080  10.047  21.497  0.00  0.00    +0.000 A 
ATOM      8  S   UNL     1      -0.672  10.386  23.028  0.00  0.00    +0.000 S 
ATOM      9  C   UNL     1      -1.701  11.603  22.420  0.00  0.00    +0.000 A 
ATOM     10  C   UNL     1      -2.510  12.427  23.230  0.00  0.00    +0.000 A 
ATOM     11  C   UNL     1      -3.427  13.270  22.627  0.00  0.00    +0.000 A 
ATOM     12  C   UNL     1      -3.540  13.280  21.246  0.00  0.00    +0.000 A 
ATOM     13  C   UNL     1      -2.666  12.517  20.436  0.00  0.00    +0.000 A 
ATOM     14  C   UNL     1      -1.674  11.671  21.014  0.00  0.00    +0.000 A 
ATOM     15  C   UNL     1      -0.589  10.827  20.486  0.00  0.00    +0.000 A 
ENDROOT
BRANCH   1  16
ATOM     16  C   UNL     1      -0.146  11.657  18.111  0.00  0.00    +0.000 C 
BRANCH  16  18
ATOM     17  N   UNL     1       1.897  13.014  18.460  0.00  0.00    +0.000 N 
ATOM     18  C   UNL     1       0.501  13.005  18.428  0.00  0.00    +0.000 C 
ATOM     19  O   UNL     1      -0.228  13.979  18.584  0.00  0.00    +0.000 OA
ATOM     20  H   UNL     1       2.374  12.149  18.213  0.00  0.00    +0.000 HD
BRANCH  17  24
ATOM     21  C   UNL     1       4.434  16.372  19.103  0.00  0.00    +0.000 A 
ATOM     22  C   UNL     1       3.800  16.191  17.876  0.00  0.00    +0.000 A 
ATOM     23  C   UNL     1       2.940  15.112  17.672  0.00  0.00    +0.000 A 
ATOM     24  C   UNL     1       2.712  14.162  18.666  0.00  0.00    +0.000 A 
ATOM     25  C   UNL     1       3.342  14.356  19.908  0.00  0.00    +0.000 A 
ATOM     26  C   UNL     1       4.202  15.451  20.119  0.00  0.00    +0.000 A 
BRANCH  21  27
ATOM     27  O   UNL     1       5.255  17.464  19.143  0.00  0.00    +0.000 OA
BRANCH  27  29
ATOM     28  C   UNL     1       7.456  16.762  18.592  0.00  0.00    +0.000 C 
ATOM     29  C   UNL     1       6.554  17.288  19.701  0.00  0.00    +0.000 C 
ENDBRANCH  27  29
ENDBRANCH  21  27
ENDBRANCH  17  24
ENDBRANCH  16  18
ENDBRANCH   1  16
BRANCH   4  30
ATOM     30  C   UNL     1       2.422   7.907  19.823  0.00  0.00    +0.000 C 
BRANCH  30  31
ATOM     31  C   UNL     1       1.980   6.502  19.479  0.00  0.00    +0.000 A 
ATOM     32  C   UNL     1       2.095   6.038  18.160  0.00  0.00    +0.000 A 
ATOM     33  C   UNL     1       1.860   4.698  17.857  0.00  0.00    +0.000 A 
ATOM     34  C   UNL     1       1.494   3.808  18.863  0.00  0.00    +0.000 A 
ATOM     35  C   UNL     1       1.325   4.267  20.170  0.00  0.00    +0.000 A 
ATOM     36  C   UNL     1       1.557   5.611  20.475  0.00  0.00    +0.000 A 
ENDBRANCH  30  31
ENDBRANCH   4  30
TORSDOF 7
ENDMDL
MODEL 5
REMARK VINA RESULT:      -7.5      4.267     10.790
REMARK  Name = 
REMARK  8 active torsions:
REMARK  status: ('A' for Active; 'I' for Inactive)
REMARK    1  A    between atoms: C_1  and  C_2
REMARK    2  A    between atoms: C_2  and  O_3
REMARK    3  A    between atoms: O_3  and  C_4
REMARK    4  A    between atoms: C_7  and  N_8
REMARK    5  A    between atoms: C_9  and  C_11
REMARK    6  A    between atoms: C_11  and  N_12
REMARK    7  A    between atoms: N_15  and  C_16
REMARK    8  A    between atoms: C_16  and  C_17
REMARK                            x       y       z     vdW  Elec       q    Type
REMARK                         _______ _______ _______ _____ _____    ______ ____
ROOT
ATOM      1  N   UNL     1      -0.426  11.316  19.486  0.00  0.00    +0.000 N 
ATOM      2  C   UNL     1      -0.146  11.690  20.820  0.00  0.00    +0.000 A 
ATOM      3  O   UNL     1       1.025  11.748  21.218  0.00  0.00    +0.000 OA
ATOM      4  N   UNL     1      -1.214  12.032  21.646  0.00  0.00    +0.000 N 
ATOM      5  C   UNL     1      -2.499  12.257  21.181  0.00  0.00    +0.000 A 
ATOM      6  O   UNL     1      -3.365  12.813  21.867  0.00  0.00    +0.000 OA
ATOM      7  C   UNL     1      -2.723  11.846  19.829  0.00  0.00    +0.000 A 
ATOM      8  S   UNL     1      -4.233  12.059  19.132  0.00  0.00    +0.000 S 
ATOM      9  C   UNL     1      -3.693  11.430  17.642  0.00  0.00    +0.000 A 
ATOM     10  C   UNL     1      -4.487  11.372  16.478  0.00  0.00    +0.000 A 
ATOM     11  C   UNL     1      -4.009  10.696  15.370  0.00  0.00    +0.000 A 
ATOM     12  C   UNL     1      -2.767  10.082  15.428  0.00  0.00    +0.000 A 
ATOM     13  C   UNL     1      -1.939  10.217  16.567  0.00  0.00    +0.000 A 
ATOM     14  C   UNL     1      -2.373  10.946  17.713  0.00  0.00    +0.000 A 
ATOM     15  C   UNL     1      -1.758  11.335  18.994  0.00  0.00    +0.000 A 
ENDROOT
BRANCH   1  16
ATOM     16  C   UNL     1       0.765  11.128  18.655  0.00  0.00    +0.000 C 
BRANCH  16  18
ATOM     17  N   UNL     1       1.655   9.035  19.636  0.00  0.00    +0.000 N 
ATOM     18  C   UNL     1       1.123   9.650  18.501  0.00  0.00    +0.000 C 
ATOM     19  O   UNL     1       0.884   9.101  17.430  0.00  0.00    +0.000 OA
ATOM     20  H   UNL     1       1.706   9.592  20.487  0.00  0.00    +0.000 HD
BRANCH  17  24
ATOM     21  C   UNL     1       2.552   4.885  19.945  0.00  0.00    +0.000 A 
ATOM     22  C   UNL     1       3.182   5.673  18.986  0.00  0.00    +0.000 A 
ATOM     23  C   UNL     1       2.918   7.041  18.903  0.00  0.00    +0.000 A 
ATOM     24  C   UNL     1       1.996   7.658  19.746  0.00  0.00    +0.000 A 
ATOM     25  C   UNL     1       1.373   6.861  20.723  0.00  0.00    +0.000 A 
ATOM     26  C   UNL     1       1.646   5.483  20.813  0.00  0.00    +0.000 A 
BRANCH  21  27
ATOM     27  O   UNL     1       2.902   3.565  19.889  0.00  0.00    +0.000 OA
BRANCH  27  29
ATOM     28  C   UNL     1       2.275   2.299  17.980  0.00  0.00    +0.000 C 
ATOM     29  C   UNL     1       3.404   3.071  18.650  0.00  0.00    +0.000 C 
ENDBRANCH  27  29
ENDBRANCH  21  27
ENDBRANCH  17  24
ENDBRANCH  16  18
ENDBRANCH   1  16
BRANCH   4  30
ATOM     30  C   UNL     1      -0.933  12.497  22.995  0.00  0.00    +0.000 C 
BRANCH  30  31
ATOM     31  C   UNL     1      -0.885  13.999  23.158  0.00  0.00    +0.000 A 
ATOM     32  C   UNL     1      -1.590  14.609  24.206  0.00  0.00    +0.000 A 
ATOM     33  C   UNL     1      -1.420  15.965  24.481  0.00  0.00    +0.000 A 
ATOM     34  C   UNL     1      -0.554  16.732  23.705  0.00  0.00    +0.000 A 
ATOM     35  C   UNL     1       0.113  16.149  22.627  0.00  0.00    +0.000 A 
ATOM     36  C   UNL     1      -0.059  14.791  22.348  0.00  0.00    +0.000 A 
ENDBRANCH  30  31
ENDBRANCH   4  30
TORSDOF 7
ENDMDL
MODEL 6
REMARK VINA RESULT:      -7.5      3.837     10.936
REMARK  Name = 
REMARK  8 active torsions:
REMARK  status: ('A' for Active; 'I' for Inactive)
REMARK    1  A    between atoms: C_1  and  C_2
REMARK    2  A    between atoms: C_2  and  O_3
REMARK    3  A    between atoms: O_3  and  C_4
REMARK    4  A    between atoms: C_7  and  N_8
REMARK    5  A    between atoms: C_9  and  C_11
REMARK    6  A    between atoms: C_11  and  N_12
REMARK    7  A    between atoms: N_15  and  C_16
REMARK    8  A    between atoms: C_16  and  C_17
REMARK                            x       y       z     vdW  Elec       q    Type
REMARK                         _______ _______ _______ _____ _____    ______ ____
ROOT
ATOM      1  N   UNL     1      -0.435  11.417  19.775  0.00  0.00    +0.000 N 
ATOM      2  C   UNL     1      -0.206  11.924  21.074  0.00  0.00    +0.000 A 
ATOM      3  O   UNL     1       0.946  11.983  21.525  0.00  0.00    +0.000 OA
ATOM      4  N   UNL     1      -1.297  12.393  21.801  0.00  0.00    +0.000 N 
ATOM      5  C   UNL     1      -2.547  12.614  21.246  0.00  0.00    +0.000 A 
ATOM      6  O   UNL     1      -3.421  13.273  21.822  0.00  0.00    +0.000 OA
ATOM      7  C   UNL     1      -2.722  12.066  19.937  0.00  0.00    +0.000 A 
ATOM      8  S   UNL     1      -4.186  12.256  19.142  0.00  0.00    +0.000 S 
ATOM      9  C   UNL     1      -3.601  11.448  17.758  0.00  0.00    +0.000 A 
ATOM     10  C   UNL     1      -4.340  11.292  16.568  0.00  0.00    +0.000 A 
ATOM     11  C   UNL     1      -3.837  10.481  15.565  0.00  0.00    +0.000 A 
ATOM     12  C   UNL     1      -2.627   9.832  15.755  0.00  0.00    +0.000 A 
ATOM     13  C   UNL     1      -1.850  10.061  16.915  0.00  0.00    +0.000 A 
ATOM     14  C   UNL     1      -2.308  10.927  17.952  0.00  0.00    +0.000 A 
ATOM     15  C   UNL     1      -1.741  11.431  19.214  0.00  0.00    +0.000 A 
ENDROOT
BRANCH   1  16
ATOM     16  C   UNL     1       0.786  11.095  19.033  0.00  0.00    +0.000 C 
BRANCH  16  18
ATOM     17  N   UNL     1       2.051   9.126  18.224  0.00  0.00    +0.000 N 
ATOM     18  C   UNL     1       1.175   9.625  19.189  0.00  0.00    +0.000 C 
ATOM     19  O   UNL     1       0.740   9.007  20.156  0.00  0.00    +0.000 OA
ATOM     20  H   UNL     1       2.409   9.783  17.534  0.00  0.00    +0.000 HD
BRANCH  17  24
ATOM     21  C   UNL     1       3.806   5.247  18.214  0.00  0.00    +0.000 A 
ATOM     22  C   UNL     1       2.689   5.513  19.001  0.00  0.00    +0.000 A 
ATOM     23  C   UNL     1       2.089   6.773  18.981  0.00  0.00    +0.000 A 
ATOM     24  C   UNL     1       2.601   7.813  18.207  0.00  0.00    +0.000 A 
ATOM     25  C   UNL     1       3.720   7.535  17.403  0.00  0.00    +0.000 A 
ATOM     26  C   UNL     1       4.320   6.261  17.415  0.00  0.00    +0.000 A 
BRANCH  21  27
ATOM     27  O   UNL     1       4.288   3.975  18.354  0.00  0.00    +0.000 OA
BRANCH  27  29
ATOM     28  C   UNL     1       3.301   1.815  18.375  0.00  0.00    +0.000 C 
ATOM     29  C   UNL     1       3.753   2.973  17.495  0.00  0.00    +0.000 C 
ENDBRANCH  27  29
ENDBRANCH  21  27
ENDBRANCH  17  24
ENDBRANCH  16  18
ENDBRANCH   1  16
BRANCH   4  30
ATOM     30  C   UNL     1      -1.062  12.993  23.104  0.00  0.00    +0.000 C 
BRANCH  30  31
ATOM     31  C   UNL     1      -0.908  14.497  23.101  0.00  0.00    +0.000 A 
ATOM     32  C   UNL     1      -1.614  15.273  24.032  0.00  0.00    +0.000 A 
ATOM     33  C   UNL     1      -1.354  16.637  24.161  0.00  0.00    +0.000 A 
ATOM     34  C   UNL     1      -0.396  17.245  23.354  0.00  0.00    +0.000 A 
ATOM     35  C   UNL     1       0.276  16.496  22.388  0.00  0.00    +0.000 A 
ATOM     36  C   UNL     1       0.014  15.129  22.254  0.00  0.00    +0.000 A 
ENDBRANCH  30  31
ENDBRANCH   4  30
TORSDOF 7
ENDMDL
MODEL 7
REMARK VINA RESULT:      -7.4      0.944      1.460
REMARK  Name = 
REMARK  8 active torsions:
REMARK  status: ('A' for Active; 'I' for Inactive)
REMARK    1  A    between atoms: C_1  and  C_2
REMARK    2  A    between atoms: C_2  and  O_3
REMARK    3  A    between atoms: O_3  and  C_4
REMARK    4  A    between atoms: C_7  and  N_8
REMARK    5  A    between atoms: C_9  and  C_11
REMARK    6  A    between atoms: C_11  and  N_12
REMARK    7  A    between atoms: N_15  and  C_16
REMARK    8  A    between atoms: C_16  and  C_17
REMARK                            x       y       z     vdW  Elec       q    Type
REMARK                         _______ _______ _______ _____ _____    ______ ____
ROOT
ATOM      1  N   UNL     1       3.391   5.489  17.534  0.00  0.00    +0.000 N 
ATOM      2  C   UNL     1       4.464   5.879  16.700  0.00  0.00    +0.000 A 
ATOM      3  O   UNL     1       4.322   6.807  15.894  0.00  0.00    +0.000 OA
ATOM      4  N   UNL     1       5.684   5.223  16.848  0.00  0.00    +0.000 N 
ATOM      5  C   UNL     1       5.979   4.387  17.912  0.00  0.00    +0.000 A 
ATOM      6  O   UNL     1       7.134   4.029  18.174  0.00  0.00    +0.000 OA
ATOM      7  C   UNL     1       4.851   4.019  18.709  0.00  0.00    +0.000 A 
ATOM      8  S   UNL     1       5.058   3.010  20.032  0.00  0.00    +0.000 S 
ATOM      9  C   UNL     1       3.403   3.105  20.433  0.00  0.00    +0.000 A 
ATOM     10  C   UNL     1       2.834   2.506  21.575  0.00  0.00    +0.000 A 
ATOM     11  C   UNL     1       1.457   2.506  21.720  0.00  0.00    +0.000 A 
ATOM     12  C   UNL     1       0.668   3.084  20.739  0.00  0.00    +0.000 A 
ATOM     13  C   UNL     1       1.248   3.760  19.640  0.00  0.00    +0.000 A 
ATOM     14  C   UNL     1       2.663   3.826  19.476  0.00  0.00    +0.000 A 
ATOM     15  C   UNL     1       3.572   4.488  18.525  0.00  0.00    +0.000 A 
ENDROOT
BRANCH   1  16
ATOM     16  C   UNL     1       2.203   6.337  17.415  0.00  0.00    +0.000 C 
BRANCH  16  18
ATOM     17  N   UNL     1       1.604   8.705  17.826  0.00  0.00    +0.000 N 
ATOM     18  C   UNL     1       2.310   7.591  18.283  0.00  0.00    +0.000 C 
ATOM     19  O   UNL     1       2.956   7.526  19.324  0.00  0.00    +0.000 OA
ATOM     20  H   UNL     1       1.029   8.584  16.994  0.00  0.00    +0.000 HD
BRANCH  17  24
ATOM     21  C   UNL     1       1.344  12.383  19.954  0.00  0.00    +0.000 A 
ATOM     22  C   UNL     1       2.148  12.279  18.821  0.00  0.00    +0.000 A 
ATOM     23  C   UNL     1       2.209  11.086  18.100  0.00  0.00    +0.000 A 
ATOM     24  C   UNL     1       1.502   9.954  18.502  0.00  0.00    +0.000 A 
ATOM     25  C   UNL     1       0.681  10.068  19.637  0.00  0.00    +0.000 A 
ATOM     26  C   UNL     1       0.611  11.274  20.360  0.00  0.00    +0.000 A 
BRANCH  21  27
ATOM     27  O   UNL     1       1.402  13.607  20.559  0.00  0.00    +0.000 OA
BRANCH  27  29
ATOM     28  C   UNL     1       1.928  15.921  20.458  0.00  0.00    +0.000 C 
ATOM     29  C   UNL     1       1.271  14.757  19.728  0.00  0.00    +0.000 C 
ENDBRANCH  27  29
ENDBRANCH  21  27
ENDBRANCH  17  24
ENDBRANCH  16  18
ENDBRANCH   1  16
BRANCH   4  30
ATOM     30  C   UNL     1       6.818   5.670  16.054  0.00  0.00    +0.000 C 
BRANCH  30  31
ATOM     31  C   UNL     1       6.940   5.029  14.691  0.00  0.00    +0.000 A 
ATOM     32  C   UNL     1       6.051   4.009  14.319  0.00  0.00    +0.000 A 
ATOM     33  C   UNL     1       6.032   3.527  13.010  0.00  0.00    +0.000 A 
ATOM     34  C   UNL     1       6.909   4.048  12.062  0.00  0.00    +0.000 A 
ATOM     35  C   UNL     1       7.833   5.026  12.432  0.00  0.00    +0.000 A 
ATOM     36  C   UNL     1       7.856   5.507  13.744  0.00  0.00    +0.000 A 
ENDBRANCH  30  31
ENDBRANCH   4  30
TORSDOF 7
ENDMDL
MODEL 8
REMARK VINA RESULT:      -7.4      3.836     10.974
REMARK  Name = 
REMARK  8 active torsions:
REMARK  status: ('A' for Active; 'I' for Inactive)
REMARK    1  A    between atoms: C_1  and  C_2
REMARK    2  A    between atoms: C_2  and  O_3
REMARK    3  A    between atoms: O_3  and  C_4
REMARK    4  A    between atoms: C_7  and  N_8
REMARK    5  A    between atoms: C_9  and  C_11
REMARK    6  A    between atoms: C_11  and  N_12
REMARK    7  A    between atoms: N_15  and  C_16
REMARK    8  A    between atoms: C_16  and  C_17
REMARK                            x       y       z     vdW  Elec       q    Type
REMARK                         _______ _______ _______ _____ _____    ______ ____
ROOT
ATOM      1  N   UNL     1      -0.503  11.434  19.827  0.00  0.00    +0.000 N 
ATOM      2  C   UNL     1      -0.277  11.953  21.122  0.00  0.00    +0.000 A 
ATOM      3  O   UNL     1       0.872  12.008  21.580  0.00  0.00    +0.000 OA
ATOM      4  N   UNL     1      -1.370  12.438  21.837  0.00  0.00    +0.000 N 
ATOM      5  C   UNL     1      -2.615  12.661  21.272  0.00  0.00    +0.000 A 
ATOM      6  O   UNL     1      -3.488  13.332  21.836  0.00  0.00    +0.000 OA
ATOM      7  C   UNL     1      -2.786  12.101  19.967  0.00  0.00    +0.000 A 
ATOM      8  S   UNL     1      -4.243  12.293  19.161  0.00  0.00    +0.000 S 
ATOM      9  C   UNL     1      -3.655  11.466  17.790  0.00  0.00    +0.000 A 
ATOM     10  C   UNL     1      -4.387  11.303  16.596  0.00  0.00    +0.000 A 
ATOM     11  C   UNL     1      -3.884  10.478  15.605  0.00  0.00    +0.000 A 
ATOM     12  C   UNL     1      -2.680   9.823  15.810  0.00  0.00    +0.000 A 
ATOM     13  C   UNL     1      -1.909  10.058  16.972  0.00  0.00    +0.000 A 
ATOM     14  C   UNL     1      -2.367  10.938  17.997  0.00  0.00    +0.000 A 
ATOM     15  C   UNL     1      -1.804  11.451  19.257  0.00  0.00    +0.000 A 
ENDROOT
BRANCH   1  16
ATOM     16  C   UNL     1       0.721  11.096  19.096  0.00  0.00    +0.000 C 
BRANCH  16  18
ATOM     17  N   UNL     1       2.058   9.132  18.398  0.00  0.00    +0.000 N 
ATOM     18  C   UNL     1       1.120   9.635  19.301  0.00  0.00    +0.000 C 
ATOM     19  O   UNL     1       0.638   9.027  20.251  0.00  0.00    +0.000 OA
ATOM     20  H   UNL     1       2.447   9.783  17.718  0.00  0.00    +0.000 HD
BRANCH  17  24
ATOM     21  C   UNL     1       3.637   5.180  18.503  0.00  0.00    +0.000 A 
ATOM     22  C   UNL     1       4.030   6.069  17.507  0.00  0.00    +0.000 A 
ATOM     23  C   UNL     1       3.543   7.376  17.489  0.00  0.00    +0.000 A 
ATOM     24  C   UNL     1       2.626   7.827  18.436  0.00  0.00    +0.000 A 
ATOM     25  C   UNL     1       2.243   6.930  19.449  0.00  0.00    +0.000 A 
ATOM     26  C   UNL     1       2.742   5.613  19.474  0.00  0.00    +0.000 A 
BRANCH  21  27
ATOM     27  O   UNL     1       4.187   3.934  18.377  0.00  0.00    +0.000 OA
BRANCH  27  29
ATOM     28  C   UNL     1       2.630   2.222  17.844  0.00  0.00    +0.000 C 
ATOM     29  C   UNL     1       3.474   2.841  18.950  0.00  0.00    +0.000 C 
ENDBRANCH  27  29
ENDBRANCH  21  27
ENDBRANCH  17  24
ENDBRANCH  16  18
ENDBRANCH   1  16
BRANCH   4  30
ATOM     30  C   UNL     1      -1.139  13.049  23.136  0.00  0.00    +0.000 C 
BRANCH  30  31
ATOM     31  C   UNL     1      -0.979  14.552  23.118  0.00  0.00    +0.000 A 
ATOM     32  C   UNL     1      -0.106  15.149  22.196  0.00  0.00    +0.000 A 
ATOM     33  C   UNL     1      -0.074  16.535  22.044  0.00  0.00    +0.000 A 
ATOM     34  C   UNL     1      -0.904  17.342  22.819  0.00  0.00    +0.000 A 
ATOM     35  C   UNL     1      -1.739  16.764  23.775  0.00  0.00    +0.000 A 
ATOM     36  C   UNL     1      -1.769  15.375  23.932  0.00  0.00    +0.000 A 
ENDBRANCH  30  31
ENDBRANCH   4  30
TORSDOF 7
ENDMDL
MODEL 9
REMARK VINA RESULT:      -7.3      4.497     11.317
REMARK  Name = 
REMARK  8 active torsions:
REMARK  status: ('A' for Active; 'I' for Inactive)
REMARK    1  A    between atoms: C_1  and  C_2
REMARK    2  A    between atoms: C_2  and  O_3
REMARK    3  A    between atoms: O_3  and  C_4
REMARK    4  A    between atoms: C_7  and  N_8
REMARK    5  A    between atoms: C_9  and  C_11
REMARK    6  A    between atoms: C_11  and  N_12
REMARK    7  A    between atoms: N_15  and  C_16
REMARK    8  A    between atoms: C_16  and  C_17
REMARK                            x       y       z     vdW  Elec       q    Type
REMARK                         _______ _______ _______ _____ _____    ______ ____
ROOT
ATOM      1  N   UNL     1      -0.664  12.592  19.841  0.00  0.00    +0.000 N 
ATOM      2  C   UNL     1      -0.435  12.996  21.176  0.00  0.00    +0.000 A 
ATOM      3  O   UNL     1       0.681  13.409  21.519  0.00  0.00    +0.000 OA
ATOM      4  N   UNL     1      -1.503  12.959  22.068  0.00  0.00    +0.000 N 
ATOM      5  C   UNL     1      -2.820  12.781  21.678  0.00  0.00    +0.000 A 
ATOM      6  O   UNL     1      -3.773  13.014  22.431  0.00  0.00    +0.000 OA
ATOM      7  C   UNL     1      -2.986  12.359  20.321  0.00  0.00    +0.000 A 
ATOM      8  S   UNL     1      -4.526  12.104  19.710  0.00  0.00    +0.000 S 
ATOM      9  C   UNL     1      -3.909  11.721  18.166  0.00  0.00    +0.000 A 
ATOM     10  C   UNL     1      -4.714  11.449  17.042  0.00  0.00    +0.000 A 
ATOM     11  C   UNL     1      -4.117  10.991  15.881  0.00  0.00    +0.000 A 
ATOM     12  C   UNL     1      -2.744  10.799  15.850  0.00  0.00    +0.000 A 
ATOM     13  C   UNL     1      -1.932  11.156  16.952  0.00  0.00    +0.000 A 
ATOM     14  C   UNL     1      -2.502  11.678  18.151  0.00  0.00    +0.000 A 
ATOM     15  C   UNL     1      -1.963  12.203  19.417  0.00  0.00    +0.000 A 
ENDROOT
BRANCH   1  16
ATOM     16  C   UNL     1       0.473  12.814  18.945  0.00  0.00    +0.000 C 
BRANCH  16  18
ATOM     17  N   UNL     1       0.812  10.393  19.341  0.00  0.00    +0.000 N 
ATOM     18  C   UNL     1       1.356  11.572  18.830  0.00  0.00    +0.000 C 
ATOM     19  O   UNL     1       2.442  11.679  18.268  0.00  0.00    +0.000 OA
ATOM     20  H   UNL     1      -0.143  10.433  19.692  0.00  0.00    +0.000 HD
BRANCH  17  24
ATOM     21  C   UNL     1       2.523   6.497  19.200  0.00  0.00    +0.000 A 
ATOM     22  C   UNL     1       2.528   7.310  18.070  0.00  0.00    +0.000 A 
ATOM     23  C   UNL     1       2.000   8.601  18.121  0.00  0.00    +0.000 A 
ATOM     24  C   UNL     1       1.422   9.108  19.283  0.00  0.00    +0.000 A 
ATOM     25  C   UNL     1       1.433   8.289  20.426  0.00  0.00    +0.000 A 
ATOM     26  C   UNL     1       1.974   6.989  20.378  0.00  0.00    +0.000 A 
BRANCH  21  27
ATOM     27  O   UNL     1       3.060   5.258  18.988  0.00  0.00    +0.000 OA
BRANCH  27  29
ATOM     28  C   UNL     1       1.418   3.767  18.139  0.00  0.00    +0.000 C 
ATOM     29  C   UNL     1       2.269   4.129  19.349  0.00  0.00    +0.000 C 
ENDBRANCH  27  29
ENDBRANCH  21  27
ENDBRANCH  17  24
ENDBRANCH  16  18
ENDBRANCH   1  16
BRANCH   4  30
ATOM     30  C   UNL     1      -1.300  13.450  23.422  0.00  0.00    +0.000 C 
BRANCH  30  31
ATOM     31  C   UNL     1      -1.735  14.879  23.658  0.00  0.00    +0.000 A 
ATOM     32  C   UNL     1      -2.489  15.198  24.797  0.00  0.00    +0.000 A 
ATOM     33  C   UNL     1      -2.750  16.528  25.125  0.00  0.00    +0.000 A 
ATOM     34  C   UNL     1      -2.272  17.554  24.313  0.00  0.00    +0.000 A 
ATOM     35  C   UNL     1      -1.564  17.248  23.150  0.00  0.00    +0.000 A 
ATOM     36  C   UNL     1      -1.306  15.915  22.818  0.00  0.00    +0.000 A 
ENDBRANCH  30  31
ENDBRANCH   4  30
TORSDOF 7
ENDMDL
