MODEL 1
REMARK VINA RESULT:      -7.7      0.000      0.000
REMARK  Name = 
REMARK  2 active torsions:
REMARK  status: ('A' for Active; 'I' for Inactive)
REMARK    1  A    between atoms: C_7  and  N_8
REMARK    2  A    between atoms: C_16  and  C_17
REMARK                            x       y       z     vdW  Elec       q    Type
REMARK                         _______ _______ _______ _____ _____    ______ ____
ROOT
ATOM      1  F   UNL     1       7.545   3.295  11.441  0.00  0.00    +0.000 F 
ATOM      2  C   UNL     1       6.603   3.884  12.210  0.00  0.00    +0.000 C 
ATOM      3  C   UNL     1       6.146   3.112  13.458  0.00  0.00    +0.000 C 
ATOM      4  N   UNL     1       6.142   4.375  14.127  0.00  0.00    +0.000 N 
ATOM      5  C   UNL     1       5.887   4.679  15.473  0.00  0.00    +0.000 A 
ATOM      6  C   UNL     1       5.026   3.866  16.174  0.00  0.00    +0.000 A 
ATOM      7  C   UNL     1       4.719   4.187  17.477  0.00  0.00    +0.000 A 
ATOM      8  N   UNL     1       5.240   5.288  18.036  0.00  0.00    +0.000 NA
ATOM      9  C   UNL     1       6.101   6.033  17.314  0.00  0.00    +0.000 A 
ATOM     10  N   UNL     1       6.430   5.765  16.031  0.00  0.00    +0.000 NA
ATOM     11  C   UNL     1       7.067   4.959  13.211  0.00  0.00    +0.000 C 
ENDROOT
BRANCH   7  12
ATOM     12  N   UNL     1       3.869   3.369  18.219  0.00  0.00    +0.000 N 
ATOM     13  C   UNL     1       2.580   3.008  17.642  0.00  0.00    +0.000 C 
ATOM     14  C   UNL     1       1.471   3.949  18.099  0.00  0.00    +0.000 C 
ATOM     15  C   UNL     1       0.996   3.703  19.529  0.00  0.00    +0.000 C 
ATOM     16  C   UNL     1       2.082   3.817  20.596  0.00  0.00    +0.000 C 
ATOM     17  C   UNL     1       3.110   2.690  20.518  0.00  0.00    +0.000 C 
ATOM     18  C   UNL     1       4.263   2.971  19.562  0.00  0.00    +0.000 C 
ENDBRANCH   7  12
BRANCH   9  19
ATOM     19  C   UNL     1       6.731   7.232  17.984  0.00  0.00    +0.000 C 
ATOM     20  C   UNL     1       8.138   7.137  18.533  0.00  0.00    +0.000 C 
ATOM     21  C   UNL     1       7.872   7.971  17.318  0.00  0.00    +0.000 C 
ENDBRANCH   9  19
TORSDOF 2
ENDMDL
MODEL 2
REMARK VINA RESULT:      -7.5      1.026      1.227
REMARK  Name = 
REMARK  2 active torsions:
REMARK  status: ('A' for Active; 'I' for Inactive)
REMARK    1  A    between atoms: C_7  and  N_8
REMARK    2  A    between atoms: C_16  and  C_17
REMARK                            x       y       z     vdW  Elec       q    Type
REMARK                         _______ _______ _______ _____ _____    ______ ____
ROOT
ATOM      1  F   UNL     1       7.433   3.583  11.011  0.00  0.00    +0.000 F 
ATOM      2  C   UNL     1       6.808   4.276  11.989  0.00  0.00    +0.000 C 
ATOM      3  C   UNL     1       5.940   3.465  12.964  0.00  0.00    +0.000 C 
ATOM      4  N   UNL     1       6.463   4.310  13.991  0.00  0.00    +0.000 N 
ATOM      5  C   UNL     1       6.263   4.269  15.379  0.00  0.00    +0.000 A 
ATOM      6  C   UNL     1       5.066   3.781  15.852  0.00  0.00    +0.000 A 
ATOM      7  C   UNL     1       4.831   3.790  17.208  0.00  0.00    +0.000 A 
ATOM      8  N   UNL     1       5.752   4.291  18.043  0.00  0.00    +0.000 NA
ATOM      9  C   UNL     1       6.920   4.730  17.530  0.00  0.00    +0.000 A 
ATOM     10  N   UNL     1       7.196   4.747  16.207  0.00  0.00    +0.000 NA
ATOM     11  C   UNL     1       7.629   4.646  13.239  0.00  0.00    +0.000 C 
ENDROOT
BRANCH   7  12
ATOM     12  N   UNL     1       3.639   3.280  17.717  0.00  0.00    +0.000 N 
ATOM     13  C   UNL     1       2.393   3.941  17.352  0.00  0.00    +0.000 C 
ATOM     14  C   UNL     1       1.969   4.969  18.397  0.00  0.00    +0.000 C 
ATOM     15  C   UNL     1       1.374   4.358  19.664  0.00  0.00    +0.000 C 
ATOM     16  C   UNL     1       2.293   3.390  20.404  0.00  0.00    +0.000 C 
ATOM     17  C   UNL     1       2.529   2.091  19.635  0.00  0.00    +0.000 C 
ATOM     18  C   UNL     1       3.687   2.162  18.646  0.00  0.00    +0.000 C 
ENDBRANCH   7  12
BRANCH   9  19
ATOM     19  C   UNL     1       7.972   5.227  18.493  0.00  0.00    +0.000 C 
ATOM     20  C   UNL     1       8.090   6.708  18.784  0.00  0.00    +0.000 C 
ATOM     21  C   UNL     1       7.574   5.783  19.843  0.00  0.00    +0.000 C 
ENDBRANCH   9  19
TORSDOF 2
ENDMDL
MODEL 3
REMARK VINA RESULT:      -7.4      1.046      1.359
REMARK  Name = 
REMARK  2 active torsions:
REMARK  status: ('A' for Active; 'I' for Inactive)
REMARK    1  A    between atoms: C_7  and  N_8
REMARK    2  A    between atoms: C_16  and  C_17
REMARK                            x       y       z     vdW  Elec       q    Type
REMARK                         _______ _______ _______ _____ _____    ______ ____
ROOT
ATOM      1  F   UNL     1       7.329   3.243  11.781  0.00  0.00    +0.000 F 
ATOM      2  C   UNL     1       6.554   4.063  12.525  0.00  0.00    +0.000 C 
ATOM      3  C   UNL     1       5.581   3.393  13.507  0.00  0.00    +0.000 C 
ATOM      4  N   UNL     1       5.931   4.432  14.424  0.00  0.00    +0.000 N 
ATOM      5  C   UNL     1       5.540   4.626  15.757  0.00  0.00    +0.000 A 
ATOM      6  C   UNL     1       4.303   4.165  16.147  0.00  0.00    +0.000 A 
ATOM      7  C   UNL     1       3.880   4.401  17.436  0.00  0.00    +0.000 A 
ATOM      8  N   UNL     1       4.661   5.090  18.281  0.00  0.00    +0.000 NA
ATOM      9  C   UNL     1       5.876   5.493  17.856  0.00  0.00    +0.000 A 
ATOM     10  N   UNL     1       6.334   5.291  16.601  0.00  0.00    +0.000 NA
ATOM     11  C   UNL     1       7.181   4.691  13.784  0.00  0.00    +0.000 C 
ENDROOT
BRANCH   7  12
ATOM     12  N   UNL     1       2.644   3.926  17.866  0.00  0.00    +0.000 N 
ATOM     13  C   UNL     1       1.677   4.885  18.387  0.00  0.00    +0.000 C 
ATOM     14  C   UNL     1       1.750   4.997  19.906  0.00  0.00    +0.000 C 
ATOM     15  C   UNL     1       1.111   3.823  20.646  0.00  0.00    +0.000 C 
ATOM     16  C   UNL     1       1.704   2.455  20.315  0.00  0.00    +0.000 C 
ATOM     17  C   UNL     1       1.390   2.002  18.891  0.00  0.00    +0.000 C 
ATOM     18  C   UNL     1       2.392   2.493  17.853  0.00  0.00    +0.000 C 
ENDBRANCH   7  12
BRANCH   9  19
ATOM     19  C   UNL     1       6.768   6.207  18.844  0.00  0.00    +0.000 C 
ATOM     20  C   UNL     1       8.110   5.613  19.215  0.00  0.00    +0.000 C 
ATOM     21  C   UNL     1       8.056   6.856  18.383  0.00  0.00    +0.000 C 
ENDBRANCH   9  19
TORSDOF 2
ENDMDL
MODEL 4
REMARK VINA RESULT:      -7.4      3.755      6.762
REMARK  Name = 
REMARK  2 active torsions:
REMARK  status: ('A' for Active; 'I' for Inactive)
REMARK    1  A    between atoms: C_7  and  N_8
REMARK    2  A    between atoms: C_16  and  C_17
REMARK                            x       y       z     vdW  Elec       q    Type
REMARK                         _______ _______ _______ _____ _____    ______ ____
ROOT
ATOM      1  F   UNL     1       1.480  11.160  18.585  0.00  0.00    +0.000 F 
ATOM      2  C   UNL     1       1.376   9.862  18.223  0.00  0.00    +0.000 C 
ATOM      3  C   UNL     1       2.690   9.110  17.960  0.00  0.00    +0.000 C 
ATOM      4  N   UNL     1       2.083   8.000  18.626  0.00  0.00    +0.000 N 
ATOM      5  C   UNL     1       2.618   6.746  18.954  0.00  0.00    +0.000 A 
ATOM      6  C   UNL     1       3.598   6.221  18.142  0.00  0.00    +0.000 A 
ATOM      7  C   UNL     1       4.090   4.965  18.417  0.00  0.00    +0.000 A 
ATOM      8  N   UNL     1       3.597   4.265  19.448  0.00  0.00    +0.000 NA
ATOM      9  C   UNL     1       2.659   4.837  20.229  0.00  0.00    +0.000 A 
ATOM     10  N   UNL     1       2.140   6.063  19.998  0.00  0.00    +0.000 NA
ATOM     11  C   UNL     1       1.162   8.824  19.341  0.00  0.00    +0.000 C 
ENDROOT
BRANCH   7  12
ATOM     12  N   UNL     1       5.099   4.419  17.628  0.00  0.00    +0.000 N 
ATOM     13  C   UNL     1       6.484   4.687  17.994  0.00  0.00    +0.000 C 
ATOM     14  C   UNL     1       7.049   5.886  17.239  0.00  0.00    +0.000 C 
ATOM     15  C   UNL     1       7.401   5.593  15.782  0.00  0.00    +0.000 C 
ATOM     16  C   UNL     1       6.239   5.092  14.927  0.00  0.00    +0.000 C 
ATOM     17  C   UNL     1       5.778   3.690  15.318  0.00  0.00    +0.000 C 
ATOM     18  C   UNL     1       4.738   3.672  16.433  0.00  0.00    +0.000 C 
ENDBRANCH   7  12
BRANCH   9  19
ATOM     19  C   UNL     1       2.165   4.059  21.426  0.00  0.00    +0.000 C 
ATOM     20  C   UNL     1       1.171   2.933  21.237  0.00  0.00    +0.000 C 
ATOM     21  C   UNL     1       2.582   2.617  21.628  0.00  0.00    +0.000 C 
ENDBRANCH   9  19
TORSDOF 2
ENDMDL
MODEL 5
REMARK VINA RESULT:      -7.2      1.071      1.741
REMARK  Name = 
REMARK  2 active torsions:
REMARK  status: ('A' for Active; 'I' for Inactive)
REMARK    1  A    between atoms: C_7  and  N_8
REMARK    2  A    between atoms: C_16  and  C_17
REMARK                            x       y       z     vdW  Elec       q    Type
REMARK                         _______ _______ _______ _____ _____    ______ ____
ROOT
ATOM      1  F   UNL     1       6.668   2.414  11.474  0.00  0.00    +0.000 F 
ATOM      2  C   UNL     1       6.098   3.417  12.178  0.00  0.00    +0.000 C 
ATOM      3  C   UNL     1       5.528   3.057  13.559  0.00  0.00    +0.000 C 
ATOM      4  N   UNL     1       6.062   4.305  14.006  0.00  0.00    +0.000 N 
ATOM      5  C   UNL     1       6.085   4.865  15.292  0.00  0.00    +0.000 A 
ATOM      6  C   UNL     1       5.067   4.546  16.162  0.00  0.00    +0.000 A 
ATOM      7  C   UNL     1       5.044   5.135  17.406  0.00  0.00    +0.000 A 
ATOM      8  N   UNL     1       5.991   6.021  17.745  0.00  0.00    +0.000 NA
ATOM      9  C   UNL     1       6.982   6.275  16.866  0.00  0.00    +0.000 A 
ATOM     10  N   UNL     1       7.047   5.728  15.632  0.00  0.00    +0.000 NA
ATOM     11  C   UNL     1       7.032   4.361  12.960  0.00  0.00    +0.000 C 
ENDROOT
BRANCH   7  12
ATOM     12  N   UNL     1       4.039   4.813  18.315  0.00  0.00    +0.000 N 
ATOM     13  C   UNL     1       4.346   3.863  19.377  0.00  0.00    +0.000 C 
ATOM     14  C   UNL     1       3.950   2.440  18.998  0.00  0.00    +0.000 C 
ATOM     15  C   UNL     1       2.449   2.171  19.075  0.00  0.00    +0.000 C 
ATOM     16  C   UNL     1       1.588   3.075  18.196  0.00  0.00    +0.000 C 
ATOM     17  C   UNL     1       1.567   4.524  18.677  0.00  0.00    +0.000 C 
ATOM     18  C   UNL     1       2.709   5.372  18.128  0.00  0.00    +0.000 C 
ENDBRANCH   7  12
BRANCH   9  19
ATOM     19  C   UNL     1       8.078   7.224  17.293  0.00  0.00    +0.000 C 
ATOM     20  C   UNL     1       7.732   8.638  17.707  0.00  0.00    +0.000 C 
ATOM     21  C   UNL     1       8.196   7.657  18.739  0.00  0.00    +0.000 C 
ENDBRANCH   9  19
TORSDOF 2
ENDMDL
MODEL 6
REMARK VINA RESULT:      -7.0      1.060      1.166
REMARK  Name = 
REMARK  2 active torsions:
REMARK  status: ('A' for Active; 'I' for Inactive)
REMARK    1  A    between atoms: C_7  and  N_8
REMARK    2  A    between atoms: C_16  and  C_17
REMARK                            x       y       z     vdW  Elec       q    Type
REMARK                         _______ _______ _______ _____ _____    ______ ____
ROOT
ATOM      1  F   UNL     1       7.028   3.560  12.060  0.00  0.00    +0.000 F 
ATOM      2  C   UNL     1       6.225   4.132  12.984  0.00  0.00    +0.000 C 
ATOM      3  C   UNL     1       5.639   3.206  14.061  0.00  0.00    +0.000 C 
ATOM      4  N   UNL     1       5.887   4.270  14.983  0.00  0.00    +0.000 N 
ATOM      5  C   UNL     1       5.709   4.315  16.374  0.00  0.00    +0.000 A 
ATOM      6  C   UNL     1       4.713   3.545  16.930  0.00  0.00    +0.000 A 
ATOM      7  C   UNL     1       4.487   3.625  18.286  0.00  0.00    +0.000 A 
ATOM      8  N   UNL     1       5.218   4.460  19.038  0.00  0.00    +0.000 NA
ATOM      9  C   UNL     1       6.200   5.170  18.447  0.00  0.00    +0.000 A 
ATOM     10  N   UNL     1       6.458   5.132  17.121  0.00  0.00    +0.000 NA
ATOM     11  C   UNL     1       6.899   4.857  14.165  0.00  0.00    +0.000 C 
ENDROOT
BRANCH   7  12
ATOM     12  N   UNL     1       3.503   2.839  18.880  0.00  0.00    +0.000 N 
ATOM     13  C   UNL     1       2.431   2.320  18.039  0.00  0.00    +0.000 C 
ATOM     14  C   UNL     1       1.204   3.225  18.062  0.00  0.00    +0.000 C 
ATOM     15  C   UNL     1       0.372   3.111  19.338  0.00  0.00    +0.000 C 
ATOM     16  C   UNL     1       1.127   3.427  20.627  0.00  0.00    +0.000 C 
ATOM     17  C   UNL     1       2.181   2.376  20.969  0.00  0.00    +0.000 C 
ATOM     18  C   UNL     1       3.537   2.629  20.319  0.00  0.00    +0.000 C 
ENDBRANCH   7  12
BRANCH   9  19
ATOM     19  C   UNL     1       7.056   6.054  19.323  0.00  0.00    +0.000 C 
ATOM     20  C   UNL     1       8.486   5.659  19.626  0.00  0.00    +0.000 C 
ATOM     21  C   UNL     1       8.215   6.829  18.731  0.00  0.00    +0.000 C 
ENDBRANCH   9  19
TORSDOF 2
ENDMDL
MODEL 7
REMARK VINA RESULT:      -7.0      4.275      6.987
REMARK  Name = 
REMARK  2 active torsions:
REMARK  status: ('A' for Active; 'I' for Inactive)
REMARK    1  A    between atoms: C_7  and  N_8
REMARK    2  A    between atoms: C_16  and  C_17
REMARK                            x       y       z     vdW  Elec       q    Type
REMARK                         _______ _______ _______ _____ _____    ______ ____
ROOT
ATOM      1  F   UNL     1       0.472  11.886  18.888  0.00  0.00    +0.000 F 
ATOM      2  C   UNL     1       0.644  10.646  18.379  0.00  0.00    +0.000 C 
ATOM      3  C   UNL     1       2.093  10.164  18.205  0.00  0.00    +0.000 C 
ATOM      4  N   UNL     1       1.631   8.892  18.664  0.00  0.00    +0.000 N 
ATOM      5  C   UNL     1       2.347   7.714  18.921  0.00  0.00    +0.000 A 
ATOM      6  C   UNL     1       3.487   7.470  18.188  0.00  0.00    +0.000 A 
ATOM      7  C   UNL     1       4.166   6.289  18.386  0.00  0.00    +0.000 A 
ATOM      8  N   UNL     1       3.702   5.389  19.265  0.00  0.00    +0.000 NA
ATOM      9  C   UNL     1       2.598   5.691  19.977  0.00  0.00    +0.000 A 
ATOM     10  N   UNL     1       1.893   6.832  19.817  0.00  0.00    +0.000 NA
ATOM     11  C   UNL     1       0.505   9.451  19.342  0.00  0.00    +0.000 C 
ENDROOT
BRANCH   7  12
ATOM     12  N   UNL     1       5.335   6.026  17.677  0.00  0.00    +0.000 N 
ATOM     13  C   UNL     1       5.625   6.832  16.498  0.00  0.00    +0.000 C 
ATOM     14  C   UNL     1       5.136   6.162  15.218  0.00  0.00    +0.000 C 
ATOM     15  C   UNL     1       6.015   5.004  14.748  0.00  0.00    +0.000 C 
ATOM     16  C   UNL     1       6.179   3.871  15.757  0.00  0.00    +0.000 C 
ATOM     17  C   UNL     1       7.003   4.278  16.977  0.00  0.00    +0.000 C 
ATOM     18  C   UNL     1       6.181   4.917  18.091  0.00  0.00    +0.000 C 
ENDBRANCH   7  12
BRANCH   9  19
ATOM     19  C   UNL     1       2.130   4.694  21.011  0.00  0.00    +0.000 C 
ATOM     20  C   UNL     1       1.107   3.642  20.638  0.00  0.00    +0.000 C 
ATOM     21  C   UNL     1       2.524   3.236  20.904  0.00  0.00    +0.000 C 
ENDBRANCH   9  19
TORSDOF 2
ENDMDL
MODEL 8
REMARK VINA RESULT:      -6.9      4.536      7.207
REMARK  Name = 
REMARK  2 active torsions:
REMARK  status: ('A' for Active; 'I' for Inactive)
REMARK    1  A    between atoms: C_7  and  N_8
REMARK    2  A    between atoms: C_16  and  C_17
REMARK                            x       y       z     vdW  Elec       q    Type
REMARK                         _______ _______ _______ _____ _____    ______ ____
ROOT
ATOM      1  F   UNL     1       0.159  12.170  19.431  0.00  0.00    +0.000 F 
ATOM      2  C   UNL     1       0.298  10.981  18.805  0.00  0.00    +0.000 C 
ATOM      3  C   UNL     1       1.728  10.560  18.429  0.00  0.00    +0.000 C 
ATOM      4  N   UNL     1       1.349   9.242  18.832  0.00  0.00    +0.000 N 
ATOM      5  C   UNL     1       2.116   8.070  18.908  0.00  0.00    +0.000 A 
ATOM      6  C   UNL     1       3.169   7.920  18.034  0.00  0.00    +0.000 A 
ATOM      7  C   UNL     1       3.893   6.749  18.056  0.00  0.00    +0.000 A 
ATOM      8  N   UNL     1       3.553   5.769  18.904  0.00  0.00    +0.000 NA
ATOM      9  C   UNL     1       2.531   5.978  19.758  0.00  0.00    +0.000 A 
ATOM     10  N   UNL     1       1.787   7.106  19.773  0.00  0.00    +0.000 NA
ATOM     11  C   UNL     1       0.297   9.710  19.675  0.00  0.00    +0.000 C 
ENDROOT
BRANCH   7  12
ATOM     12  N   UNL     1       4.978   6.580  17.201  0.00  0.00    +0.000 N 
ATOM     13  C   UNL     1       4.750   5.942  15.910  0.00  0.00    +0.000 C 
ATOM     14  C   UNL     1       5.027   4.443  15.961  0.00  0.00    +0.000 C 
ATOM     15  C   UNL     1       6.513   4.087  15.970  0.00  0.00    +0.000 C 
ATOM     16  C   UNL     1       7.310   4.682  17.128  0.00  0.00    +0.000 C 
ATOM     17  C   UNL     1       7.458   6.199  17.027  0.00  0.00    +0.000 C 
ATOM     18  C   UNL     1       6.304   6.974  17.653  0.00  0.00    +0.000 C 
ENDBRANCH   7  12
BRANCH   9  19
ATOM     19  C   UNL     1       2.207   4.888  20.753  0.00  0.00    +0.000 C 
ATOM     20  C   UNL     1       1.105   3.894  20.451  0.00  0.00    +0.000 C 
ATOM     21  C   UNL     1       2.534   3.443  20.440  0.00  0.00    +0.000 C 
ENDBRANCH   9  19
TORSDOF 2
ENDMDL
MODEL 9
REMARK VINA RESULT:      -6.9      3.634      5.583
REMARK  Name = 
REMARK  2 active torsions:
REMARK  status: ('A' for Active; 'I' for Inactive)
REMARK    1  A    between atoms: C_7  and  N_8
REMARK    2  A    between atoms: C_16  and  C_17
REMARK                            x       y       z     vdW  Elec       q    Type
REMARK                         _______ _______ _______ _____ _____    ______ ____
ROOT
ATOM      1  F   UNL     1       6.685   4.720  14.324  0.00  0.00    +0.000 F 
ATOM      2  C   UNL     1       6.429   5.006  15.620  0.00  0.00    +0.000 C 
ATOM      3  C   UNL     1       5.422   6.134  15.894  0.00  0.00    +0.000 C 
ATOM      4  N   UNL     1       4.924   5.312  16.951  0.00  0.00    +0.000 N 
ATOM      5  C   UNL     1       3.836   5.515  17.813  0.00  0.00    +0.000 A 
ATOM      6  C   UNL     1       3.488   6.809  18.131  0.00  0.00    +0.000 A 
ATOM      7  C   UNL     1       2.461   7.022  19.023  0.00  0.00    +0.000 A 
ATOM      8  N   UNL     1       1.833   5.979  19.583  0.00  0.00    +0.000 NA
ATOM      9  C   UNL     1       2.194   4.733  19.214  0.00  0.00    +0.000 A 
ATOM     10  N   UNL     1       3.197   4.470  18.348  0.00  0.00    +0.000 NA
ATOM     11  C   UNL     1       5.421   4.110  16.364  0.00  0.00    +0.000 C 
ENDROOT
BRANCH   7  12
ATOM     12  N   UNL     1       2.071   8.320  19.345  0.00  0.00    +0.000 N 
ATOM     13  C   UNL     1       1.831   8.642  20.746  0.00  0.00    +0.000 C 
ATOM     14  C   UNL     1       0.358   8.502  21.117  0.00  0.00    +0.000 C 
ATOM     15  C   UNL     1      -0.520   9.646  20.615  0.00  0.00    +0.000 C 
ATOM     16  C   UNL     1      -0.505   9.853  19.102  0.00  0.00    +0.000 C 
ATOM     17  C   UNL     1       0.836  10.376  18.589  0.00  0.00    +0.000 C 
ATOM     18  C   UNL     1       1.846   9.278  18.274  0.00  0.00    +0.000 C 
ENDBRANCH   7  12
BRANCH   9  19
ATOM     19  C   UNL     1       1.428   3.572  19.804  0.00  0.00    +0.000 C 
ATOM     20  C   UNL     1       0.610   2.671  18.903  0.00  0.00    +0.000 C 
ATOM     21  C   UNL     1       1.865   2.149  19.532  0.00  0.00    +0.000 C 
ENDBRANCH   9  19
TORSDOF 2
ENDMDL
