MODEL 1
REMARK VINA RESULT:      -6.9      0.000      0.000
REMARK  Name = 
REMARK  4 active torsions:
REMARK  status: ('A' for Active; 'I' for Inactive)
REMARK    1  A    between atoms: C_1  and  C_2
REMARK    2  A    between atoms: C_2  and  S_3
REMARK    3  A    between atoms: S_3  and  C_4
REMARK    4  A    between atoms: N_6  and  C_7
REMARK                            x       y       z     vdW  Elec       q    Type
REMARK                         _______ _______ _______ _____ _____    ______ ____
ROOT
ATOM      1  C   UNL     1       4.653   4.932  18.296  0.00  0.00    +0.000 C 
ATOM      2  C   UNL     1       4.790   3.900  17.149  0.00  0.00    +0.000 C 
ATOM      3  C   UNL     1       5.849   4.358  16.130  0.00  0.00    +0.000 C 
ATOM      4  C   UNL     1       5.427   5.708  15.529  0.00  0.00    +0.000 C 
ATOM      5  C   UNL     1       5.295   6.760  16.644  0.00  0.00    +0.000 C 
ATOM      6  C   UNL     1       6.650   6.922  17.347  0.00  0.00    +0.000 C 
ATOM      7  C   UNL     1       7.088   5.580  17.955  0.00  0.00    +0.000 C 
ATOM      8  C   UNL     1       7.201   4.524  16.842  0.00  0.00    +0.000 C 
ATOM      9  C   UNL     1       6.034   5.120  18.977  0.00  0.00    +0.000 C 
ATOM     10  C   UNL     1       4.244   6.288  17.664  0.00  0.00    +0.000 C 
ENDROOT
BRANCH   1  13
ATOM     11  C   UNL     1       3.640   3.344  19.949  0.00  0.00    +0.000 C 
ATOM     12  O   UNL     1       4.451   2.440  19.843  0.00  0.00    +0.000 OA
ATOM     13  N   UNL     1       3.633   4.524  19.264  0.00  0.00    +0.000 N 
ATOM     14  H   UNL     1       2.867   5.148  19.481  0.00  0.00    +0.000 HD
BRANCH  11  15
ATOM     15  S   UNL     1       2.296   3.288  21.069  0.00  0.00    +0.000 S 
BRANCH  15  17
ATOM     16  C   UNL     1       0.848   2.445  18.872  0.00  0.00    +0.000 C 
ATOM     17  C   UNL     1       0.959   3.584  19.870  0.00  0.00    +0.000 C 
ENDBRANCH  15  17
ENDBRANCH  11  15
ENDBRANCH   1  13
TORSDOF 3
ENDMDL
MODEL 2
REMARK VINA RESULT:      -6.9      0.117      1.901
REMARK  Name = 
REMARK  4 active torsions:
REMARK  status: ('A' for Active; 'I' for Inactive)
REMARK    1  A    between atoms: C_1  and  C_2
REMARK    2  A    between atoms: C_2  and  S_3
REMARK    3  A    between atoms: S_3  and  C_4
REMARK    4  A    between atoms: N_6  and  C_7
REMARK                            x       y       z     vdW  Elec       q    Type
REMARK                         _______ _______ _______ _____ _____    ______ ____
ROOT
ATOM      1  C   UNL     1       4.665   4.918  18.268  0.00  0.00    +0.000 C 
ATOM      2  C   UNL     1       6.038   5.122  18.957  0.00  0.00    +0.000 C 
ATOM      3  C   UNL     1       7.086   5.618  17.943  0.00  0.00    +0.000 C 
ATOM      4  C   UNL     1       7.246   4.576  16.826  0.00  0.00    +0.000 C 
ATOM      5  C   UNL     1       5.901   4.360  16.112  0.00  0.00    +0.000 C 
ATOM      6  C   UNL     1       5.436   5.688  15.500  0.00  0.00    +0.000 C 
ATOM      7  C   UNL     1       5.269   6.744  16.604  0.00  0.00    +0.000 C 
ATOM      8  C   UNL     1       6.611   6.945  17.330  0.00  0.00    +0.000 C 
ATOM      9  C   UNL     1       4.220   6.254  17.617  0.00  0.00    +0.000 C 
ATOM     10  C   UNL     1       4.857   3.876  17.134  0.00  0.00    +0.000 C 
ENDROOT
BRANCH   1  13
ATOM     11  C   UNL     1       3.788   3.288  19.957  0.00  0.00    +0.000 C 
ATOM     12  O   UNL     1       4.713   2.495  19.932  0.00  0.00    +0.000 OA
ATOM     13  N   UNL     1       3.661   4.424  19.212  0.00  0.00    +0.000 N 
ATOM     14  H   UNL     1       2.811   4.951  19.364  0.00  0.00    +0.000 HD
BRANCH  11  15
ATOM     15  S   UNL     1       2.410   3.107  21.021  0.00  0.00    +0.000 S 
BRANCH  15  17
ATOM     16  C   UNL     1       0.845   2.422  18.849  0.00  0.00    +0.000 C 
ATOM     17  C   UNL     1       1.111   3.553  19.826  0.00  0.00    +0.000 C 
ENDBRANCH  15  17
ENDBRANCH  11  15
ENDBRANCH   1  13
TORSDOF 3
ENDMDL
MODEL 3
REMARK VINA RESULT:      -6.9      0.106      1.872
REMARK  Name = 
REMARK  4 active torsions:
REMARK  status: ('A' for Active; 'I' for Inactive)
REMARK    1  A    between atoms: C_1  and  C_2
REMARK    2  A    between atoms: C_2  and  S_3
REMARK    3  A    between atoms: S_3  and  C_4
REMARK    4  A    between atoms: N_6  and  C_7
REMARK                            x       y       z     vdW  Elec       q    Type
REMARK                         _______ _______ _______ _____ _____    ______ ____
ROOT
ATOM      1  C   UNL     1       4.659   4.896  18.297  0.00  0.00    +0.000 C 
ATOM      2  C   UNL     1       4.238   6.248  17.667  0.00  0.00    +0.000 C 
ATOM      3  C   UNL     1       5.302   6.734  16.665  0.00  0.00    +0.000 C 
ATOM      4  C   UNL     1       6.639   6.927  17.397  0.00  0.00    +0.000 C 
ATOM      5  C   UNL     1       7.091   5.598  18.023  0.00  0.00    +0.000 C 
ATOM      6  C   UNL     1       7.270   4.551  16.914  0.00  0.00    +0.000 C 
ATOM      7  C   UNL     1       5.940   4.344  16.172  0.00  0.00    +0.000 C 
ATOM      8  C   UNL     1       5.479   5.679  15.560  0.00  0.00    +0.000 C 
ATOM      9  C   UNL     1       4.875   3.855  17.168  0.00  0.00    +0.000 C 
ATOM     10  C   UNL     1       6.017   5.113  19.014  0.00  0.00    +0.000 C 
ENDROOT
BRANCH   1  13
ATOM     11  C   UNL     1       3.756   3.259  19.966  0.00  0.00    +0.000 C 
ATOM     12  O   UNL     1       4.626   2.411  19.868  0.00  0.00    +0.000 OA
ATOM     13  N   UNL     1       3.669   4.430  19.270  0.00  0.00    +0.000 N 
ATOM     14  H   UNL     1       2.863   5.003  19.483  0.00  0.00    +0.000 HD
BRANCH  11  15
ATOM     15  S   UNL     1       2.420   3.124  21.089  0.00  0.00    +0.000 S 
BRANCH  15  17
ATOM     16  C   UNL     1       0.881   2.406  18.909  0.00  0.00    +0.000 C 
ATOM     17  C   UNL     1       1.076   3.516  19.926  0.00  0.00    +0.000 C 
ENDBRANCH  15  17
ENDBRANCH  11  15
ENDBRANCH   1  13
TORSDOF 3
ENDMDL
MODEL 4
REMARK VINA RESULT:      -6.8      2.454      5.532
REMARK  Name = 
REMARK  4 active torsions:
REMARK  status: ('A' for Active; 'I' for Inactive)
REMARK    1  A    between atoms: C_1  and  C_2
REMARK    2  A    between atoms: C_2  and  S_3
REMARK    3  A    between atoms: S_3  and  C_4
REMARK    4  A    between atoms: N_6  and  C_7
REMARK                            x       y       z     vdW  Elec       q    Type
REMARK                         _______ _______ _______ _____ _____    ______ ____
ROOT
ATOM      1  C   UNL     1       3.487   4.375  18.747  0.00  0.00    +0.000 C 
ATOM      2  C   UNL     1       3.214   5.035  20.122  0.00  0.00    +0.000 C 
ATOM      3  C   UNL     1       2.169   4.228  20.913  0.00  0.00    +0.000 C 
ATOM      4  C   UNL     1       0.854   4.182  20.120  0.00  0.00    +0.000 C 
ATOM      5  C   UNL     1       1.089   3.519  18.752  0.00  0.00    +0.000 C 
ATOM      6  C   UNL     1       1.599   2.087  18.966  0.00  0.00    +0.000 C 
ATOM      7  C   UNL     1       2.916   2.114  19.758  0.00  0.00    +0.000 C 
ATOM      8  C   UNL     1       2.684   2.794  21.119  0.00  0.00    +0.000 C 
ATOM      9  C   UNL     1       3.964   2.917  18.970  0.00  0.00    +0.000 C 
ATOM     10  C   UNL     1       2.143   4.325  17.973  0.00  0.00    +0.000 C 
ENDROOT
BRANCH   1  13
ATOM     11  C   UNL     1       5.762   5.344  18.335  0.00  0.00    +0.000 C 
ATOM     12  O   UNL     1       6.302   4.964  19.360  0.00  0.00    +0.000 OA
ATOM     13  N   UNL     1       4.462   5.143  17.970  0.00  0.00    +0.000 N 
ATOM     14  H   UNL     1       4.193   5.547  17.082  0.00  0.00    +0.000 HD
BRANCH  11  15
ATOM     15  S   UNL     1       6.608   6.234  17.088  0.00  0.00    +0.000 S 
BRANCH  15  17
ATOM     16  C   UNL     1       7.992   8.515  17.808  0.00  0.00    +0.000 C 
ATOM     17  C   UNL     1       7.842   7.044  18.154  0.00  0.00    +0.000 C 
ENDBRANCH  15  17
ENDBRANCH  11  15
ENDBRANCH   1  13
TORSDOF 3
ENDMDL
MODEL 5
REMARK VINA RESULT:      -6.8      1.582      2.588
REMARK  Name = 
REMARK  4 active torsions:
REMARK  status: ('A' for Active; 'I' for Inactive)
REMARK    1  A    between atoms: C_1  and  C_2
REMARK    2  A    between atoms: C_2  and  S_3
REMARK    3  A    between atoms: S_3  and  C_4
REMARK    4  A    between atoms: N_6  and  C_7
REMARK                            x       y       z     vdW  Elec       q    Type
REMARK                         _______ _______ _______ _____ _____    ______ ____
ROOT
ATOM      1  C   UNL     1       4.310   4.445  17.773  0.00  0.00    +0.000 C 
ATOM      2  C   UNL     1       3.930   5.931  17.556  0.00  0.00    +0.000 C 
ATOM      3  C   UNL     1       5.056   6.677  16.817  0.00  0.00    +0.000 C 
ATOM      4  C   UNL     1       6.342   6.616  17.655  0.00  0.00    +0.000 C 
ATOM      5  C   UNL     1       6.754   5.151  17.877  0.00  0.00    +0.000 C 
ATOM      6  C   UNL     1       7.006   4.485  16.517  0.00  0.00    +0.000 C 
ATOM      7  C   UNL     1       5.728   4.536  15.665  0.00  0.00    +0.000 C 
ATOM      8  C   UNL     1       5.306   6.002  15.458  0.00  0.00    +0.000 C 
ATOM      9  C   UNL     1       4.601   3.789  16.398  0.00  0.00    +0.000 C 
ATOM     10  C   UNL     1       5.619   4.410  18.606  0.00  0.00    +0.000 C 
ENDROOT
BRANCH   1  13
ATOM     11  C   UNL     1       1.962   3.625  18.086  0.00  0.00    +0.000 C 
ATOM     12  O   UNL     1       1.464   4.139  17.099  0.00  0.00    +0.000 OA
ATOM     13  N   UNL     1       3.260   3.725  18.496  0.00  0.00    +0.000 N 
ATOM     14  H   UNL     1       3.483   3.235  19.352  0.00  0.00    +0.000 HD
BRANCH  11  15
ATOM     15  S   UNL     1       1.058   2.605  19.184  0.00  0.00    +0.000 S 
BRANCH  15  17
ATOM     16  C   UNL     1       1.945   2.941  21.779  0.00  0.00    +0.000 C 
ATOM     17  C   UNL     1       1.194   3.651  20.667  0.00  0.00    +0.000 C 
ENDBRANCH  15  17
ENDBRANCH  11  15
ENDBRANCH   1  13
TORSDOF 3
ENDMDL
MODEL 6
REMARK VINA RESULT:      -6.8      2.466      5.343
REMARK  Name = 
REMARK  4 active torsions:
REMARK  status: ('A' for Active; 'I' for Inactive)
REMARK    1  A    between atoms: C_1  and  C_2
REMARK    2  A    between atoms: C_2  and  S_3
REMARK    3  A    between atoms: S_3  and  C_4
REMARK    4  A    between atoms: N_6  and  C_7
REMARK                            x       y       z     vdW  Elec       q    Type
REMARK                         _______ _______ _______ _____ _____    ______ ____
ROOT
ATOM      1  C   UNL     1       4.035   3.661  18.913  0.00  0.00    +0.000 C 
ATOM      2  C   UNL     1       3.429   2.802  17.776  0.00  0.00    +0.000 C 
ATOM      3  C   UNL     1       1.933   2.539  18.033  0.00  0.00    +0.000 C 
ATOM      4  C   UNL     1       1.770   1.784  19.361  0.00  0.00    +0.000 C 
ATOM      5  C   UNL     1       2.351   2.619  20.514  0.00  0.00    +0.000 C 
ATOM      6  C   UNL     1       1.601   3.956  20.598  0.00  0.00    +0.000 C 
ATOM      7  C   UNL     1       1.755   4.726  19.277  0.00  0.00    +0.000 C 
ATOM      8  C   UNL     1       1.189   3.882  18.121  0.00  0.00    +0.000 C 
ATOM      9  C   UNL     1       3.247   4.993  19.019  0.00  0.00    +0.000 C 
ATOM     10  C   UNL     1       3.843   2.887  20.244  0.00  0.00    +0.000 C 
ENDROOT
BRANCH   1  13
ATOM     11  C   UNL     1       5.990   4.530  17.607  0.00  0.00    +0.000 C 
ATOM     12  O   UNL     1       5.381   4.947  16.637  0.00  0.00    +0.000 OA
ATOM     13  N   UNL     1       5.463   3.902  18.698  0.00  0.00    +0.000 N 
ATOM     14  H   UNL     1       6.133   3.616  19.400  0.00  0.00    +0.000 HD
BRANCH  11  15
ATOM     15  S   UNL     1       7.723   4.695  17.784  0.00  0.00    +0.000 S 
BRANCH  15  17
ATOM     16  C   UNL     1       7.671   7.453  17.626  0.00  0.00    +0.000 C 
ATOM     17  C   UNL     1       7.737   6.310  18.623  0.00  0.00    +0.000 C 
ENDBRANCH  15  17
ENDBRANCH  11  15
ENDBRANCH   1  13
TORSDOF 3
ENDMDL
MODEL 7
REMARK VINA RESULT:      -6.8      2.317      5.176
REMARK  Name = 
REMARK  4 active torsions:
REMARK  status: ('A' for Active; 'I' for Inactive)
REMARK    1  A    between atoms: C_1  and  C_2
REMARK    2  A    between atoms: C_2  and  S_3
REMARK    3  A    between atoms: S_3  and  C_4
REMARK    4  A    between atoms: N_6  and  C_7
REMARK                            x       y       z     vdW  Elec       q    Type
REMARK                         _______ _______ _______ _____ _____    ______ ____
ROOT
ATOM      1  C   UNL     1       3.536   4.259  18.575  0.00  0.00    +0.000 C 
ATOM      2  C   UNL     1       3.404   4.970  19.945  0.00  0.00    +0.000 C 
ATOM      3  C   UNL     1       2.329   4.287  20.810  0.00  0.00    +0.000 C 
ATOM      4  C   UNL     1       0.975   4.356  20.088  0.00  0.00    +0.000 C 
ATOM      5  C   UNL     1       1.069   3.645  18.728  0.00  0.00    +0.000 C 
ATOM      6  C   UNL     1       1.447   2.174  18.952  0.00  0.00    +0.000 C 
ATOM      7  C   UNL     1       2.801   2.086  19.673  0.00  0.00    +0.000 C 
ATOM      8  C   UNL     1       2.711   2.814  21.026  0.00  0.00    +0.000 C 
ATOM      9  C   UNL     1       3.879   2.764  18.810  0.00  0.00    +0.000 C 
ATOM     10  C   UNL     1       2.153   4.326  17.874  0.00  0.00    +0.000 C 
ENDROOT
BRANCH   1  13
ATOM     11  C   UNL     1       5.878   4.926  17.984  0.00  0.00    +0.000 C 
ATOM     12  O   UNL     1       6.445   4.452  18.954  0.00  0.00    +0.000 OA
ATOM     13  N   UNL     1       4.538   4.909  17.729  0.00  0.00    +0.000 N 
ATOM     14  H   UNL     1       4.253   5.368  16.873  0.00  0.00    +0.000 HD
BRANCH  11  15
ATOM     15  S   UNL     1       6.731   5.727  16.683  0.00  0.00    +0.000 S 
BRANCH  15  17
ATOM     16  C   UNL     1       6.111   4.099  14.538  0.00  0.00    +0.000 C 
ATOM     17  C   UNL     1       5.594   5.286  15.330  0.00  0.00    +0.000 C 
ENDBRANCH  15  17
ENDBRANCH  11  15
ENDBRANCH   1  13
TORSDOF 3
ENDMDL
MODEL 8
REMARK VINA RESULT:      -6.8      2.472      5.206
REMARK  Name = 
REMARK  4 active torsions:
REMARK  status: ('A' for Active; 'I' for Inactive)
REMARK    1  A    between atoms: C_1  and  C_2
REMARK    2  A    between atoms: C_2  and  S_3
REMARK    3  A    between atoms: S_3  and  C_4
REMARK    4  A    between atoms: N_6  and  C_7
REMARK                            x       y       z     vdW  Elec       q    Type
REMARK                         _______ _______ _______ _____ _____    ______ ____
ROOT
ATOM      1  C   UNL     1       4.247   4.409  18.951  0.00  0.00    +0.000 C 
ATOM      2  C   UNL     1       3.049   5.101  19.649  0.00  0.00    +0.000 C 
ATOM      3  C   UNL     1       1.755   4.297  19.430  0.00  0.00    +0.000 C 
ATOM      4  C   UNL     1       1.461   4.205  17.925  0.00  0.00    +0.000 C 
ATOM      5  C   UNL     1       2.628   3.509  17.204  0.00  0.00    +0.000 C 
ATOM      6  C   UNL     1       2.799   2.093  17.772  0.00  0.00    +0.000 C 
ATOM      7  C   UNL     1       3.094   2.166  19.278  0.00  0.00    +0.000 C 
ATOM      8  C   UNL     1       1.935   2.879  19.996  0.00  0.00    +0.000 C 
ATOM      9  C   UNL     1       4.389   2.965  19.502  0.00  0.00    +0.000 C 
ATOM     10  C   UNL     1       3.920   4.312  17.438  0.00  0.00    +0.000 C 
ENDROOT
BRANCH   1  13
ATOM     11  C   UNL     1       6.603   5.028  18.362  0.00  0.00    +0.000 C 
ATOM     12  O   UNL     1       6.770   4.234  17.453  0.00  0.00    +0.000 OA
ATOM     13  N   UNL     1       5.484   5.172  19.129  0.00  0.00    +0.000 N 
ATOM     14  H   UNL     1       5.538   5.881  19.849  0.00  0.00    +0.000 HD
BRANCH  11  15
ATOM     15  S   UNL     1       7.820   6.189  18.846  0.00  0.00    +0.000 S 
BRANCH  15  17
ATOM     16  C   UNL     1       8.086   8.775  17.911  0.00  0.00    +0.000 C 
ATOM     17  C   UNL     1       7.533   7.414  17.530  0.00  0.00    +0.000 C 
ENDBRANCH  15  17
ENDBRANCH  11  15
ENDBRANCH   1  13
TORSDOF 3
ENDMDL
MODEL 9
REMARK VINA RESULT:      -6.8      2.310      5.238
REMARK  Name = 
REMARK  4 active torsions:
REMARK  status: ('A' for Active; 'I' for Inactive)
REMARK    1  A    between atoms: C_1  and  C_2
REMARK    2  A    between atoms: C_2  and  S_3
REMARK    3  A    between atoms: S_3  and  C_4
REMARK    4  A    between atoms: N_6  and  C_7
REMARK                            x       y       z     vdW  Elec       q    Type
REMARK                         _______ _______ _______ _____ _____    ______ ____
ROOT
ATOM      1  C   UNL     1       3.442   4.364  18.599  0.00  0.00    +0.000 C 
ATOM      2  C   UNL     1       2.053   4.365  17.914  0.00  0.00    +0.000 C 
ATOM      3  C   UNL     1       1.026   3.597  18.766  0.00  0.00    +0.000 C 
ATOM      4  C   UNL     1       1.490   2.142  18.934  0.00  0.00    +0.000 C 
ATOM      5  C   UNL     1       2.864   2.106  19.625  0.00  0.00    +0.000 C 
ATOM      6  C   UNL     1       2.751   2.762  21.008  0.00  0.00    +0.000 C 
ATOM      7  C   UNL     1       2.288   4.220  20.859  0.00  0.00    +0.000 C 
ATOM      8  C   UNL     1       0.922   4.256  20.152  0.00  0.00    +0.000 C 
ATOM      9  C   UNL     1       3.312   4.992  20.011  0.00  0.00    +0.000 C 
ATOM     10  C   UNL     1       3.881   2.886  18.772  0.00  0.00    +0.000 C 
ENDROOT
BRANCH   1  13
ATOM     11  C   UNL     1       5.777   5.092  18.051  0.00  0.00    +0.000 C 
ATOM     12  O   UNL     1       6.347   4.577  18.997  0.00  0.00    +0.000 OA
ATOM     13  N   UNL     1       4.438   5.070  17.790  0.00  0.00    +0.000 N 
ATOM     14  H   UNL     1       4.149   5.569  16.959  0.00  0.00    +0.000 HD
BRANCH  11  15
ATOM     15  S   UNL     1       6.622   5.970  16.796  0.00  0.00    +0.000 S 
BRANCH  15  17
ATOM     16  C   UNL     1       5.951   4.486  14.564  0.00  0.00    +0.000 C 
ATOM     17  C   UNL     1       6.963   4.563  15.692  0.00  0.00    +0.000 C 
ENDBRANCH  15  17
ENDBRANCH  11  15
ENDBRANCH   1  13
TORSDOF 3
ENDMDL
