MODEL 1
REMARK VINA RESULT:      -9.7      0.000      0.000
REMARK  Name = 
REMARK  6 active torsions:
REMARK  status: ('A' for Active; 'I' for Inactive)
REMARK    1  A    between atoms: C_1  and  C_2
REMARK    2  A    between atoms: C_4  and  C_5
REMARK    3  A    between atoms: C_5  and  N_6
REMARK    4  A    between atoms: C_10  and  C_11
REMARK    5  A    between atoms: N_13  and  C_14
REMARK    6  A    between atoms: C_17  and  C_18
REMARK                            x       y       z     vdW  Elec       q    Type
REMARK                         _______ _______ _______ _____ _____    ______ ____
ROOT
ATOM      1  C   UNL     1       2.207   7.249  19.186  0.00  0.00    +0.000 C 
ATOM      2  O   UNL     1       2.329   8.171  18.385  0.00  0.00    +0.000 OA
ATOM      3  N   UNL     1       1.649   7.379  20.452  0.00  0.00    +0.000 N 
ATOM      4  H   UNL     1       1.807   6.631  21.118  0.00  0.00    +0.000 HD
ENDROOT
BRANCH   1   9
ATOM      5  N   UNL     1       4.879   4.642  18.245  0.00  0.00    +0.000 NA
ATOM      6  C   UNL     1       4.743   3.766  19.412  0.00  0.00    +0.000 C 
ATOM      7  C   UNL     1       3.291   3.592  19.846  0.00  0.00    +0.000 C 
ATOM      8  C   UNL     1       2.631   4.942  20.089  0.00  0.00    +0.000 C 
ATOM      9  C   UNL     1       2.738   5.845  18.849  0.00  0.00    +0.000 C 
ATOM     10  C   UNL     1       4.201   5.940  18.387  0.00  0.00    +0.000 C 
BRANCH   5  11
ATOM     11  C   UNL     1       6.299   4.823  17.835  0.00  0.00    +0.000 C 
BRANCH  11  15
ATOM     12  C   UNL     1       6.293   3.671  12.831  0.00  0.00    +0.000 C 
ATOM     13  C   UNL     1       6.486   4.238  14.184  0.00  0.00    +0.000 A 
ATOM     14  C   UNL     1       5.876   3.964  15.386  0.00  0.00    +0.000 A 
ATOM     15  C   UNL     1       6.538   4.777  16.343  0.00  0.00    +0.000 A 
ATOM     16  N   UNL     1       7.451   5.561  15.754  0.00  0.00    +0.000 NA
ATOM     17  N   UNL     1       7.414   5.209  14.460  0.00  0.00    +0.000 N 
ATOM     18  H   UNL     1       8.053   5.666  13.818  0.00  0.00    +0.000 HD
ENDBRANCH  11  15
ENDBRANCH   5  11
ENDBRANCH   1   9
BRANCH   3  19
ATOM     19  C   UNL     1       1.020   8.550  20.945  0.00  0.00    +0.000 A 
ATOM     20  C   UNL     1       1.130   9.802  20.325  0.00  0.00    +0.000 A 
ATOM     21  C   UNL     1       0.529  10.953  20.868  0.00  0.00    +0.000 A 
ATOM     22  C   UNL     1      -0.207  10.864  22.050  0.00  0.00    +0.000 A 
ATOM     23  C   UNL     1      -0.348   9.599  22.644  0.00  0.00    +0.000 A 
ATOM     24  C   UNL     1       0.248   8.454  22.100  0.00  0.00    +0.000 A 
BRANCH  22  25
ATOM     25  C   UNL     1      -0.923  11.989  22.658  0.00  0.00    +0.000 A 
ATOM     26  N   UNL     1      -0.356  13.156  22.897  0.00  0.00    +0.000 NA
ATOM     27  C   UNL     1      -1.286  13.912  23.546  0.00  0.00    +0.000 A 
ATOM     28  C   UNL     1      -1.152  15.201  24.066  0.00  0.00    +0.000 A 
ATOM     29  C   UNL     1      -2.230  15.768  24.747  0.00  0.00    +0.000 A 
ATOM     30  C   UNL     1      -3.431  15.056  24.883  0.00  0.00    +0.000 A 
ATOM     31  C   UNL     1      -3.591  13.773  24.339  0.00  0.00    +0.000 A 
ATOM     32  C   UNL     1      -2.487  13.228  23.677  0.00  0.00    +0.000 A 
ATOM     33  N   UNL     1      -2.247  12.022  23.048  0.00  0.00    +0.000 N 
ATOM     34  H   UNL     1      -2.929  11.292  22.894  0.00  0.00    +0.000 HD
ENDBRANCH  22  25
ENDBRANCH   3  19
TORSDOF 5
ENDMDL
MODEL 2
REMARK VINA RESULT:      -9.4      0.793      1.336
REMARK  Name = 
REMARK  6 active torsions:
REMARK  status: ('A' for Active; 'I' for Inactive)
REMARK    1  A    between atoms: C_1  and  C_2
REMARK    2  A    between atoms: C_4  and  C_5
REMARK    3  A    between atoms: C_5  and  N_6
REMARK    4  A    between atoms: C_10  and  C_11
REMARK    5  A    between atoms: N_13  and  C_14
REMARK    6  A    between atoms: C_17  and  C_18
REMARK                            x       y       z     vdW  Elec       q    Type
REMARK                         _______ _______ _______ _____ _____    ______ ____
ROOT
ATOM      1  C   UNL     1       2.575   7.315  18.756  0.00  0.00    +0.000 C 
ATOM      2  O   UNL     1       2.575   8.254  17.965  0.00  0.00    +0.000 OA
ATOM      3  N   UNL     1       2.044   7.370  20.037  0.00  0.00    +0.000 N 
ATOM      4  H   UNL     1       2.300   6.637  20.689  0.00  0.00    +0.000 HD
ENDROOT
BRANCH   1   9
ATOM      5  N   UNL     1       5.397   5.054  17.431  0.00  0.00    +0.000 NA
ATOM      6  C   UNL     1       5.615   4.255  18.640  0.00  0.00    +0.000 C 
ATOM      7  C   UNL     1       4.312   3.908  19.354  0.00  0.00    +0.000 C 
ATOM      8  C   UNL     1       3.509   5.164  19.660  0.00  0.00    +0.000 C 
ATOM      9  C   UNL     1       3.245   5.980  18.384  0.00  0.00    +0.000 C 
ATOM     10  C   UNL     1       4.564   6.249  17.644  0.00  0.00    +0.000 C 
BRANCH   5  11
ATOM     11  C   UNL     1       6.671   5.406  16.747  0.00  0.00    +0.000 C 
BRANCH  11  15
ATOM     12  C   UNL     1       5.979   3.216  12.154  0.00  0.00    +0.000 C 
ATOM     13  C   UNL     1       6.387   4.027  13.322  0.00  0.00    +0.000 A 
ATOM     14  C   UNL     1       5.882   4.109  14.600  0.00  0.00    +0.000 A 
ATOM     15  C   UNL     1       6.738   5.006  15.291  0.00  0.00    +0.000 A 
ATOM     16  N   UNL     1       7.671   5.505  14.468  0.00  0.00    +0.000 NA
ATOM     17  N   UNL     1       7.451   4.891  13.296  0.00  0.00    +0.000 N 
ATOM     18  H   UNL     1       8.067   5.102  12.518  0.00  0.00    +0.000 HD
ENDBRANCH  11  15
ENDBRANCH   5  11
ENDBRANCH   1   9
BRANCH   3  19
ATOM     19  C   UNL     1       1.306   8.461  20.564  0.00  0.00    +0.000 A 
ATOM     20  C   UNL     1       0.719   9.451  19.764  0.00  0.00    +0.000 A 
ATOM     21  C   UNL     1       0.033  10.545  20.323  0.00  0.00    +0.000 A 
ATOM     22  C   UNL     1      -0.083  10.662  21.709  0.00  0.00    +0.000 A 
ATOM     23  C   UNL     1       0.472   9.645  22.504  0.00  0.00    +0.000 A 
ATOM     24  C   UNL     1       1.152   8.555  21.945  0.00  0.00    +0.000 A 
BRANCH  22  25
ATOM     25  C   UNL     1      -0.832  11.725  22.384  0.00  0.00    +0.000 A 
ATOM     26  N   UNL     1      -1.951  11.505  23.048  0.00  0.00    +0.000 NA
ATOM     27  C   UNL     1      -2.407  12.723  23.453  0.00  0.00    +0.000 A 
ATOM     28  C   UNL     1      -3.585  13.030  24.136  0.00  0.00    +0.000 A 
ATOM     29  C   UNL     1      -3.880  14.367  24.404  0.00  0.00    +0.000 A 
ATOM     30  C   UNL     1      -2.991  15.378  24.008  0.00  0.00    +0.000 A 
ATOM     31  C   UNL     1      -1.789  15.083  23.349  0.00  0.00    +0.000 A 
ATOM     32  C   UNL     1      -1.532  13.735  23.083  0.00  0.00    +0.000 A 
ATOM     33  N   UNL     1      -0.502  13.064  22.452  0.00  0.00    +0.000 N 
ATOM     34  H   UNL     1       0.351  13.483  22.106  0.00  0.00    +0.000 HD
ENDBRANCH  22  25
ENDBRANCH   3  19
TORSDOF 5
ENDMDL
MODEL 3
REMARK VINA RESULT:      -9.2      3.322      3.918
REMARK  Name = 
REMARK  6 active torsions:
REMARK  status: ('A' for Active; 'I' for Inactive)
REMARK    1  A    between atoms: C_1  and  C_2
REMARK    2  A    between atoms: C_4  and  C_5
REMARK    3  A    between atoms: C_5  and  N_6
REMARK    4  A    between atoms: C_10  and  C_11
REMARK    5  A    between atoms: N_13  and  C_14
REMARK    6  A    between atoms: C_17  and  C_18
REMARK                            x       y       z     vdW  Elec       q    Type
REMARK                         _______ _______ _______ _____ _____    ______ ____
ROOT
ATOM      1  C   UNL     1       2.134   7.552  19.095  0.00  0.00    +0.000 C 
ATOM      2  O   UNL     1       2.012   7.801  20.291  0.00  0.00    +0.000 OA
ATOM      3  N   UNL     1       1.865   8.455  18.076  0.00  0.00    +0.000 N 
ATOM      4  H   UNL     1       1.765   8.091  17.134  0.00  0.00    +0.000 HD
ENDROOT
BRANCH   1   9
ATOM      5  N   UNL     1       4.606   4.799  18.027  0.00  0.00    +0.000 NA
ATOM      6  C   UNL     1       4.296   3.818  19.071  0.00  0.00    +0.000 C 
ATOM      7  C   UNL     1       2.805   3.750  19.384  0.00  0.00    +0.000 C 
ATOM      8  C   UNL     1       2.262   5.126  19.742  0.00  0.00    +0.000 C 
ATOM      9  C   UNL     1       2.552   6.146  18.628  0.00  0.00    +0.000 C 
ATOM     10  C   UNL     1       4.048   6.137  18.278  0.00  0.00    +0.000 C 
BRANCH   5  11
ATOM     11  C   UNL     1       6.064   4.875  17.736  0.00  0.00    +0.000 C 
BRANCH  11  15
ATOM     12  C   UNL     1       6.442   3.754  12.739  0.00  0.00    +0.000 C 
ATOM     13  C   UNL     1       6.533   4.310  14.107  0.00  0.00    +0.000 A 
ATOM     14  C   UNL     1       5.829   4.035  15.256  0.00  0.00    +0.000 A 
ATOM     15  C   UNL     1       6.419   4.836  16.267  0.00  0.00    +0.000 A 
ATOM     16  N   UNL     1       7.382   5.617  15.757  0.00  0.00    +0.000 NA
ATOM     17  N   UNL     1       7.444   5.272  14.462  0.00  0.00    +0.000 N 
ATOM     18  H   UNL     1       8.135   5.728  13.875  0.00  0.00    +0.000 HD
ENDBRANCH  11  15
ENDBRANCH   5  11
ENDBRANCH   1   9
BRANCH   3  19
ATOM     19  C   UNL     1       1.551   9.824  18.266  0.00  0.00    +0.000 A 
ATOM     20  C   UNL     1       0.301  10.271  18.718  0.00  0.00    +0.000 A 
ATOM     21  C   UNL     1       0.009  11.642  18.852  0.00  0.00    +0.000 A 
ATOM     22  C   UNL     1       0.977  12.596  18.539  0.00  0.00    +0.000 A 
ATOM     23  C   UNL     1       2.241  12.141  18.126  0.00  0.00    +0.000 A 
ATOM     24  C   UNL     1       2.531  10.776  17.997  0.00  0.00    +0.000 A 
BRANCH  22  25
ATOM     25  C   UNL     1       0.793  14.040  18.707  0.00  0.00    +0.000 A 
ATOM     26  N   UNL     1      -0.394  14.600  18.845  0.00  0.00    +0.000 NA
ATOM     27  C   UNL     1      -0.185  15.946  18.880  0.00  0.00    +0.000 A 
ATOM     28  C   UNL     1      -1.128  16.973  18.952  0.00  0.00    +0.000 A 
ATOM     29  C   UNL     1      -0.686  18.297  18.921  0.00  0.00    +0.000 A 
ATOM     30  C   UNL     1       0.686  18.580  18.839  0.00  0.00    +0.000 A 
ATOM     31  C   UNL     1       1.647  17.559  18.797  0.00  0.00    +0.000 A 
ATOM     32  C   UNL     1       1.169  16.246  18.814  0.00  0.00    +0.000 A 
ATOM     33  N   UNL     1       1.777  15.006  18.764  0.00  0.00    +0.000 N 
ATOM     34  H   UNL     1       2.774  14.837  18.776  0.00  0.00    +0.000 HD
ENDBRANCH  22  25
ENDBRANCH   3  19
TORSDOF 5
ENDMDL
MODEL 4
REMARK VINA RESULT:      -9.0      0.731      1.412
REMARK  Name = 
REMARK  6 active torsions:
REMARK  status: ('A' for Active; 'I' for Inactive)
REMARK    1  A    between atoms: C_1  and  C_2
REMARK    2  A    between atoms: C_4  and  C_5
REMARK    3  A    between atoms: C_5  and  N_6
REMARK    4  A    between atoms: C_10  and  C_11
REMARK    5  A    between atoms: N_13  and  C_14
REMARK    6  A    between atoms: C_17  and  C_18
REMARK                            x       y       z     vdW  Elec       q    Type
REMARK                         _______ _______ _______ _____ _____    ______ ____
ROOT
ATOM      1  C   UNL     1       2.244   7.192  19.117  0.00  0.00    +0.000 C 
ATOM      2  O   UNL     1       2.251   8.081  18.270  0.00  0.00    +0.000 OA
ATOM      3  N   UNL     1       1.811   7.360  20.425  0.00  0.00    +0.000 N 
ATOM      4  H   UNL     1       2.062   6.649  21.103  0.00  0.00    +0.000 HD
ENDROOT
BRANCH   1   9
ATOM      5  N   UNL     1       4.944   4.615  18.169  0.00  0.00    +0.000 NA
ATOM      6  C   UNL     1       4.832   3.748  19.346  0.00  0.00    +0.000 C 
ATOM      7  C   UNL     1       3.387   3.557  19.796  0.00  0.00    +0.000 C 
ATOM      8  C   UNL     1       2.711   4.899  20.034  0.00  0.00    +0.000 C 
ATOM      9  C   UNL     1       2.792   5.793  18.785  0.00  0.00    +0.000 C 
ATOM     10  C   UNL     1       4.248   5.904  18.307  0.00  0.00    +0.000 C 
BRANCH   5  11
ATOM     11  C   UNL     1       6.356   4.813  17.743  0.00  0.00    +0.000 C 
BRANCH  11  15
ATOM     12  C   UNL     1       6.292   3.693  12.732  0.00  0.00    +0.000 C 
ATOM     13  C   UNL     1       6.500   4.251  14.086  0.00  0.00    +0.000 A 
ATOM     14  C   UNL     1       5.906   3.969  15.294  0.00  0.00    +0.000 A 
ATOM     15  C   UNL     1       6.577   4.777  16.248  0.00  0.00    +0.000 A 
ATOM     16  N   UNL     1       7.481   5.567  15.653  0.00  0.00    +0.000 NA
ATOM     17  N   UNL     1       7.429   5.223  14.358  0.00  0.00    +0.000 N 
ATOM     18  H   UNL     1       8.060   5.685  13.711  0.00  0.00    +0.000 HD
ENDBRANCH  11  15
ENDBRANCH   5  11
ENDBRANCH   1   9
BRANCH   3  19
ATOM     19  C   UNL     1       1.190   8.530  20.930  0.00  0.00    +0.000 A 
ATOM     20  C   UNL     1       0.775   8.667  22.263  0.00  0.00    +0.000 A 
ATOM     21  C   UNL     1       0.118   9.826  22.719  0.00  0.00    +0.000 A 
ATOM     22  C   UNL     1      -0.127  10.881  21.839  0.00  0.00    +0.000 A 
ATOM     23  C   UNL     1       0.328  10.755  20.516  0.00  0.00    +0.000 A 
ATOM     24  C   UNL     1       0.984   9.602  20.065  0.00  0.00    +0.000 A 
BRANCH  22  25
ATOM     25  C   UNL     1      -0.743  12.151  22.232  0.00  0.00    +0.000 A 
ATOM     26  N   UNL     1      -1.574  12.261  23.251  0.00  0.00    +0.000 NA
ATOM     27  C   UNL     1      -2.012  13.552  23.255  0.00  0.00    +0.000 A 
ATOM     28  C   UNL     1      -2.950  14.151  24.098  0.00  0.00    +0.000 A 
ATOM     29  C   UNL     1      -3.290  15.488  23.885  0.00  0.00    +0.000 A 
ATOM     30  C   UNL     1      -2.678  16.214  22.853  0.00  0.00    +0.000 A 
ATOM     31  C   UNL     1      -1.712  15.635  22.018  0.00  0.00    +0.000 A 
ATOM     32  C   UNL     1      -1.406  14.291  22.249  0.00  0.00    +0.000 A 
ATOM     33  N   UNL     1      -0.554  13.386  21.645  0.00  0.00    +0.000 N 
ATOM     34  H   UNL     1       0.102  13.598  20.905  0.00  0.00    +0.000 HD
ENDBRANCH  22  25
ENDBRANCH   3  19
TORSDOF 5
ENDMDL
MODEL 5
REMARK VINA RESULT:      -9.0      1.907      2.565
REMARK  Name = 
REMARK  6 active torsions:
REMARK  status: ('A' for Active; 'I' for Inactive)
REMARK    1  A    between atoms: C_1  and  C_2
REMARK    2  A    between atoms: C_4  and  C_5
REMARK    3  A    between atoms: C_5  and  N_6
REMARK    4  A    between atoms: C_10  and  C_11
REMARK    5  A    between atoms: N_13  and  C_14
REMARK    6  A    between atoms: C_17  and  C_18
REMARK                            x       y       z     vdW  Elec       q    Type
REMARK                         _______ _______ _______ _____ _____    ______ ____
ROOT
ATOM      1  C   UNL     1       2.554   7.469  18.456  0.00  0.00    +0.000 C 
ATOM      2  O   UNL     1       2.558   8.440  17.705  0.00  0.00    +0.000 OA
ATOM      3  N   UNL     1       2.024   7.474  19.740  0.00  0.00    +0.000 N 
ATOM      4  H   UNL     1       2.276   6.713  20.360  0.00  0.00    +0.000 HD
ENDROOT
BRANCH   1   9
ATOM      5  N   UNL     1       5.441   5.213  17.270  0.00  0.00    +0.000 NA
ATOM      6  C   UNL     1       5.461   4.282  18.401  0.00  0.00    +0.000 C 
ATOM      7  C   UNL     1       4.061   3.931  18.895  0.00  0.00    +0.000 C 
ATOM      8  C   UNL     1       3.272   5.189  19.231  0.00  0.00    +0.000 C 
ATOM      9  C   UNL     1       3.216   6.147  18.030  0.00  0.00    +0.000 C 
ATOM     10  C   UNL     1       4.634   6.422  17.504  0.00  0.00    +0.000 C 
BRANCH   5  11
ATOM     11  C   UNL     1       6.809   5.567  16.802  0.00  0.00    +0.000 C 
BRANCH  11  15
ATOM     12  C   UNL     1       8.795  10.028  18.393  0.00  0.00    +0.000 C 
ATOM     13  C   UNL     1       8.310   8.641  18.220  0.00  0.00    +0.000 A 
ATOM     14  C   UNL     1       7.553   8.052  17.234  0.00  0.00    +0.000 A 
ATOM     15  C   UNL     1       7.476   6.678  17.581  0.00  0.00    +0.000 A 
ATOM     16  N   UNL     1       8.085   6.446  18.752  0.00  0.00    +0.000 NA
ATOM     17  N   UNL     1       8.593   7.636  19.109  0.00  0.00    +0.000 N 
ATOM     18  H   UNL     1       9.128   7.692  19.969  0.00  0.00    +0.000 HD
ENDBRANCH  11  15
ENDBRANCH   5  11
ENDBRANCH   1   9
BRANCH   3  19
ATOM     19  C   UNL     1       1.292   8.546  20.311  0.00  0.00    +0.000 A 
ATOM     20  C   UNL     1       0.560   9.470  19.551  0.00  0.00    +0.000 A 
ATOM     21  C   UNL     1      -0.117  10.549  20.149  0.00  0.00    +0.000 A 
ATOM     22  C   UNL     1      -0.077  10.718  21.533  0.00  0.00    +0.000 A 
ATOM     23  C   UNL     1       0.624   9.766  22.293  0.00  0.00    +0.000 A 
ATOM     24  C   UNL     1       1.294   8.690  21.696  0.00  0.00    +0.000 A 
BRANCH  22  25
ATOM     25  C   UNL     1      -0.800  11.769  22.255  0.00  0.00    +0.000 A 
ATOM     26  N   UNL     1      -0.267  12.942  22.538  0.00  0.00    +0.000 NA
ATOM     27  C   UNL     1      -1.186  13.614  23.288  0.00  0.00    +0.000 A 
ATOM     28  C   UNL     1      -1.073  14.871  23.884  0.00  0.00    +0.000 A 
ATOM     29  C   UNL     1      -2.131  15.346  24.661  0.00  0.00    +0.000 A 
ATOM     30  C   UNL     1      -3.292  14.574  24.816  0.00  0.00    +0.000 A 
ATOM     31  C   UNL     1      -3.433  13.323  24.198  0.00  0.00    +0.000 A 
ATOM     32  C   UNL     1      -2.349  12.871  23.440  0.00  0.00    +0.000 A 
ATOM     33  N   UNL     1      -2.099  11.719  22.719  0.00  0.00    +0.000 N 
ATOM     34  H   UNL     1      -2.760  10.971  22.555  0.00  0.00    +0.000 HD
ENDBRANCH  22  25
ENDBRANCH   3  19
TORSDOF 5
ENDMDL
MODEL 6
REMARK VINA RESULT:      -8.9      3.194      3.508
REMARK  Name = 
REMARK  6 active torsions:
REMARK  status: ('A' for Active; 'I' for Inactive)
REMARK    1  A    between atoms: C_1  and  C_2
REMARK    2  A    between atoms: C_4  and  C_5
REMARK    3  A    between atoms: C_5  and  N_6
REMARK    4  A    between atoms: C_10  and  C_11
REMARK    5  A    between atoms: N_13  and  C_14
REMARK    6  A    between atoms: C_17  and  C_18
REMARK                            x       y       z     vdW  Elec       q    Type
REMARK                         _______ _______ _______ _____ _____    ______ ____
ROOT
ATOM      1  C   UNL     1       2.142   7.695  19.392  0.00  0.00    +0.000 C 
ATOM      2  O   UNL     1       2.052   7.953  20.589  0.00  0.00    +0.000 OA
ATOM      3  N   UNL     1       1.803   8.575  18.373  0.00  0.00    +0.000 N 
ATOM      4  H   UNL     1       1.685   8.197  17.440  0.00  0.00    +0.000 HD
ENDROOT
BRANCH   1   9
ATOM      5  N   UNL     1       4.678   5.042  18.225  0.00  0.00    +0.000 NA
ATOM      6  C   UNL     1       4.478   4.068  19.302  0.00  0.00    +0.000 C 
ATOM      7  C   UNL     1       3.013   3.936  19.706  0.00  0.00    +0.000 C 
ATOM      8  C   UNL     1       2.426   5.292  20.072  0.00  0.00    +0.000 C 
ATOM      9  C   UNL     1       2.600   6.301  18.925  0.00  0.00    +0.000 C 
ATOM     10  C   UNL     1       4.071   6.357  18.486  0.00  0.00    +0.000 C 
BRANCH   5  11
ATOM     11  C   UNL     1       6.110   5.181  17.846  0.00  0.00    +0.000 C 
BRANCH  11  15
ATOM     12  C   UNL     1       6.161   3.678  12.935  0.00  0.00    +0.000 C 
ATOM     13  C   UNL     1       6.364   4.319  14.253  0.00  0.00    +0.000 A 
ATOM     14  C   UNL     1       5.689   4.193  15.446  0.00  0.00    +0.000 A 
ATOM     15  C   UNL     1       6.394   5.005  16.371  0.00  0.00    +0.000 A 
ATOM     16  N   UNL     1       7.400   5.653  15.768  0.00  0.00    +0.000 NA
ATOM     17  N   UNL     1       7.373   5.214  14.500  0.00  0.00    +0.000 N 
ATOM     18  H   UNL     1       8.075   5.560  13.856  0.00  0.00    +0.000 HD
ENDBRANCH  11  15
ENDBRANCH   5  11
ENDBRANCH   1   9
BRANCH   3  19
ATOM     19  C   UNL     1       1.441   9.933  18.561  0.00  0.00    +0.000 A 
ATOM     20  C   UNL     1       0.216  10.334  19.111  0.00  0.00    +0.000 A 
ATOM     21  C   UNL     1      -0.130  11.692  19.240  0.00  0.00    +0.000 A 
ATOM     22  C   UNL     1       0.761  12.681  18.822  0.00  0.00    +0.000 A 
ATOM     23  C   UNL     1       2.005  12.274  18.310  0.00  0.00    +0.000 A 
ATOM     24  C   UNL     1       2.348  10.922  18.186  0.00  0.00    +0.000 A 
BRANCH  22  25
ATOM     25  C   UNL     1       0.523  14.119  18.974  0.00  0.00    +0.000 A 
ATOM     26  N   UNL     1       1.410  14.942  19.501  0.00  0.00    +0.000 NA
ATOM     27  C   UNL     1       0.813  16.165  19.567  0.00  0.00    +0.000 A 
ATOM     28  C   UNL     1       1.315  17.353  20.102  0.00  0.00    +0.000 A 
ATOM     29  C   UNL     1       0.500  18.485  20.112  0.00  0.00    +0.000 A 
ATOM     30  C   UNL     1      -0.793  18.427  19.571  0.00  0.00    +0.000 A 
ATOM     31  C   UNL     1      -1.300  17.249  19.001  0.00  0.00    +0.000 A 
ATOM     32  C   UNL     1      -0.464  16.130  19.022  0.00  0.00    +0.000 A 
ATOM     33  N   UNL     1      -0.602  14.823  18.596  0.00  0.00    +0.000 N 
ATOM     34  H   UNL     1      -1.392  14.450  18.087  0.00  0.00    +0.000 HD
ENDBRANCH  22  25
ENDBRANCH   3  19
TORSDOF 5
ENDMDL
MODEL 7
REMARK VINA RESULT:      -8.8      1.299      1.707
REMARK  Name = 
REMARK  6 active torsions:
REMARK  status: ('A' for Active; 'I' for Inactive)
REMARK    1  A    between atoms: C_1  and  C_2
REMARK    2  A    between atoms: C_4  and  C_5
REMARK    3  A    between atoms: C_5  and  N_6
REMARK    4  A    between atoms: C_10  and  C_11
REMARK    5  A    between atoms: N_13  and  C_14
REMARK    6  A    between atoms: C_17  and  C_18
REMARK                            x       y       z     vdW  Elec       q    Type
REMARK                         _______ _______ _______ _____ _____    ______ ____
ROOT
ATOM      1  C   UNL     1       1.889   5.856  19.983  0.00  0.00    +0.000 C 
ATOM      2  O   UNL     1       1.011   5.551  20.784  0.00  0.00    +0.000 OA
ATOM      3  N   UNL     1       2.155   7.154  19.568  0.00  0.00    +0.000 N 
ATOM      4  H   UNL     1       2.727   7.280  18.740  0.00  0.00    +0.000 HD
ENDROOT
BRANCH   1   9
ATOM      5  N   UNL     1       5.033   4.417  18.287  0.00  0.00    +0.000 NA
ATOM      6  C   UNL     1       5.328   3.354  19.253  0.00  0.00    +0.000 C 
ATOM      7  C   UNL     1       4.068   2.664  19.764  0.00  0.00    +0.000 C 
ATOM      8  C   UNL     1       3.089   3.677  20.341  0.00  0.00    +0.000 C 
ATOM      9  C   UNL     1       2.749   4.768  19.313  0.00  0.00    +0.000 C 
ATOM     10  C   UNL     1       4.037   5.393  18.756  0.00  0.00    +0.000 C 
BRANCH   5  11
ATOM     11  C   UNL     1       6.264   5.100  17.803  0.00  0.00    +0.000 C 
BRANCH  11  15
ATOM     12  C   UNL     1       6.298   3.666  12.872  0.00  0.00    +0.000 C 
ATOM     13  C   UNL     1       6.486   4.304  14.194  0.00  0.00    +0.000 A 
ATOM     14  C   UNL     1       5.855   4.112  15.401  0.00  0.00    +0.000 A 
ATOM     15  C   UNL     1       6.521   4.964  16.320  0.00  0.00    +0.000 A 
ATOM     16  N   UNL     1       7.458   5.695  15.700  0.00  0.00    +0.000 NA
ATOM     17  N   UNL     1       7.431   5.270  14.428  0.00  0.00    +0.000 N 
ATOM     18  H   UNL     1       8.088   5.676  13.770  0.00  0.00    +0.000 HD
ENDBRANCH  11  15
ENDBRANCH   5  11
ENDBRANCH   1   9
BRANCH   3  19
ATOM     19  C   UNL     1       1.553   8.318  20.109  0.00  0.00    +0.000 A 
ATOM     20  C   UNL     1       1.303   8.490  21.478  0.00  0.00    +0.000 A 
ATOM     21  C   UNL     1       0.660   9.640  21.974  0.00  0.00    +0.000 A 
ATOM     22  C   UNL     1       0.261  10.650  21.099  0.00  0.00    +0.000 A 
ATOM     23  C   UNL     1       0.551  10.490  19.733  0.00  0.00    +0.000 A 
ATOM     24  C   UNL     1       1.194   9.347  19.241  0.00  0.00    +0.000 A 
BRANCH  22  25
ATOM     25  C   UNL     1      -0.354  11.910  21.523  0.00  0.00    +0.000 A 
ATOM     26  N   UNL     1      -0.351  12.323  22.777  0.00  0.00    +0.000 NA
ATOM     27  C   UNL     1      -1.087  13.470  22.808  0.00  0.00    +0.000 A 
ATOM     28  C   UNL     1      -1.431  14.255  23.910  0.00  0.00    +0.000 A 
ATOM     29  C   UNL     1      -2.247  15.370  23.714  0.00  0.00    +0.000 A 
ATOM     30  C   UNL     1      -2.690  15.701  22.425  0.00  0.00    +0.000 A 
ATOM     31  C   UNL     1      -2.328  14.940  21.304  0.00  0.00    +0.000 A 
ATOM     32  C   UNL     1      -1.523  13.821  21.538  0.00  0.00    +0.000 A 
ATOM     33  N   UNL     1      -0.990  12.839  20.725  0.00  0.00    +0.000 N 
ATOM     34  H   UNL     1      -1.051  12.812  19.716  0.00  0.00    +0.000 HD
ENDBRANCH  22  25
ENDBRANCH   3  19
TORSDOF 5
ENDMDL
MODEL 8
REMARK VINA RESULT:      -8.8      1.260      1.726
REMARK  Name = 
REMARK  6 active torsions:
REMARK  status: ('A' for Active; 'I' for Inactive)
REMARK    1  A    between atoms: C_1  and  C_2
REMARK    2  A    between atoms: C_4  and  C_5
REMARK    3  A    between atoms: C_5  and  N_6
REMARK    4  A    between atoms: C_10  and  C_11
REMARK    5  A    between atoms: N_13  and  C_14
REMARK    6  A    between atoms: C_17  and  C_18
REMARK                            x       y       z     vdW  Elec       q    Type
REMARK                         _______ _______ _______ _____ _____    ______ ____
ROOT
ATOM      1  C   UNL     1       2.695   7.261  18.654  0.00  0.00    +0.000 C 
ATOM      2  O   UNL     1       2.591   8.163  17.827  0.00  0.00    +0.000 OA
ATOM      3  N   UNL     1       2.214   7.332  19.954  0.00  0.00    +0.000 N 
ATOM      4  H   UNL     1       2.552   6.648  20.623  0.00  0.00    +0.000 HD
ENDROOT
BRANCH   1   9
ATOM      5  N   UNL     1       5.591   5.158  17.233  0.00  0.00    +0.000 NA
ATOM      6  C   UNL     1       5.972   4.461  18.465  0.00  0.00    +0.000 C 
ATOM      7  C   UNL     1       4.764   4.056  19.303  0.00  0.00    +0.000 C 
ATOM      8  C   UNL     1       3.881   5.258  19.602  0.00  0.00    +0.000 C 
ATOM      9  C   UNL     1       3.448   5.965  18.306  0.00  0.00    +0.000 C 
ATOM     10  C   UNL     1       4.677   6.292  17.444  0.00  0.00    +0.000 C 
BRANCH   5  11
ATOM     11  C   UNL     1       6.772   5.569  16.426  0.00  0.00    +0.000 C 
BRANCH  11  15
ATOM     12  C   UNL     1       5.893   3.006  12.063  0.00  0.00    +0.000 C 
ATOM     13  C   UNL     1       6.348   3.910  13.142  0.00  0.00    +0.000 A 
ATOM     14  C   UNL     1       5.897   4.100  14.428  0.00  0.00    +0.000 A 
ATOM     15  C   UNL     1       6.780   5.049  15.006  0.00  0.00    +0.000 A 
ATOM     16  N   UNL     1       7.677   5.476  14.107  0.00  0.00    +0.000 NA
ATOM     17  N   UNL     1       7.409   4.767  13.000  0.00  0.00    +0.000 N 
ATOM     18  H   UNL     1       7.992   4.911  12.182  0.00  0.00    +0.000 HD
ENDBRANCH  11  15
ENDBRANCH   5  11
ENDBRANCH   1   9
BRANCH   3  19
ATOM     19  C   UNL     1       1.419   8.387  20.469  0.00  0.00    +0.000 A 
ATOM     20  C   UNL     1       1.087   8.509  21.826  0.00  0.00    +0.000 A 
ATOM     21  C   UNL     1       0.256   9.543  22.295  0.00  0.00    +0.000 A 
ATOM     22  C   UNL     1      -0.255  10.487  21.404  0.00  0.00    +0.000 A 
ATOM     23  C   UNL     1       0.115  10.384  20.052  0.00  0.00    +0.000 A 
ATOM     24  C   UNL     1       0.944   9.355  19.587  0.00  0.00    +0.000 A 
BRANCH  22  25
ATOM     25  C   UNL     1      -1.073  11.636  21.802  0.00  0.00    +0.000 A 
ATOM     26  N   UNL     1      -1.884  12.262  20.971  0.00  0.00    +0.000 NA
ATOM     27  C   UNL     1      -2.398  13.322  21.656  0.00  0.00    +0.000 A 
ATOM     28  C   UNL     1      -3.257  14.322  21.198  0.00  0.00    +0.000 A 
ATOM     29  C   UNL     1      -3.616  15.353  22.068  0.00  0.00    +0.000 A 
ATOM     30  C   UNL     1      -3.134  15.362  23.385  0.00  0.00    +0.000 A 
ATOM     31  C   UNL     1      -2.295  14.348  23.870  0.00  0.00    +0.000 A 
ATOM     32  C   UNL     1      -1.943  13.340  22.968  0.00  0.00    +0.000 A 
ATOM     33  N   UNL     1      -1.143  12.216  23.052  0.00  0.00    +0.000 N 
ATOM     34  H   UNL     1      -0.693  11.875  23.891  0.00  0.00    +0.000 HD
ENDBRANCH  22  25
ENDBRANCH   3  19
TORSDOF 5
ENDMDL
MODEL 9
REMARK VINA RESULT:      -8.7      2.571      2.932
REMARK  Name = 
REMARK  6 active torsions:
REMARK  status: ('A' for Active; 'I' for Inactive)
REMARK    1  A    between atoms: C_1  and  C_2
REMARK    2  A    between atoms: C_4  and  C_5
REMARK    3  A    between atoms: C_5  and  N_6
REMARK    4  A    between atoms: C_10  and  C_11
REMARK    5  A    between atoms: N_13  and  C_14
REMARK    6  A    between atoms: C_17  and  C_18
REMARK                            x       y       z     vdW  Elec       q    Type
REMARK                         _______ _______ _______ _____ _____    ______ ____
ROOT
ATOM      1  C   UNL     1       2.211   8.146  18.184  0.00  0.00    +0.000 C 
ATOM      2  O   UNL     1       2.620   8.836  17.255  0.00  0.00    +0.000 OA
ATOM      3  N   UNL     1       1.417   8.619  19.220  0.00  0.00    +0.000 N 
ATOM      4  H   UNL     1       1.330   8.045  20.052  0.00  0.00    +0.000 HD
ENDROOT
BRANCH   1   9
ATOM      5  N   UNL     1       4.656   5.171  18.209  0.00  0.00    +0.000 NA
ATOM      6  C   UNL     1       4.386   4.685  19.565  0.00  0.00    +0.000 C 
ATOM      7  C   UNL     1       2.906   4.762  19.929  0.00  0.00    +0.000 C 
ATOM      8  C   UNL     1       2.371   6.173  19.733  0.00  0.00    +0.000 C 
ATOM      9  C   UNL     1       2.618   6.666  18.297  0.00  0.00    +0.000 C 
ATOM     10  C   UNL     1       4.101   6.505  17.929  0.00  0.00    +0.000 C 
BRANCH   5  11
ATOM     11  C   UNL     1       6.102   5.111  17.863  0.00  0.00    +0.000 C 
BRANCH  11  15
ATOM     12  C   UNL     1       6.228   3.623  12.950  0.00  0.00    +0.000 C 
ATOM     13  C   UNL     1       6.398   4.271  14.269  0.00  0.00    +0.000 A 
ATOM     14  C   UNL     1       5.731   4.107  15.462  0.00  0.00    +0.000 A 
ATOM     15  C   UNL     1       6.394   4.953  16.388  0.00  0.00    +0.000 A 
ATOM     16  N   UNL     1       7.364   5.654  15.786  0.00  0.00    +0.000 NA
ATOM     17  N   UNL     1       7.359   5.216  14.518  0.00  0.00    +0.000 N 
ATOM     18  H   UNL     1       8.042   5.599  13.873  0.00  0.00    +0.000 HD
ENDBRANCH  11  15
ENDBRANCH   5  11
ENDBRANCH   1   9
BRANCH   3  19
ATOM     19  C   UNL     1       0.852   9.918  19.282  0.00  0.00    +0.000 A 
ATOM     20  C   UNL     1      -0.229  10.326  18.487  0.00  0.00    +0.000 A 
ATOM     21  C   UNL     1      -0.735  11.638  18.541  0.00  0.00    +0.000 A 
ATOM     22  C   UNL     1      -0.165  12.571  19.408  0.00  0.00    +0.000 A 
ATOM     23  C   UNL     1       0.890  12.145  20.232  0.00  0.00    +0.000 A 
ATOM     24  C   UNL     1       1.391  10.837  20.179  0.00  0.00    +0.000 A 
BRANCH  22  25
ATOM     25  C   UNL     1      -0.660  13.938  19.585  0.00  0.00    +0.000 A 
ATOM     26  N   UNL     1      -0.348  14.926  18.768  0.00  0.00    +0.000 NA
ATOM     27  C   UNL     1      -0.904  16.054  19.293  0.00  0.00    +0.000 A 
ATOM     28  C   UNL     1      -0.809  17.368  18.833  0.00  0.00    +0.000 A 
ATOM     29  C   UNL     1      -1.423  18.385  19.567  0.00  0.00    +0.000 A 
ATOM     30  C   UNL     1      -2.139  18.078  20.733  0.00  0.00    +0.000 A 
ATOM     31  C   UNL     1      -2.270  16.758  21.191  0.00  0.00    +0.000 A 
ATOM     32  C   UNL     1      -1.630  15.767  20.442  0.00  0.00    +0.000 A 
ATOM     33  N   UNL     1      -1.507  14.397  20.574  0.00  0.00    +0.000 N 
ATOM     34  H   UNL     1      -1.967  13.829  21.272  0.00  0.00    +0.000 HD
ENDBRANCH  22  25
ENDBRANCH   3  19
TORSDOF 5
ENDMDL
