MODEL 1
REMARK VINA RESULT:      -7.3      0.000      0.000
REMARK  Name = 
REMARK  5 active torsions:
REMARK  status: ('A' for Active; 'I' for Inactive)
REMARK    1  A    between atoms: C_1  and  C_2
REMARK    2  A    between atoms: C_2  and  N_3
REMARK    3  A    between atoms: N_11  and  C_12
REMARK    4  A    between atoms: C_15  and  C_16
REMARK    5  A    between atoms: C_16  and  C_17
REMARK                            x       y       z     vdW  Elec       q    Type
REMARK                         _______ _______ _______ _____ _____    ______ ____
ROOT
ATOM      1  N   UNL     1       6.379   5.931  15.933  0.00  0.00    +0.000 N 
ATOM      2  C   UNL     1       5.333   5.899  16.841  0.00  0.00    +0.000 A 
ATOM      3  N   UNL     1       5.246   4.872  17.720  0.00  0.00    +0.000 NA
ATOM      4  C   UNL     1       4.287   4.926  18.666  0.00  0.00    +0.000 A 
ATOM      5  C   UNL     1       3.430   5.973  18.719  0.00  0.00    +0.000 A 
ATOM      6  C   UNL     1       3.554   6.957  17.775  0.00  0.00    +0.000 A 
ATOM      7  N   UNL     1       4.489   6.951  16.811  0.00  0.00    +0.000 NA
ATOM      8  C   UNL     1       2.560   8.049  18.069  0.00  0.00    +0.000 C 
ATOM      9  N   UNL     1       2.010   7.646  19.363  0.00  0.00    +0.000 N 
ATOM     10  C   UNL     1       2.450   6.369  19.715  0.00  0.00    +0.000 C 
ATOM     11  O   UNL     1       2.184   5.650  20.657  0.00  0.00    +0.000 OA
ATOM     12  H   UNL     1       6.119   6.563  15.185  0.00  0.00    +0.000 HD
ENDROOT
BRANCH   9  13
ATOM     13  C   UNL     1       1.363   8.559  20.236  0.00  0.00    +0.000 A 
ATOM     14  C   UNL     1       0.576   9.603  19.735  0.00  0.00    +0.000 A 
ATOM     15  C   UNL     1      -0.169  10.427  20.584  0.00  0.00    +0.000 A 
ATOM     16  C   UNL     1      -0.120  10.252  21.967  0.00  0.00    +0.000 A 
ATOM     17  C   UNL     1       0.693   9.238  22.484  0.00  0.00    +0.000 A 
ATOM     18  C   UNL     1       1.426   8.400  21.628  0.00  0.00    +0.000 A 
BRANCH  16  19
ATOM     19  C   UNL     1      -0.939  11.138  22.870  0.00  0.00    +0.000 C 
ATOM     20  C   UNL     1      -1.265  12.484  22.235  0.00  0.00    +0.000 C 
ENDBRANCH  16  19
ENDBRANCH   9  13
BRANCH   1  22
ATOM     21  C   UNL     1       6.147   4.120  14.330  0.00  0.00    +0.000 C 
ATOM     22  C   UNL     1       6.901   4.635  15.543  0.00  0.00    +0.000 C 
ENDBRANCH   1  22
TORSDOF 3
ENDMDL
MODEL 2
REMARK VINA RESULT:      -7.1      0.488      1.179
REMARK  Name = 
REMARK  5 active torsions:
REMARK  status: ('A' for Active; 'I' for Inactive)
REMARK    1  A    between atoms: C_1  and  C_2
REMARK    2  A    between atoms: C_2  and  N_3
REMARK    3  A    between atoms: N_11  and  C_12
REMARK    4  A    between atoms: C_15  and  C_16
REMARK    5  A    between atoms: C_16  and  C_17
REMARK                            x       y       z     vdW  Elec       q    Type
REMARK                         _______ _______ _______ _____ _____    ______ ____
ROOT
ATOM      1  N   UNL     1       6.490   5.926  16.239  0.00  0.00    +0.000 N 
ATOM      2  C   UNL     1       5.379   5.951  17.065  0.00  0.00    +0.000 A 
ATOM      3  N   UNL     1       5.219   4.978  17.995  0.00  0.00    +0.000 NA
ATOM      4  C   UNL     1       4.191   5.089  18.860  0.00  0.00    +0.000 A 
ATOM      5  C   UNL     1       3.339   6.140  18.786  0.00  0.00    +0.000 A 
ATOM      6  C   UNL     1       3.541   7.065  17.798  0.00  0.00    +0.000 A 
ATOM      7  N   UNL     1       4.547   7.001  16.909  0.00  0.00    +0.000 NA
ATOM      8  C   UNL     1       2.536   8.175  17.950  0.00  0.00    +0.000 C 
ATOM      9  N   UNL     1       1.886   7.852  19.220  0.00  0.00    +0.000 N 
ATOM     10  C   UNL     1       2.290   6.596  19.679  0.00  0.00    +0.000 C 
ATOM     11  O   UNL     1       1.949   5.936  20.639  0.00  0.00    +0.000 OA
ATOM     12  H   UNL     1       6.293   6.513  15.438  0.00  0.00    +0.000 HD
ENDROOT
BRANCH   9  13
ATOM     13  C   UNL     1       1.181   8.817  19.986  0.00  0.00    +0.000 A 
ATOM     14  C   UNL     1       1.076   8.698  21.377  0.00  0.00    +0.000 A 
ATOM     15  C   UNL     1       0.498   9.707  22.153  0.00  0.00    +0.000 A 
ATOM     16  C   UNL     1      -0.026  10.853  21.553  0.00  0.00    +0.000 A 
ATOM     17  C   UNL     1       0.036  10.966  20.161  0.00  0.00    +0.000 A 
ATOM     18  C   UNL     1       0.635   9.960  19.385  0.00  0.00    +0.000 A 
BRANCH  16  19
ATOM     19  C   UNL     1      -0.634  11.939  22.403  0.00  0.00    +0.000 C 
ATOM     20  C   UNL     1      -1.851  11.462  23.184  0.00  0.00    +0.000 C 
ENDBRANCH  16  19
ENDBRANCH   9  13
BRANCH   1  22
ATOM     21  C   UNL     1       6.359   4.017  14.741  0.00  0.00    +0.000 C 
ATOM     22  C   UNL     1       7.033   4.608  15.968  0.00  0.00    +0.000 C 
ENDBRANCH   1  22
TORSDOF 3
ENDMDL
MODEL 3
REMARK VINA RESULT:      -6.8      2.480      3.415
REMARK  Name = 
REMARK  5 active torsions:
REMARK  status: ('A' for Active; 'I' for Inactive)
REMARK    1  A    between atoms: C_1  and  C_2
REMARK    2  A    between atoms: C_2  and  N_3
REMARK    3  A    between atoms: N_11  and  C_12
REMARK    4  A    between atoms: C_15  and  C_16
REMARK    5  A    between atoms: C_16  and  C_17
REMARK                            x       y       z     vdW  Elec       q    Type
REMARK                         _______ _______ _______ _____ _____    ______ ____
ROOT
ATOM      1  N   UNL     1       3.037   3.420  19.859  0.00  0.00    +0.000 N 
ATOM      2  C   UNL     1       2.936   4.747  19.473  0.00  0.00    +0.000 A 
ATOM      3  N   UNL     1       3.313   5.107  18.223  0.00  0.00    +0.000 NA
ATOM      4  C   UNL     1       3.097   6.380  17.836  0.00  0.00    +0.000 A 
ATOM      5  C   UNL     1       2.532   7.271  18.686  0.00  0.00    +0.000 A 
ATOM      6  C   UNL     1       2.211   6.846  19.947  0.00  0.00    +0.000 A 
ATOM      7  N   UNL     1       2.407   5.591  20.383  0.00  0.00    +0.000 NA
ATOM      8  C   UNL     1       1.531   7.968  20.686  0.00  0.00    +0.000 C 
ATOM      9  N   UNL     1       1.355   8.981  19.646  0.00  0.00    +0.000 N 
ATOM     10  C   UNL     1       2.028   8.617  18.478  0.00  0.00    +0.000 C 
ATOM     11  O   UNL     1       2.190   9.193  17.421  0.00  0.00    +0.000 OA
ATOM     12  H   UNL     1       3.017   3.391  20.871  0.00  0.00    +0.000 HD
ENDROOT
BRANCH   9  13
ATOM     13  C   UNL     1       0.398  10.025  19.749  0.00  0.00    +0.000 A 
ATOM     14  C   UNL     1      -0.650  10.136  18.828  0.00  0.00    +0.000 A 
ATOM     15  C   UNL     1      -1.669  11.078  18.995  0.00  0.00    +0.000 A 
ATOM     16  C   UNL     1      -1.650  11.963  20.073  0.00  0.00    +0.000 A 
ATOM     17  C   UNL     1      -0.588  11.889  20.979  0.00  0.00    +0.000 A 
ATOM     18  C   UNL     1       0.425  10.929  20.820  0.00  0.00    +0.000 A 
BRANCH  16  19
ATOM     19  C   UNL     1      -2.763  12.964  20.249  0.00  0.00    +0.000 C 
ATOM     20  C   UNL     1      -4.104  12.447  19.744  0.00  0.00    +0.000 C 
ENDBRANCH  16  19
ENDBRANCH   9  13
BRANCH   1  22
ATOM     21  C   UNL     1       3.466   1.571  18.343  0.00  0.00    +0.000 C 
ATOM     22  C   UNL     1       4.083   2.661  19.202  0.00  0.00    +0.000 C 
ENDBRANCH   1  22
TORSDOF 3
ENDMDL
MODEL 4
REMARK VINA RESULT:      -6.7      2.347      7.958
REMARK  Name = 
REMARK  5 active torsions:
REMARK  status: ('A' for Active; 'I' for Inactive)
REMARK    1  A    between atoms: C_1  and  C_2
REMARK    2  A    between atoms: C_2  and  N_3
REMARK    3  A    between atoms: N_11  and  C_12
REMARK    4  A    between atoms: C_15  and  C_16
REMARK    5  A    between atoms: C_16  and  C_17
REMARK                            x       y       z     vdW  Elec       q    Type
REMARK                         _______ _______ _______ _____ _____    ______ ____
ROOT
ATOM      1  N   UNL     1      -1.897  12.364  19.146  0.00  0.00    +0.000 N 
ATOM      2  C   UNL     1      -0.954  11.411  19.493  0.00  0.00    +0.000 A 
ATOM      3  N   UNL     1      -1.013  10.830  20.715  0.00  0.00    +0.000 NA
ATOM      4  C   UNL     1      -0.154   9.825  20.983  0.00  0.00    +0.000 A 
ATOM      5  C   UNL     1       0.749   9.426  20.056  0.00  0.00    +0.000 A 
ATOM      6  C   UNL     1       0.776  10.084  18.856  0.00  0.00    +0.000 A 
ATOM      7  N   UNL     1      -0.055  11.092  18.539  0.00  0.00    +0.000 NA
ATOM      8  C   UNL     1       1.792   9.431  17.959  0.00  0.00    +0.000 C 
ATOM      9  N   UNL     1       2.185   8.247  18.723  0.00  0.00    +0.000 N 
ATOM     10  C   UNL     1       1.641   8.282  20.009  0.00  0.00    +0.000 C 
ATOM     11  O   UNL     1       1.769   7.544  20.964  0.00  0.00    +0.000 OA
ATOM     12  H   UNL     1      -1.529  12.894  18.366  0.00  0.00    +0.000 HD
ENDROOT
BRANCH   9  13
ATOM     13  C   UNL     1       2.788   7.112  18.119  0.00  0.00    +0.000 A 
ATOM     14  C   UNL     1       4.008   7.219  17.441  0.00  0.00    +0.000 A 
ATOM     15  C   UNL     1       4.673   6.090  16.956  0.00  0.00    +0.000 A 
ATOM     16  C   UNL     1       4.118   4.819  17.105  0.00  0.00    +0.000 A 
ATOM     17  C   UNL     1       2.881   4.701  17.746  0.00  0.00    +0.000 A 
ATOM     18  C   UNL     1       2.223   5.836  18.249  0.00  0.00    +0.000 A 
BRANCH  16  19
ATOM     19  C   UNL     1       4.853   3.607  16.590  0.00  0.00    +0.000 C 
ATOM     20  C   UNL     1       5.863   3.951  15.503  0.00  0.00    +0.000 C 
ENDBRANCH  16  19
ENDBRANCH   9  13
BRANCH   1  22
ATOM     21  C   UNL     1      -1.634  14.389  20.463  0.00  0.00    +0.000 C 
ATOM     22  C   UNL     1      -2.448  13.124  20.252  0.00  0.00    +0.000 C 
ENDBRANCH   1  22
TORSDOF 3
ENDMDL
MODEL 5
REMARK VINA RESULT:      -6.6      2.468      3.471
REMARK  Name = 
REMARK  5 active torsions:
REMARK  status: ('A' for Active; 'I' for Inactive)
REMARK    1  A    between atoms: C_1  and  C_2
REMARK    2  A    between atoms: C_2  and  N_3
REMARK    3  A    between atoms: N_11  and  C_12
REMARK    4  A    between atoms: C_15  and  C_16
REMARK    5  A    between atoms: C_16  and  C_17
REMARK                            x       y       z     vdW  Elec       q    Type
REMARK                         _______ _______ _______ _____ _____    ______ ____
ROOT
ATOM      1  N   UNL     1       3.093   3.434  19.796  0.00  0.00    +0.000 N 
ATOM      2  C   UNL     1       2.959   4.768  19.449  0.00  0.00    +0.000 A 
ATOM      3  N   UNL     1       3.296   5.168  18.199  0.00  0.00    +0.000 NA
ATOM      4  C   UNL     1       3.048   6.447  17.853  0.00  0.00    +0.000 A 
ATOM      5  C   UNL     1       2.492   7.305  18.742  0.00  0.00    +0.000 A 
ATOM      6  C   UNL     1       2.212   6.841  19.998  0.00  0.00    +0.000 A 
ATOM      7  N   UNL     1       2.441   5.578  20.395  0.00  0.00    +0.000 NA
ATOM      8  C   UNL     1       1.534   7.931  20.785  0.00  0.00    +0.000 C 
ATOM      9  N   UNL     1       1.313   8.968  19.778  0.00  0.00    +0.000 N 
ATOM     10  C   UNL     1       1.960   8.647  18.583  0.00  0.00    +0.000 C 
ATOM     11  O   UNL     1       2.083   9.254  17.539  0.00  0.00    +0.000 OA
ATOM     12  H   UNL     1       3.101   3.377  20.807  0.00  0.00    +0.000 HD
ENDROOT
BRANCH   9  13
ATOM     13  C   UNL     1       0.341   9.992  19.935  0.00  0.00    +0.000 A 
ATOM     14  C   UNL     1       0.333  10.811  21.070  0.00  0.00    +0.000 A 
ATOM     15  C   UNL     1      -0.535  11.902  21.175  0.00  0.00    +0.000 A 
ATOM     16  C   UNL     1      -1.447  12.185  20.159  0.00  0.00    +0.000 A 
ATOM     17  C   UNL     1      -1.476  11.351  19.036  0.00  0.00    +0.000 A 
ATOM     18  C   UNL     1      -0.591  10.267  18.925  0.00  0.00    +0.000 A 
BRANCH  16  19
ATOM     19  C   UNL     1      -2.367  13.373  20.278  0.00  0.00    +0.000 C 
ATOM     20  C   UNL     1      -3.816  12.972  20.524  0.00  0.00    +0.000 C 
ENDBRANCH  16  19
ENDBRANCH   9  13
BRANCH   1  22
ATOM     21  C   UNL     1       3.517   1.585  18.279  0.00  0.00    +0.000 C 
ATOM     22  C   UNL     1       4.134   2.710  19.091  0.00  0.00    +0.000 C 
ENDBRANCH   1  22
TORSDOF 3
ENDMDL
MODEL 6
REMARK VINA RESULT:      -6.6      2.002      8.795
REMARK  Name = 
REMARK  5 active torsions:
REMARK  status: ('A' for Active; 'I' for Inactive)
REMARK    1  A    between atoms: C_1  and  C_2
REMARK    2  A    between atoms: C_2  and  N_3
REMARK    3  A    between atoms: N_11  and  C_12
REMARK    4  A    between atoms: C_15  and  C_16
REMARK    5  A    between atoms: C_16  and  C_17
REMARK                            x       y       z     vdW  Elec       q    Type
REMARK                         _______ _______ _______ _____ _____    ______ ____
ROOT
ATOM      1  N   UNL     1       1.642   8.388  19.529  0.00  0.00    +0.000 N 
ATOM      2  C   UNL     1       2.486   7.387  19.077  0.00  0.00    +0.000 A 
ATOM      3  N   UNL     1       2.411   6.152  19.631  0.00  0.00    +0.000 NA
ATOM      4  C   UNL     1       3.162   5.169  19.095  0.00  0.00    +0.000 A 
ATOM      5  C   UNL     1       3.976   5.421  18.043  0.00  0.00    +0.000 A 
ATOM      6  C   UNL     1       4.028   6.700  17.558  0.00  0.00    +0.000 A 
ATOM      7  N   UNL     1       3.304   7.716  18.056  0.00  0.00    +0.000 NA
ATOM      8  C   UNL     1       4.928   6.733  16.352  0.00  0.00    +0.000 C 
ATOM      9  N   UNL     1       5.215   5.318  16.123  0.00  0.00    +0.000 N 
ATOM     10  C   UNL     1       4.732   4.536  17.174  0.00  0.00    +0.000 C 
ATOM     11  O   UNL     1       4.815   3.347  17.406  0.00  0.00    +0.000 OA
ATOM     12  H   UNL     1       2.035   9.276  19.244  0.00  0.00    +0.000 HD
ENDROOT
BRANCH   9  13
ATOM     13  C   UNL     1       5.662   4.821  14.870  0.00  0.00    +0.000 A 
ATOM     14  C   UNL     1       6.978   5.028  14.440  0.00  0.00    +0.000 A 
ATOM     15  C   UNL     1       7.465   4.434  13.272  0.00  0.00    +0.000 A 
ATOM     16  C   UNL     1       6.635   3.641  12.479  0.00  0.00    +0.000 A 
ATOM     17  C   UNL     1       5.307   3.458  12.876  0.00  0.00    +0.000 A 
ATOM     18  C   UNL     1       4.825   4.041  14.060  0.00  0.00    +0.000 A 
BRANCH  16  19
ATOM     19  C   UNL     1       7.176   2.995  11.229  0.00  0.00    +0.000 C 
ATOM     20  C   UNL     1       6.824   1.516  11.133  0.00  0.00    +0.000 C 
ENDBRANCH  16  19
ENDBRANCH   9  13
BRANCH   1  22
ATOM     21  C   UNL     1      -0.008   9.122  21.154  0.00  0.00    +0.000 C 
ATOM     22  C   UNL     1       1.226   8.270  20.914  0.00  0.00    +0.000 C 
ENDBRANCH   1  22
TORSDOF 3
ENDMDL
MODEL 7
REMARK VINA RESULT:      -6.5      2.230      8.088
REMARK  Name = 
REMARK  5 active torsions:
REMARK  status: ('A' for Active; 'I' for Inactive)
REMARK    1  A    between atoms: C_1  and  C_2
REMARK    2  A    between atoms: C_2  and  N_3
REMARK    3  A    between atoms: N_11  and  C_12
REMARK    4  A    between atoms: C_15  and  C_16
REMARK    5  A    between atoms: C_16  and  C_17
REMARK                            x       y       z     vdW  Elec       q    Type
REMARK                         _______ _______ _______ _____ _____    ______ ____
ROOT
ATOM      1  N   UNL     1      -0.527  11.323  22.630  0.00  0.00    +0.000 N 
ATOM      2  C   UNL     1      -0.066  10.723  21.470  0.00  0.00    +0.000 A 
ATOM      3  N   UNL     1      -0.019  11.441  20.322  0.00  0.00    +0.000 NA
ATOM      4  C   UNL     1       0.540  10.868  19.237  0.00  0.00    +0.000 A 
ATOM      5  C   UNL     1       1.023   9.604  19.298  0.00  0.00    +0.000 A 
ATOM      6  C   UNL     1       0.908   8.926  20.481  0.00  0.00    +0.000 A 
ATOM      7  N   UNL     1       0.358   9.448  21.590  0.00  0.00    +0.000 NA
ATOM      8  C   UNL     1       1.575   7.583  20.345  0.00  0.00    +0.000 C 
ATOM      9  N   UNL     1       2.217   7.671  19.034  0.00  0.00    +0.000 N 
ATOM     10  C   UNL     1       1.821   8.830  18.364  0.00  0.00    +0.000 C 
ATOM     11  O   UNL     1       2.063   9.245  17.249  0.00  0.00    +0.000 OA
ATOM     12  H   UNL     1      -0.783  10.588  23.278  0.00  0.00    +0.000 HD
ENDROOT
BRANCH   9  13
ATOM     13  C   UNL     1       3.300   6.835  18.655  0.00  0.00    +0.000 A 
ATOM     14  C   UNL     1       3.975   7.031  17.445  0.00  0.00    +0.000 A 
ATOM     15  C   UNL     1       5.121   6.299  17.122  0.00  0.00    +0.000 A 
ATOM     16  C   UNL     1       5.606   5.320  17.989  0.00  0.00    +0.000 A 
ATOM     17  C   UNL     1       4.919   5.086  19.184  0.00  0.00    +0.000 A 
ATOM     18  C   UNL     1       3.779   5.836  19.515  0.00  0.00    +0.000 A 
BRANCH  16  19
ATOM     19  C   UNL     1       6.851   4.547  17.635  0.00  0.00    +0.000 C 
ATOM     20  C   UNL     1       7.179   4.609  16.149  0.00  0.00    +0.000 C 
ENDBRANCH  16  19
ENDBRANCH   9  13
BRANCH   1  22
ATOM     21  C   UNL     1      -2.730  12.122  23.270  0.00  0.00    +0.000 C 
ATOM     22  C   UNL     1      -1.490  12.390  22.436  0.00  0.00    +0.000 C 
ENDBRANCH   1  22
TORSDOF 3
ENDMDL
MODEL 8
REMARK VINA RESULT:      -6.5      2.262      4.146
REMARK  Name = 
REMARK  5 active torsions:
REMARK  status: ('A' for Active; 'I' for Inactive)
REMARK    1  A    between atoms: C_1  and  C_2
REMARK    2  A    between atoms: C_2  and  N_3
REMARK    3  A    between atoms: N_11  and  C_12
REMARK    4  A    between atoms: C_15  and  C_16
REMARK    5  A    between atoms: C_16  and  C_17
REMARK                            x       y       z     vdW  Elec       q    Type
REMARK                         _______ _______ _______ _____ _____    ______ ____
ROOT
ATOM      1  N   UNL     1       5.998   3.179  12.454  0.00  0.00    +0.000 N 
ATOM      2  C   UNL     1       6.041   3.834  13.674  0.00  0.00    +0.000 A 
ATOM      3  N   UNL     1       7.035   4.721  13.919  0.00  0.00    +0.000 NA
ATOM      4  C   UNL     1       6.988   5.427  15.066  0.00  0.00    +0.000 A 
ATOM      5  C   UNL     1       5.979   5.238  15.950  0.00  0.00    +0.000 A 
ATOM      6  C   UNL     1       5.029   4.299  15.653  0.00  0.00    +0.000 A 
ATOM      7  N   UNL     1       5.030   3.567  14.527  0.00  0.00    +0.000 NA
ATOM      8  C   UNL     1       3.972   4.312  16.725  0.00  0.00    +0.000 C 
ATOM      9  N   UNL     1       4.348   5.470  17.536  0.00  0.00    +0.000 N 
ATOM     10  C   UNL     1       5.589   5.973  17.140  0.00  0.00    +0.000 C 
ATOM     11  O   UNL     1       6.282   6.866  17.584  0.00  0.00    +0.000 OA
ATOM     12  H   UNL     1       5.408   2.364  12.562  0.00  0.00    +0.000 HD
ENDROOT
BRANCH   9  13
ATOM     13  C   UNL     1       3.431   6.133  18.393  0.00  0.00    +0.000 A 
ATOM     14  C   UNL     1       3.058   5.574  19.621  0.00  0.00    +0.000 A 
ATOM     15  C   UNL     1       2.259   6.276  20.529  0.00  0.00    +0.000 A 
ATOM     16  C   UNL     1       1.780   7.549  20.218  0.00  0.00    +0.000 A 
ATOM     17  C   UNL     1       2.114   8.104  18.979  0.00  0.00    +0.000 A 
ATOM     18  C   UNL     1       2.931   7.404  18.076  0.00  0.00    +0.000 A 
BRANCH  16  19
ATOM     19  C   UNL     1       0.933   8.301  21.212  0.00  0.00    +0.000 C 
ATOM     20  C   UNL     1       0.618   9.721  20.760  0.00  0.00    +0.000 C 
ENDBRANCH  16  19
ENDBRANCH   9  13
BRANCH   1  22
ATOM     21  C   UNL     1       7.265   1.682  11.021  0.00  0.00    +0.000 C 
ATOM     22  C   UNL     1       7.283   2.979  11.812  0.00  0.00    +0.000 C 
ENDBRANCH   1  22
TORSDOF 3
ENDMDL
MODEL 9
REMARK VINA RESULT:      -6.5      2.090      8.155
REMARK  Name = 
REMARK  5 active torsions:
REMARK  status: ('A' for Active; 'I' for Inactive)
REMARK    1  A    between atoms: C_1  and  C_2
REMARK    2  A    between atoms: C_2  and  N_3
REMARK    3  A    between atoms: N_11  and  C_12
REMARK    4  A    between atoms: C_15  and  C_16
REMARK    5  A    between atoms: C_16  and  C_17
REMARK                            x       y       z     vdW  Elec       q    Type
REMARK                         _______ _______ _______ _____ _____    ______ ____
ROOT
ATOM      1  N   UNL     1      -0.501  10.786  22.821  0.00  0.00    +0.000 N 
ATOM      2  C   UNL     1      -0.053  10.266  21.618  0.00  0.00    +0.000 A 
ATOM      3  N   UNL     1      -0.163  11.007  20.490  0.00  0.00    +0.000 NA
ATOM      4  C   UNL     1       0.384  10.524  19.356  0.00  0.00    +0.000 A 
ATOM      5  C   UNL     1       1.012   9.324  19.352  0.00  0.00    +0.000 A 
ATOM      6  C   UNL     1       1.053   8.613  20.521  0.00  0.00    +0.000 A 
ATOM      7  N   UNL     1       0.522   9.047  21.676  0.00  0.00    +0.000 NA
ATOM      8  C   UNL     1       1.858   7.360  20.307  0.00  0.00    +0.000 C 
ATOM      9  N   UNL     1       2.399   7.548  18.961  0.00  0.00    +0.000 N 
ATOM     10  C   UNL     1       1.829   8.666  18.348  0.00  0.00    +0.000 C 
ATOM     11  O   UNL     1       1.948   9.128  17.232  0.00  0.00    +0.000 OA
ATOM     12  H   UNL     1      -0.628  10.014  23.464  0.00  0.00    +0.000 HD
ENDROOT
BRANCH   9  13
ATOM     13  C   UNL     1       3.542   6.850  18.491  0.00  0.00    +0.000 A 
ATOM     14  C   UNL     1       4.032   5.728  19.171  0.00  0.00    +0.000 A 
ATOM     15  C   UNL     1       5.075   4.958  18.649  0.00  0.00    +0.000 A 
ATOM     16  C   UNL     1       5.684   5.309  17.443  0.00  0.00    +0.000 A 
ATOM     17  C   UNL     1       5.230   6.450  16.773  0.00  0.00    +0.000 A 
ATOM     18  C   UNL     1       4.170   7.211  17.291  0.00  0.00    +0.000 A 
BRANCH  16  19
ATOM     19  C   UNL     1       6.798   4.461  16.884  0.00  0.00    +0.000 C 
ATOM     20  C   UNL     1       6.777   4.394  15.362  0.00  0.00    +0.000 C 
ENDBRANCH  16  19
ENDBRANCH   9  13
BRANCH   1  22
ATOM     21  C   UNL     1      -1.123  13.107  23.180  0.00  0.00    +0.000 C 
ATOM     22  C   UNL     1      -1.590  11.739  22.718  0.00  0.00    +0.000 C 
ENDBRANCH   1  22
TORSDOF 3
ENDMDL
