MODEL 1
REMARK VINA RESULT:      -6.9      0.000      0.000
REMARK  Name = 
REMARK  5 active torsions:
REMARK  status: ('A' for Active; 'I' for Inactive)
REMARK    1  A    between atoms: C_2  and  C_3
REMARK    2  A    between atoms: C_3  and  C_4
REMARK    3  A    between atoms: C_4  and  C_5
REMARK    4  A    between atoms: C_5  and  C_6
REMARK    5  A    between atoms: C_6  and  N_7
REMARK                            x       y       z     vdW  Elec       q    Type
REMARK                         _______ _______ _______ _____ _____    ______ ____
ROOT
ATOM      1  C   UNL     1      -0.025  10.560  19.330  0.00  0.00    +0.000 C 
ATOM      2  C   UNL     1       0.461  11.916  19.964  0.00  0.00    +0.000 A 
ATOM      3  C   UNL     1       1.756  12.423  19.676  0.00  0.00    +0.000 A 
ATOM      4  C   UNL     1       2.272  13.579  20.277  0.00  0.00    +0.000 A 
ATOM      5  C   UNL     1       1.517  14.270  21.197  0.00  0.00    +0.000 A 
ATOM      6  C   UNL     1       0.236  13.821  21.494  0.00  0.00    +0.000 A 
ATOM      7  C   UNL     1      -0.310  12.667  20.890  0.00  0.00    +0.000 A 
ATOM      8  C   UNL     1      -1.726  12.324  21.234  0.00  0.00    +0.000 C 
ATOM      9  C   UNL     1      -2.655  12.416  20.045  0.00  0.00    +0.000 C 
ATOM     10  C   UNL     1      -2.497  11.482  18.870  0.00  0.00    +0.000 A 
ATOM     11  C   UNL     1      -3.626  11.522  18.002  0.00  0.00    +0.000 A 
ATOM     12  C   UNL     1      -3.691  10.800  16.818  0.00  0.00    +0.000 A 
ATOM     13  C   UNL     1      -2.626   9.995  16.477  0.00  0.00    +0.000 A 
ATOM     14  C   UNL     1      -1.513   9.923  17.323  0.00  0.00    +0.000 A 
ATOM     15  C   UNL     1      -1.380  10.682  18.527  0.00  0.00    +0.000 A 
ENDROOT
BRANCH   1  17
ATOM     16  N   UNL     1       1.929   9.667  17.564  0.00  0.00    +0.000 NA
ATOM     17  C   UNL     1       1.043  10.072  18.365  0.00  0.00    +0.000 C 
ENDBRANCH   1  17
BRANCH   1  18
ATOM     18  C   UNL     1      -0.115   9.421  20.413  0.00  0.00    +0.000 C 
BRANCH  18  19
ATOM     19  C   UNL     1       1.270   8.913  20.895  0.00  0.00    +0.000 C 
BRANCH  19  20
ATOM     20  C   UNL     1       1.326   7.431  21.303  0.00  0.00    +0.000 C 
BRANCH  20  21
ATOM     21  N   UNL     1       1.468   6.483  20.182  0.00  0.00    +0.000 NA
ATOM     22  C   UNL     1       2.628   6.809  19.333  0.00  0.00    +0.000 C 
ATOM     23  C   UNL     1       2.761   5.842  18.159  0.00  0.00    +0.000 C 
ATOM     24  C   UNL     1       2.870   4.405  18.645  0.00  0.00    +0.000 C 
ATOM     25  C   UNL     1       1.695   4.081  19.558  0.00  0.00    +0.000 C 
ATOM     26  C   UNL     1       1.571   5.102  20.692  0.00  0.00    +0.000 C 
ENDBRANCH  20  21
ENDBRANCH  19  20
ENDBRANCH  18  19
ENDBRANCH   1  18
TORSDOF 5
ENDMDL
MODEL 2
REMARK VINA RESULT:      -6.7      3.067      6.216
REMARK  Name = 
REMARK  5 active torsions:
REMARK  status: ('A' for Active; 'I' for Inactive)
REMARK    1  A    between atoms: C_2  and  C_3
REMARK    2  A    between atoms: C_3  and  C_4
REMARK    3  A    between atoms: C_4  and  C_5
REMARK    4  A    between atoms: C_5  and  C_6
REMARK    5  A    between atoms: C_6  and  N_7
REMARK                            x       y       z     vdW  Elec       q    Type
REMARK                         _______ _______ _______ _____ _____    ______ ____
ROOT
ATOM      1  C   UNL     1      -1.482  11.994  20.097  0.00  0.00    +0.000 C 
ATOM      2  C   UNL     1      -0.686  10.952  20.969  0.00  0.00    +0.000 A 
ATOM      3  C   UNL     1      -1.044  10.725  22.325  0.00  0.00    +0.000 A 
ATOM      4  C   UNL     1      -0.319   9.874  23.170  0.00  0.00    +0.000 A 
ATOM      5  C   UNL     1       0.798   9.224  22.697  0.00  0.00    +0.000 A 
ATOM      6  C   UNL     1       1.172   9.402  21.371  0.00  0.00    +0.000 A 
ATOM      7  C   UNL     1       0.449  10.243  20.497  0.00  0.00    +0.000 A 
ATOM      8  C   UNL     1       0.906  10.297  19.071  0.00  0.00    +0.000 C 
ATOM      9  C   UNL     1      -0.119   9.744  18.108  0.00  0.00    +0.000 C 
ATOM     10  C   UNL     1      -1.451  10.430  17.923  0.00  0.00    +0.000 A 
ATOM     11  C   UNL     1      -2.147   9.943  16.779  0.00  0.00    +0.000 A 
ATOM     12  C   UNL     1      -3.421  10.372  16.434  0.00  0.00    +0.000 A 
ATOM     13  C   UNL     1      -4.032  11.324  17.222  0.00  0.00    +0.000 A 
ATOM     14  C   UNL     1      -3.362  11.831  18.341  0.00  0.00    +0.000 A 
ATOM     15  C   UNL     1      -2.071  11.388  18.762  0.00  0.00    +0.000 A 
ENDROOT
BRANCH   1  17
ATOM     16  N   UNL     1      -3.613  12.953  21.604  0.00  0.00    +0.000 NA
ATOM     17  C   UNL     1      -2.647  12.518  20.921  0.00  0.00    +0.000 C 
ENDBRANCH   1  17
BRANCH   1  18
ATOM     18  C   UNL     1      -0.614  13.273  19.799  0.00  0.00    +0.000 C 
BRANCH  18  19
ATOM     19  C   UNL     1       0.176  13.788  21.032  0.00  0.00    +0.000 C 
BRANCH  19  20
ATOM     20  C   UNL     1       1.623  14.230  20.752  0.00  0.00    +0.000 C 
BRANCH  20  21
ATOM     21  N   UNL     1       1.835  14.865  19.438  0.00  0.00    +0.000 NA
ATOM     22  C   UNL     1       1.558  16.312  19.477  0.00  0.00    +0.000 C 
ATOM     23  C   UNL     1       1.755  16.963  18.111  0.00  0.00    +0.000 C 
ATOM     24  C   UNL     1       3.164  16.726  17.591  0.00  0.00    +0.000 C 
ATOM     25  C   UNL     1       3.468  15.234  17.592  0.00  0.00    +0.000 C 
ATOM     26  C   UNL     1       3.211  14.613  18.967  0.00  0.00    +0.000 C 
ENDBRANCH  20  21
ENDBRANCH  19  20
ENDBRANCH  18  19
ENDBRANCH   1  18
TORSDOF 5
ENDMDL
MODEL 3
REMARK VINA RESULT:      -6.7      2.334      6.515
REMARK  Name = 
REMARK  5 active torsions:
REMARK  status: ('A' for Active; 'I' for Inactive)
REMARK    1  A    between atoms: C_2  and  C_3
REMARK    2  A    between atoms: C_3  and  C_4
REMARK    3  A    between atoms: C_4  and  C_5
REMARK    4  A    between atoms: C_5  and  C_6
REMARK    5  A    between atoms: C_6  and  N_7
REMARK                            x       y       z     vdW  Elec       q    Type
REMARK                         _______ _______ _______ _____ _____    ______ ____
ROOT
ATOM      1  C   UNL     1       0.105  10.719  19.030  0.00  0.00    +0.000 C 
ATOM      2  C   UNL     1      -1.315  10.784  18.354  0.00  0.00    +0.000 A 
ATOM      3  C   UNL     1      -1.620   9.963  17.236  0.00  0.00    +0.000 A 
ATOM      4  C   UNL     1      -2.836  10.040  16.544  0.00  0.00    +0.000 A 
ATOM      5  C   UNL     1      -3.793  10.948  16.936  0.00  0.00    +0.000 A 
ATOM      6  C   UNL     1      -3.545  11.757  18.038  0.00  0.00    +0.000 A 
ATOM      7  C   UNL     1      -2.333  11.687  18.759  0.00  0.00    +0.000 A 
ATOM      8  C   UNL     1      -2.211  12.558  19.972  0.00  0.00    +0.000 C 
ATOM      9  C   UNL     1      -2.096  11.762  21.253  0.00  0.00    +0.000 C 
ATOM     10  C   UNL     1      -0.896  10.884  21.508  0.00  0.00    +0.000 A 
ATOM     11  C   UNL     1      -0.825  10.460  22.867  0.00  0.00    +0.000 A 
ATOM     12  C   UNL     1       0.152   9.592  23.335  0.00  0.00    +0.000 A 
ATOM     13  C   UNL     1       1.107   9.137  22.452  0.00  0.00    +0.000 A 
ATOM     14  C   UNL     1       1.072   9.554  21.117  0.00  0.00    +0.000 A 
ATOM     15  C   UNL     1       0.060  10.407  20.578  0.00  0.00    +0.000 A 
ENDROOT
BRANCH   1  17
ATOM     16  N   UNL     1       1.568   8.698  17.802  0.00  0.00    +0.000 NA
ATOM     17  C   UNL     1       0.905   9.614  18.359  0.00  0.00    +0.000 C 
ENDBRANCH   1  17
BRANCH   1  18
ATOM     18  C   UNL     1       0.936  12.025  18.744  0.00  0.00    +0.000 C 
BRANCH  18  19
ATOM     19  C   UNL     1       1.659  12.587  19.998  0.00  0.00    +0.000 C 
BRANCH  19  20
ATOM     20  C   UNL     1       1.233  14.002  20.427  0.00  0.00    +0.000 C 
BRANCH  20  21
ATOM     21  N   UNL     1       1.986  15.097  19.790  0.00  0.00    +0.000 NA
ATOM     22  C   UNL     1       3.225  14.614  19.156  0.00  0.00    +0.000 C 
ATOM     23  C   UNL     1       4.017  15.752  18.517  0.00  0.00    +0.000 C 
ATOM     24  C   UNL     1       3.174  16.496  17.493  0.00  0.00    +0.000 C 
ATOM     25  C   UNL     1       1.874  16.958  18.136  0.00  0.00    +0.000 C 
ATOM     26  C   UNL     1       1.138  15.794  18.805  0.00  0.00    +0.000 C 
ENDBRANCH  20  21
ENDBRANCH  19  20
ENDBRANCH  18  19
ENDBRANCH   1  18
TORSDOF 5
ENDMDL
MODEL 4
REMARK VINA RESULT:      -6.7      3.001      6.139
REMARK  Name = 
REMARK  5 active torsions:
REMARK  status: ('A' for Active; 'I' for Inactive)
REMARK    1  A    between atoms: C_2  and  C_3
REMARK    2  A    between atoms: C_3  and  C_4
REMARK    3  A    between atoms: C_4  and  C_5
REMARK    4  A    between atoms: C_5  and  C_6
REMARK    5  A    between atoms: C_6  and  N_7
REMARK                            x       y       z     vdW  Elec       q    Type
REMARK                         _______ _______ _______ _____ _____    ______ ____
ROOT
ATOM      1  C   UNL     1      -1.388  12.020  19.838  0.00  0.00    +0.000 C 
ATOM      2  C   UNL     1      -0.651  10.976  20.758  0.00  0.00    +0.000 A 
ATOM      3  C   UNL     1      -0.994  10.856  22.130  0.00  0.00    +0.000 A 
ATOM      4  C   UNL     1      -0.315  10.005  23.013  0.00  0.00    +0.000 A 
ATOM      5  C   UNL     1       0.740   9.247  22.560  0.00  0.00    +0.000 A 
ATOM      6  C   UNL     1       1.097   9.318  21.219  0.00  0.00    +0.000 A 
ATOM      7  C   UNL     1       0.418  10.157  20.309  0.00  0.00    +0.000 A 
ATOM      8  C   UNL     1       0.846  10.094  18.875  0.00  0.00    +0.000 C 
ATOM      9  C   UNL     1      -0.238   9.563  17.965  0.00  0.00    +0.000 C 
ATOM     10  C   UNL     1      -1.520  10.333  17.763  0.00  0.00    +0.000 A 
ATOM     11  C   UNL     1      -2.274   9.834  16.662  0.00  0.00    +0.000 A 
ATOM     12  C   UNL     1      -3.522  10.335  16.316  0.00  0.00    +0.000 A 
ATOM     13  C   UNL     1      -4.044  11.374  17.055  0.00  0.00    +0.000 A 
ATOM     14  C   UNL     1      -3.314  11.895  18.129  0.00  0.00    +0.000 A 
ATOM     15  C   UNL     1      -2.049  11.383  18.553  0.00  0.00    +0.000 A 
ENDROOT
BRANCH   1  17
ATOM     16  N   UNL     1      -3.409  13.222  21.323  0.00  0.00    +0.000 NA
ATOM     17  C   UNL     1      -2.493  12.677  20.650  0.00  0.00    +0.000 C 
ENDBRANCH   1  17
BRANCH   1  18
ATOM     18  C   UNL     1      -0.436  13.212  19.448  0.00  0.00    +0.000 C 
BRANCH  18  19
ATOM     19  C   UNL     1       0.429  13.727  20.629  0.00  0.00    +0.000 C 
BRANCH  19  20
ATOM     20  C   UNL     1       1.949  13.553  20.460  0.00  0.00    +0.000 C 
BRANCH  20  21
ATOM     21  N   UNL     1       2.622  14.648  19.738  0.00  0.00    +0.000 NA
ATOM     22  C   UNL     1       2.873  14.301  18.328  0.00  0.00    +0.000 C 
ATOM     23  C   UNL     1       3.592  15.425  17.586  0.00  0.00    +0.000 C 
ATOM     24  C   UNL     1       2.800  16.721  17.661  0.00  0.00    +0.000 C 
ATOM     25  C   UNL     1       2.502  17.058  19.115  0.00  0.00    +0.000 C 
ATOM     26  C   UNL     1       1.826  15.887  19.832  0.00  0.00    +0.000 C 
ENDBRANCH  20  21
ENDBRANCH  19  20
ENDBRANCH  18  19
ENDBRANCH   1  18
TORSDOF 5
ENDMDL
MODEL 5
REMARK VINA RESULT:      -6.7      2.346      6.783
REMARK  Name = 
REMARK  5 active torsions:
REMARK  status: ('A' for Active; 'I' for Inactive)
REMARK    1  A    between atoms: C_2  and  C_3
REMARK    2  A    between atoms: C_3  and  C_4
REMARK    3  A    between atoms: C_4  and  C_5
REMARK    4  A    between atoms: C_5  and  C_6
REMARK    5  A    between atoms: C_6  and  N_7
REMARK                            x       y       z     vdW  Elec       q    Type
REMARK                         _______ _______ _______ _____ _____    ______ ____
ROOT
ATOM      1  C   UNL     1       0.143  10.686  19.024  0.00  0.00    +0.000 C 
ATOM      2  C   UNL     1      -1.270  10.758  18.333  0.00  0.00    +0.000 A 
ATOM      3  C   UNL     1      -1.571   9.930  17.220  0.00  0.00    +0.000 A 
ATOM      4  C   UNL     1      -2.780  10.011  16.516  0.00  0.00    +0.000 A 
ATOM      5  C   UNL     1      -3.732  10.932  16.891  0.00  0.00    +0.000 A 
ATOM      6  C   UNL     1      -3.488  11.748  17.988  0.00  0.00    +0.000 A 
ATOM      7  C   UNL     1      -2.283  11.674  18.721  0.00  0.00    +0.000 A 
ATOM      8  C   UNL     1      -2.164  12.554  19.927  0.00  0.00    +0.000 C 
ATOM      9  C   UNL     1      -2.069  11.769  21.216  0.00  0.00    +0.000 C 
ATOM     10  C   UNL     1      -0.879  10.882  21.491  0.00  0.00    +0.000 A 
ATOM     11  C   UNL     1      -0.826  10.469  22.853  0.00  0.00    +0.000 A 
ATOM     12  C   UNL     1       0.139   9.597  23.338  0.00  0.00    +0.000 A 
ATOM     13  C   UNL     1       1.099   9.126  22.469  0.00  0.00    +0.000 A 
ATOM     14  C   UNL     1       1.080   9.531  21.130  0.00  0.00    +0.000 A 
ATOM     15  C   UNL     1       0.081  10.389  20.574  0.00  0.00    +0.000 A 
ENDROOT
BRANCH   1  17
ATOM     16  N   UNL     1       1.600   8.641  17.827  0.00  0.00    +0.000 NA
ATOM     17  C   UNL     1       0.939   9.568  18.370  0.00  0.00    +0.000 C 
ENDBRANCH   1  17
BRANCH   1  18
ATOM     18  C   UNL     1       0.989  11.982  18.734  0.00  0.00    +0.000 C 
BRANCH  18  19
ATOM     19  C   UNL     1       1.444  12.725  20.018  0.00  0.00    +0.000 C 
BRANCH  19  20
ATOM     20  C   UNL     1       2.292  13.988  19.787  0.00  0.00    +0.000 C 
BRANCH  20  21
ATOM     21  N   UNL     1       1.684  14.987  18.888  0.00  0.00    +0.000 NA
ATOM     22  C   UNL     1       0.420  15.515  19.432  0.00  0.00    +0.000 C 
ATOM     23  C   UNL     1      -0.221  16.532  18.490  0.00  0.00    +0.000 C 
ATOM     24  C   UNL     1       0.731  17.682  18.199  0.00  0.00    +0.000 C 
ATOM     25  C   UNL     1       2.053  17.135  17.679  0.00  0.00    +0.000 C 
ATOM     26  C   UNL     1       2.635  16.085  18.630  0.00  0.00    +0.000 C 
ENDBRANCH  20  21
ENDBRANCH  19  20
ENDBRANCH  18  19
ENDBRANCH   1  18
TORSDOF 5
ENDMDL
MODEL 6
REMARK VINA RESULT:      -6.7      3.201      6.838
REMARK  Name = 
REMARK  5 active torsions:
REMARK  status: ('A' for Active; 'I' for Inactive)
REMARK    1  A    between atoms: C_2  and  C_3
REMARK    2  A    between atoms: C_3  and  C_4
REMARK    3  A    between atoms: C_4  and  C_5
REMARK    4  A    between atoms: C_5  and  C_6
REMARK    5  A    between atoms: C_6  and  N_7
REMARK                            x       y       z     vdW  Elec       q    Type
REMARK                         _______ _______ _______ _____ _____    ______ ____
ROOT
ATOM      1  C   UNL     1      -1.454  11.927  20.084  0.00  0.00    +0.000 C 
ATOM      2  C   UNL     1      -0.643  10.888  20.945  0.00  0.00    +0.000 A 
ATOM      3  C   UNL     1      -0.982  10.657  22.305  0.00  0.00    +0.000 A 
ATOM      4  C   UNL     1      -0.243   9.808  23.139  0.00  0.00    +0.000 A 
ATOM      5  C   UNL     1       0.870   9.163  22.650  0.00  0.00    +0.000 A 
ATOM      6  C   UNL     1       1.225   9.343  21.320  0.00  0.00    +0.000 A 
ATOM      7  C   UNL     1       0.488  10.183  20.456  0.00  0.00    +0.000 A 
ATOM      8  C   UNL     1       0.926  10.241  19.025  0.00  0.00    +0.000 C 
ATOM      9  C   UNL     1      -0.110   9.685  18.075  0.00  0.00    +0.000 C 
ATOM     10  C   UNL     1      -1.447  10.366  17.909  0.00  0.00    +0.000 A 
ATOM     11  C   UNL     1      -2.156   9.879  16.773  0.00  0.00    +0.000 A 
ATOM     12  C   UNL     1      -3.437  10.303  16.446  0.00  0.00    +0.000 A 
ATOM     13  C   UNL     1      -4.040  11.252  17.243  0.00  0.00    +0.000 A 
ATOM     14  C   UNL     1      -3.357  11.761  18.353  0.00  0.00    +0.000 A 
ATOM     15  C   UNL     1      -2.059  11.322  18.757  0.00  0.00    +0.000 A 
ENDROOT
BRANCH   1  17
ATOM     16  N   UNL     1      -3.568  12.877  21.621  0.00  0.00    +0.000 NA
ATOM     17  C   UNL     1      -2.610  12.446  20.924  0.00  0.00    +0.000 C 
ENDBRANCH   1  17
BRANCH   1  18
ATOM     18  C   UNL     1      -0.595  13.210  19.776  0.00  0.00    +0.000 C 
BRANCH  18  19
ATOM     19  C   UNL     1      -0.216  14.022  21.044  0.00  0.00    +0.000 C 
BRANCH  19  20
ATOM     20  C   UNL     1      -0.218  15.551  20.876  0.00  0.00    +0.000 C 
BRANCH  20  21
ATOM     21  N   UNL     1       0.099  16.026  19.516  0.00  0.00    +0.000 NA
ATOM     22  C   UNL     1      -0.877  17.025  19.044  0.00  0.00    +0.000 C 
ATOM     23  C   UNL     1      -0.562  17.499  17.627  0.00  0.00    +0.000 C 
ATOM     24  C   UNL     1       0.842  18.076  17.544  0.00  0.00    +0.000 C 
ATOM     25  C   UNL     1       1.847  17.061  18.073  0.00  0.00    +0.000 C 
ATOM     26  C   UNL     1       1.466  16.578  19.475  0.00  0.00    +0.000 C 
ENDBRANCH  20  21
ENDBRANCH  19  20
ENDBRANCH  18  19
ENDBRANCH   1  18
TORSDOF 5
ENDMDL
MODEL 7
REMARK VINA RESULT:      -6.6      2.534      6.161
REMARK  Name = 
REMARK  5 active torsions:
REMARK  status: ('A' for Active; 'I' for Inactive)
REMARK    1  A    between atoms: C_2  and  C_3
REMARK    2  A    between atoms: C_3  and  C_4
REMARK    3  A    between atoms: C_4  and  C_5
REMARK    4  A    between atoms: C_5  and  C_6
REMARK    5  A    between atoms: C_6  and  N_7
REMARK                            x       y       z     vdW  Elec       q    Type
REMARK                         _______ _______ _______ _____ _____    ______ ____
ROOT
ATOM      1  C   UNL     1       0.279  11.394  19.199  0.00  0.00    +0.000 C 
ATOM      2  C   UNL     1       0.062  10.788  20.636  0.00  0.00    +0.000 A 
ATOM      3  C   UNL     1       0.523   9.480  20.945  0.00  0.00    +0.000 A 
ATOM      4  C   UNL     1       0.284   8.860  22.178  0.00  0.00    +0.000 A 
ATOM      5  C   UNL     1      -0.435   9.519  23.150  0.00  0.00    +0.000 A 
ATOM      6  C   UNL     1      -0.887  10.808  22.898  0.00  0.00    +0.000 A 
ATOM      7  C   UNL     1      -0.646  11.458  21.668  0.00  0.00    +0.000 A 
ATOM      8  C   UNL     1      -1.120  12.873  21.542  0.00  0.00    +0.000 C 
ATOM      9  C   UNL     1       0.016  13.857  21.375  0.00  0.00    +0.000 C 
ATOM     10  C   UNL     1       0.891  13.822  20.146  0.00  0.00    +0.000 A 
ATOM     11  C   UNL     1       1.698  14.992  20.033  0.00  0.00    +0.000 A 
ATOM     12  C   UNL     1       2.633  15.166  19.022  0.00  0.00    +0.000 A 
ATOM     13  C   UNL     1       2.773  14.175  18.075  0.00  0.00    +0.000 A 
ATOM     14  C   UNL     1       1.979  13.025  18.153  0.00  0.00    +0.000 A 
ATOM     15  C   UNL     1       1.038  12.779  19.200  0.00  0.00    +0.000 A 
ENDROOT
BRANCH   1  17
ATOM     16  N   UNL     1       1.794   9.598  17.711  0.00  0.00    +0.000 NA
ATOM     17  C   UNL     1       1.107  10.412  18.386  0.00  0.00    +0.000 C 
ENDBRANCH   1  17
BRANCH   1  18
ATOM     18  C   UNL     1      -1.080  11.498  18.411  0.00  0.00    +0.000 C 
BRANCH  18  19
ATOM     19  C   UNL     1      -1.789  10.131  18.214  0.00  0.00    +0.000 C 
BRANCH  19  20
ATOM     20  C   UNL     1      -3.027  10.153  17.301  0.00  0.00    +0.000 C 
BRANCH  20  21
ATOM     21  N   UNL     1      -4.131  11.009  17.773  0.00  0.00    +0.000 NA
ATOM     22  C   UNL     1      -4.751  11.763  16.669  0.00  0.00    +0.000 C 
ATOM     23  C   UNL     1      -5.878  12.666  17.162  0.00  0.00    +0.000 C 
ATOM     24  C   UNL     1      -6.942  11.862  17.894  0.00  0.00    +0.000 C 
ATOM     25  C   UNL     1      -6.296  11.049  19.007  0.00  0.00    +0.000 C 
ATOM     26  C   UNL     1      -5.141  10.196  18.477  0.00  0.00    +0.000 C 
ENDBRANCH  20  21
ENDBRANCH  19  20
ENDBRANCH  18  19
ENDBRANCH   1  18
TORSDOF 5
ENDMDL
MODEL 8
REMARK VINA RESULT:      -6.6      2.532      6.384
REMARK  Name = 
REMARK  5 active torsions:
REMARK  status: ('A' for Active; 'I' for Inactive)
REMARK    1  A    between atoms: C_2  and  C_3
REMARK    2  A    between atoms: C_3  and  C_4
REMARK    3  A    between atoms: C_4  and  C_5
REMARK    4  A    between atoms: C_5  and  C_6
REMARK    5  A    between atoms: C_6  and  N_7
REMARK                            x       y       z     vdW  Elec       q    Type
REMARK                         _______ _______ _______ _____ _____    ______ ____
ROOT
ATOM      1  C   UNL     1       0.510  11.544  19.245  0.00  0.00    +0.000 C 
ATOM      2  C   UNL     1       0.140  10.884  20.626  0.00  0.00    +0.000 A 
ATOM      3  C   UNL     1       0.334   9.493  20.835  0.00  0.00    +0.000 A 
ATOM      4  C   UNL     1      -0.056   8.839  22.011  0.00  0.00    +0.000 A 
ATOM      5  C   UNL     1      -0.664   9.548  23.022  0.00  0.00    +0.000 A 
ATOM      6  C   UNL     1      -0.854  10.915  22.868  0.00  0.00    +0.000 A 
ATOM      7  C   UNL     1      -0.457  11.598  21.698  0.00  0.00    +0.000 A 
ATOM      8  C   UNL     1      -0.649  13.084  21.678  0.00  0.00    +0.000 C 
ATOM      9  C   UNL     1       0.659  13.840  21.607  0.00  0.00    +0.000 C 
ATOM     10  C   UNL     1       1.547  13.731  20.391  0.00  0.00    +0.000 A 
ATOM     11  C   UNL     1       2.564  14.728  20.383  0.00  0.00    +0.000 A 
ATOM     12  C   UNL     1       3.544  14.795  19.403  0.00  0.00    +0.000 A 
ATOM     13  C   UNL     1       3.520  13.870  18.382  0.00  0.00    +0.000 A 
ATOM     14  C   UNL     1       2.520  12.892  18.357  0.00  0.00    +0.000 A 
ATOM     15  C   UNL     1       1.519  12.753  19.367  0.00  0.00    +0.000 A 
ENDROOT
BRANCH   1  17
ATOM     16  N   UNL     1       1.698   9.608  17.639  0.00  0.00    +0.000 NA
ATOM     17  C   UNL     1       1.159  10.486  18.367  0.00  0.00    +0.000 C 
ENDBRANCH   1  17
BRANCH   1  18
ATOM     18  C   UNL     1      -0.780  11.967  18.448  0.00  0.00    +0.000 C 
BRANCH  18  19
ATOM     19  C   UNL     1      -1.814  10.820  18.288  0.00  0.00    +0.000 C 
BRANCH  19  20
ATOM     20  C   UNL     1      -3.142  11.216  17.621  0.00  0.00    +0.000 C 
BRANCH  20  21
ATOM     21  N   UNL     1      -4.323  11.154  18.503  0.00  0.00    +0.000 NA
ATOM     22  C   UNL     1      -4.376  12.301  19.427  0.00  0.00    +0.000 C 
ATOM     23  C   UNL     1      -5.585  12.225  20.356  0.00  0.00    +0.000 C 
ATOM     24  C   UNL     1      -6.880  12.147  19.562  0.00  0.00    +0.000 C 
ATOM     25  C   UNL     1      -6.808  10.989  18.575  0.00  0.00    +0.000 C 
ATOM     26  C   UNL     1      -5.557  11.080  17.698  0.00  0.00    +0.000 C 
ENDBRANCH  20  21
ENDBRANCH  19  20
ENDBRANCH  18  19
ENDBRANCH   1  18
TORSDOF 5
ENDMDL
MODEL 9
REMARK VINA RESULT:      -6.5      1.009      1.199
REMARK  Name = 
REMARK  5 active torsions:
REMARK  status: ('A' for Active; 'I' for Inactive)
REMARK    1  A    between atoms: C_2  and  C_3
REMARK    2  A    between atoms: C_3  and  C_4
REMARK    3  A    between atoms: C_4  and  C_5
REMARK    4  A    between atoms: C_5  and  C_6
REMARK    5  A    between atoms: C_6  and  N_7
REMARK                            x       y       z     vdW  Elec       q    Type
REMARK                         _______ _______ _______ _____ _____    ______ ____
ROOT
ATOM      1  C   UNL     1       0.650  11.055  19.225  0.00  0.00    +0.000 C 
ATOM      2  C   UNL     1       1.290  12.492  19.182  0.00  0.00    +0.000 A 
ATOM      3  C   UNL     1       2.438  12.747  18.387  0.00  0.00    +0.000 A 
ATOM      4  C   UNL     1       3.098  13.983  18.376  0.00  0.00    +0.000 A 
ATOM      5  C   UNL     1       2.641  15.012  19.168  0.00  0.00    +0.000 A 
ATOM      6  C   UNL     1       1.508  14.813  19.947  0.00  0.00    +0.000 A 
ATOM      7  C   UNL     1       0.819  13.581  19.963  0.00  0.00    +0.000 A 
ATOM      8  C   UNL     1      -0.431  13.510  20.786  0.00  0.00    +0.000 C 
ATOM      9  C   UNL     1      -1.669  13.284  19.948  0.00  0.00    +0.000 C 
ATOM     10  C   UNL     1      -1.856  11.998  19.180  0.00  0.00    +0.000 A 
ATOM     11  C   UNL     1      -3.190  11.851  18.704  0.00  0.00    +0.000 A 
ATOM     12  C   UNL     1      -3.594  10.782  17.915  0.00  0.00    +0.000 A 
ATOM     13  C   UNL     1      -2.669   9.812  17.596  0.00  0.00    +0.000 A 
ATOM     14  C   UNL     1      -1.357   9.924  18.067  0.00  0.00    +0.000 A 
ATOM     15  C   UNL     1      -0.882  11.027  18.841  0.00  0.00    +0.000 A 
ENDROOT
BRANCH   1  17
ATOM     16  N   UNL     1       2.006   9.438  17.413  0.00  0.00    +0.000 NA
ATOM     17  C   UNL     1       1.391  10.171  18.235  0.00  0.00    +0.000 C 
ENDBRANCH   1  17
BRANCH   1  18
ATOM     18  C   UNL     1       0.893  10.360  20.617  0.00  0.00    +0.000 C 
BRANCH  18  19
ATOM     19  C   UNL     1       0.490   8.861  20.641  0.00  0.00    +0.000 C 
BRANCH  19  20
ATOM     20  C   UNL     1       1.638   7.873  20.913  0.00  0.00    +0.000 C 
BRANCH  20  21
ATOM     21  N   UNL     1       1.647   6.679  20.047  0.00  0.00    +0.000 NA
ATOM     22  C   UNL     1       2.833   6.645  19.174  0.00  0.00    +0.000 C 
ATOM     23  C   UNL     1       2.830   5.421  18.261  0.00  0.00    +0.000 C 
ATOM     24  C   UNL     1       2.754   4.136  19.072  0.00  0.00    +0.000 C 
ATOM     25  C   UNL     1       1.553   4.189  20.007  0.00  0.00    +0.000 C 
ATOM     26  C   UNL     1       1.572   5.455  20.867  0.00  0.00    +0.000 C 
ENDBRANCH  20  21
ENDBRANCH  19  20
ENDBRANCH  18  19
ENDBRANCH   1  18
TORSDOF 5
ENDMDL
