MODEL 1
REMARK VINA RESULT:      -7.3      0.000      0.000
REMARK  Name = 
REMARK  7 active torsions:
REMARK  status: ('A' for Active; 'I' for Inactive)
REMARK    1  A    between atoms: C_2  and  C_5
REMARK    2  A    between atoms: C_10  and  N_11
REMARK    3  A    between atoms: C_13  and  C_14
REMARK    4  A    between atoms: C_14  and  O_15
REMARK    5  A    between atoms: O_15  and  C_16
REMARK    6  A    between atoms: C_16  and  C_17
REMARK    7  A    between atoms: C_22  and  S_23
REMARK                            x       y       z     vdW  Elec       q    Type
REMARK                         _______ _______ _______ _____ _____    ______ ____
ROOT
ATOM      1  N   UNL     1       2.354   6.009  18.881  0.00  0.00    +0.000 N 
ATOM      2  C   UNL     1       2.267   7.055  17.989  0.00  0.00    +0.000 A 
ATOM      3  C   UNL     1       2.060   8.175  18.764  0.00  0.00    +0.000 A 
ATOM      4  N   UNL     1       1.999   7.801  20.071  0.00  0.00    +0.000 NA
ATOM      5  N   UNL     1       2.167   6.490  20.126  0.00  0.00    +0.000 NA
ENDROOT
BRANCH   1  11
ATOM      6  C   UNL     1       3.947   4.142  18.406  0.00  0.00    +0.000 A 
ATOM      7  C   UNL     1       4.106   2.768  18.107  0.00  0.00    +0.000 A 
ATOM      8  C   UNL     1       3.017   1.901  18.025  0.00  0.00    +0.000 A 
ATOM      9  C   UNL     1       1.739   2.384  18.245  0.00  0.00    +0.000 A 
ATOM     10  C   UNL     1       1.544   3.735  18.539  0.00  0.00    +0.000 A 
ATOM     11  C   UNL     1       2.632   4.633  18.616  0.00  0.00    +0.000 A 
BRANCH   6  13
ATOM     12  F   UNL     1       6.344   4.221  18.318  0.00  0.00    +0.000 F 
ATOM     13  C   UNL     1       5.213   4.978  18.479  0.00  0.00    +0.000 C 
ATOM     14  F   UNL     1       5.387   5.591  19.680  0.00  0.00    +0.000 F 
ATOM     15  F   UNL     1       5.300   5.923  17.505  0.00  0.00    +0.000 F 
ENDBRANCH   6  13
ENDBRANCH   1  11
BRANCH   3  16
ATOM     16  C   UNL     1       1.891   9.589  18.353  0.00  0.00    +0.000 C 
BRANCH  16  17
ATOM     17  O   UNL     1       0.581   9.785  17.832  0.00  0.00    +0.000 OA
BRANCH  17  18
ATOM     18  C   UNL     1      -0.255  10.525  18.721  0.00  0.00    +0.000 C 
BRANCH  18  19
ATOM     19  C   UNL     1      -1.621  10.670  18.091  0.00  0.00    +0.000 A 
ATOM     20  C   UNL     1      -1.935   9.888  16.959  0.00  0.00    +0.000 A 
ATOM     21  C   UNL     1      -3.169   9.992  16.323  0.00  0.00    +0.000 A 
ATOM     22  C   UNL     1      -4.123  10.875  16.813  0.00  0.00    +0.000 A 
ATOM     23  C   UNL     1      -3.850  11.629  17.955  0.00  0.00    +0.000 A 
ATOM     24  C   UNL     1      -2.612  11.527  18.609  0.00  0.00    +0.000 A 
BRANCH  24  25
ATOM     25  S   UNL     1      -2.369  12.473  20.109  0.00  0.00    +0.000 S 
ATOM     26  H   UNL     1      -2.950  11.608  20.951  0.00  0.00    +0.000 HD
ENDBRANCH  24  25
ENDBRANCH  18  19
ENDBRANCH  17  18
ENDBRANCH  16  17
ENDBRANCH   3  16
TORSDOF 7
ENDMDL
MODEL 2
REMARK VINA RESULT:      -7.3      3.311      4.709
REMARK  Name = 
REMARK  7 active torsions:
REMARK  status: ('A' for Active; 'I' for Inactive)
REMARK    1  A    between atoms: C_2  and  C_5
REMARK    2  A    between atoms: C_10  and  N_11
REMARK    3  A    between atoms: C_13  and  C_14
REMARK    4  A    between atoms: C_14  and  O_15
REMARK    5  A    between atoms: O_15  and  C_16
REMARK    6  A    between atoms: C_16  and  C_17
REMARK    7  A    between atoms: C_22  and  S_23
REMARK                            x       y       z     vdW  Elec       q    Type
REMARK                         _______ _______ _______ _____ _____    ______ ____
ROOT
ATOM      1  N   UNL     1       5.199   4.238  17.792  0.00  0.00    +0.000 N 
ATOM      2  C   UNL     1       3.897   4.533  18.132  0.00  0.00    +0.000 A 
ATOM      3  C   UNL     1       3.785   4.190  19.462  0.00  0.00    +0.000 A 
ATOM      4  N   UNL     1       4.972   3.683  19.888  0.00  0.00    +0.000 NA
ATOM      5  N   UNL     1       5.815   3.708  18.867  0.00  0.00    +0.000 NA
ENDROOT
BRANCH   1  11
ATOM      6  C   UNL     1       6.759   5.549  16.343  0.00  0.00    +0.000 A 
ATOM      7  C   UNL     1       7.334   5.704  15.060  0.00  0.00    +0.000 A 
ATOM      8  C   UNL     1       7.056   4.823  14.016  0.00  0.00    +0.000 A 
ATOM      9  C   UNL     1       6.198   3.758  14.228  0.00  0.00    +0.000 A 
ATOM     10  C   UNL     1       5.609   3.575  15.481  0.00  0.00    +0.000 A 
ATOM     11  C   UNL     1       5.868   4.463  16.550  0.00  0.00    +0.000 A 
BRANCH   6  13
ATOM     12  F   UNL     1       7.861   6.003  18.426  0.00  0.00    +0.000 F 
ATOM     13  C   UNL     1       7.153   6.568  17.398  0.00  0.00    +0.000 C 
ATOM     14  F   UNL     1       6.088   7.156  18.006  0.00  0.00    +0.000 F 
ATOM     15  F   UNL     1       7.969   7.551  16.930  0.00  0.00    +0.000 F 
ENDBRANCH   6  13
ENDBRANCH   1  11
BRANCH   3  16
ATOM     16  C   UNL     1       2.613   4.286  20.364  0.00  0.00    +0.000 C 
BRANCH  16  17
ATOM     17  O   UNL     1       1.772   5.357  19.950  0.00  0.00    +0.000 OA
BRANCH  17  18
ATOM     18  C   UNL     1       1.950   6.529  20.744  0.00  0.00    +0.000 C 
BRANCH  18  19
ATOM     19  C   UNL     1       1.803   7.742  19.853  0.00  0.00    +0.000 A 
ATOM     20  C   UNL     1       2.390   7.718  18.570  0.00  0.00    +0.000 A 
ATOM     21  C   UNL     1       2.307   8.813  17.713  0.00  0.00    +0.000 A 
ATOM     22  C   UNL     1       1.624   9.952  18.118  0.00  0.00    +0.000 A 
ATOM     23  C   UNL     1       1.002   9.984  19.366  0.00  0.00    +0.000 A 
ATOM     24  C   UNL     1       1.072   8.883  20.236  0.00  0.00    +0.000 A 
BRANCH  24  25
ATOM     25  S   UNL     1       0.185   8.976  21.787  0.00  0.00    +0.000 S 
ATOM     26  H   UNL     1       0.556  10.220  22.121  0.00  0.00    +0.000 HD
ENDBRANCH  24  25
ENDBRANCH  18  19
ENDBRANCH  17  18
ENDBRANCH  16  17
ENDBRANCH   3  16
TORSDOF 7
ENDMDL
MODEL 3
REMARK VINA RESULT:      -7.2      1.885      2.582
REMARK  Name = 
REMARK  7 active torsions:
REMARK  status: ('A' for Active; 'I' for Inactive)
REMARK    1  A    between atoms: C_2  and  C_5
REMARK    2  A    between atoms: C_10  and  N_11
REMARK    3  A    between atoms: C_13  and  C_14
REMARK    4  A    between atoms: C_14  and  O_15
REMARK    5  A    between atoms: O_15  and  C_16
REMARK    6  A    between atoms: C_16  and  C_17
REMARK    7  A    between atoms: C_22  and  S_23
REMARK                            x       y       z     vdW  Elec       q    Type
REMARK                         _______ _______ _______ _____ _____    ______ ____
ROOT
ATOM      1  N   UNL     1       3.105   6.740  18.457  0.00  0.00    +0.000 N 
ATOM      2  C   UNL     1       2.415   7.897  18.174  0.00  0.00    +0.000 A 
ATOM      3  C   UNL     1       1.807   8.254  19.358  0.00  0.00    +0.000 A 
ATOM      4  N   UNL     1       2.105   7.324  20.305  0.00  0.00    +0.000 NA
ATOM      5  N   UNL     1       2.882   6.410  19.745  0.00  0.00    +0.000 NA
ENDROOT
BRANCH   1  11
ATOM      6  C   UNL     1       3.687   4.643  17.226  0.00  0.00    +0.000 A 
ATOM      7  C   UNL     1       4.628   3.972  16.410  0.00  0.00    +0.000 A 
ATOM      8  C   UNL     1       5.796   4.591  15.969  0.00  0.00    +0.000 A 
ATOM      9  C   UNL     1       6.054   5.903  16.328  0.00  0.00    +0.000 A 
ATOM     10  C   UNL     1       5.149   6.596  17.135  0.00  0.00    +0.000 A 
ATOM     11  C   UNL     1       3.964   5.984  17.603  0.00  0.00    +0.000 A 
BRANCH   6  13
ATOM     12  F   UNL     1       1.292   4.542  17.345  0.00  0.00    +0.000 F 
ATOM     13  C   UNL     1       2.448   3.862  17.628  0.00  0.00    +0.000 C 
ATOM     14  F   UNL     1       2.375   3.614  18.962  0.00  0.00    +0.000 F 
ATOM     15  F   UNL     1       2.310   2.680  16.969  0.00  0.00    +0.000 F 
ENDBRANCH   6  13
ENDBRANCH   1  11
BRANCH   3  16
ATOM     16  C   UNL     1       0.933   9.413  19.658  0.00  0.00    +0.000 C 
BRANCH  16  17
ATOM     17  O   UNL     1       0.700  10.161  18.469  0.00  0.00    +0.000 OA
BRANCH  17  18
ATOM     18  C   UNL     1      -0.049  11.351  18.711  0.00  0.00    +0.000 C 
BRANCH  18  19
ATOM     19  C   UNL     1      -1.484  11.112  18.299  0.00  0.00    +0.000 A 
ATOM     20  C   UNL     1      -1.755  10.136  17.317  0.00  0.00    +0.000 A 
ATOM     21  C   UNL     1      -3.054   9.884  16.881  0.00  0.00    +0.000 A 
ATOM     22  C   UNL     1      -4.112  10.598  17.428  0.00  0.00    +0.000 A 
ATOM     23  C   UNL     1      -3.872  11.539  18.430  0.00  0.00    +0.000 A 
ATOM     24  C   UNL     1      -2.567  11.795  18.883  0.00  0.00    +0.000 A 
BRANCH  24  25
ATOM     25  S   UNL     1      -2.353  12.963  20.222  0.00  0.00    +0.000 S 
ATOM     26  H   UNL     1      -3.642  13.307  20.355  0.00  0.00    +0.000 HD
ENDBRANCH  24  25
ENDBRANCH  18  19
ENDBRANCH  17  18
ENDBRANCH  16  17
ENDBRANCH   3  16
TORSDOF 7
ENDMDL
MODEL 4
REMARK VINA RESULT:      -7.1      5.774      8.278
REMARK  Name = 
REMARK  7 active torsions:
REMARK  status: ('A' for Active; 'I' for Inactive)
REMARK    1  A    between atoms: C_2  and  C_5
REMARK    2  A    between atoms: C_10  and  N_11
REMARK    3  A    between atoms: C_13  and  C_14
REMARK    4  A    between atoms: C_14  and  O_15
REMARK    5  A    between atoms: O_15  and  C_16
REMARK    6  A    between atoms: C_16  and  C_17
REMARK    7  A    between atoms: C_22  and  S_23
REMARK                            x       y       z     vdW  Elec       q    Type
REMARK                         _______ _______ _______ _____ _____    ______ ____
ROOT
ATOM      1  N   UNL     1       5.673   5.702  17.437  0.00  0.00    +0.000 N 
ATOM      2  C   UNL     1       6.359   6.284  18.480  0.00  0.00    +0.000 A 
ATOM      3  C   UNL     1       7.368   7.012  17.888  0.00  0.00    +0.000 A 
ATOM      4  N   UNL     1       7.299   6.845  16.540  0.00  0.00    +0.000 NA
ATOM      5  N   UNL     1       6.278   6.044  16.282  0.00  0.00    +0.000 NA
ENDROOT
BRANCH   1  11
ATOM      6  C   UNL     1       3.206   5.438  17.741  0.00  0.00    +0.000 A 
ATOM      7  C   UNL     1       2.110   4.546  17.810  0.00  0.00    +0.000 A 
ATOM      8  C   UNL     1       2.265   3.173  17.627  0.00  0.00    +0.000 A 
ATOM      9  C   UNL     1       3.521   2.654  17.363  0.00  0.00    +0.000 A 
ATOM     10  C   UNL     1       4.627   3.505  17.291  0.00  0.00    +0.000 A 
ATOM     11  C   UNL     1       4.494   4.898  17.485  0.00  0.00    +0.000 A 
BRANCH   6  13
ATOM     12  F   UNL     1       3.176   7.326  19.223  0.00  0.00    +0.000 F 
ATOM     13  C   UNL     1       2.903   6.913  17.945  0.00  0.00    +0.000 C 
ATOM     14  F   UNL     1       1.593   7.225  17.763  0.00  0.00    +0.000 F 
ATOM     15  F   UNL     1       3.647   7.737  17.160  0.00  0.00    +0.000 F 
ENDBRANCH   6  13
ENDBRANCH   1  11
BRANCH   3  16
ATOM     16  C   UNL     1       8.421   7.846  18.513  0.00  0.00    +0.000 C 
BRANCH  16  17
ATOM     17  O   UNL     1       8.600   9.041  17.760  0.00  0.00    +0.000 OA
BRANCH  17  18
ATOM     18  C   UNL     1       8.320  10.214  18.524  0.00  0.00    +0.000 C 
BRANCH  18  19
ATOM     19  C   UNL     1       9.623  10.926  18.809  0.00  0.00    +0.000 A 
ATOM     20  C   UNL     1      10.509  11.176  17.740  0.00  0.00    +0.000 A 
ATOM     21  C   UNL     1      11.733  11.810  17.943  0.00  0.00    +0.000 A 
ATOM     22  C   UNL     1      12.091  12.218  19.221  0.00  0.00    +0.000 A 
ATOM     23  C   UNL     1      11.213  12.019  20.287  0.00  0.00    +0.000 A 
ATOM     24  C   UNL     1       9.973  11.388  20.093  0.00  0.00    +0.000 A 
BRANCH  24  25
ATOM     25  S   UNL     1       8.874  11.236  21.497  0.00  0.00    +0.000 S 
ATOM     26  H   UNL     1       8.285  10.090  21.129  0.00  0.00    +0.000 HD
ENDBRANCH  24  25
ENDBRANCH  18  19
ENDBRANCH  17  18
ENDBRANCH  16  17
ENDBRANCH   3  16
TORSDOF 7
ENDMDL
MODEL 5
REMARK VINA RESULT:      -7.0      6.299      8.228
REMARK  Name = 
REMARK  7 active torsions:
REMARK  status: ('A' for Active; 'I' for Inactive)
REMARK    1  A    between atoms: C_2  and  C_5
REMARK    2  A    between atoms: C_10  and  N_11
REMARK    3  A    between atoms: C_13  and  C_14
REMARK    4  A    between atoms: C_14  and  O_15
REMARK    5  A    between atoms: O_15  and  C_16
REMARK    6  A    between atoms: C_16  and  C_17
REMARK    7  A    between atoms: C_22  and  S_23
REMARK                            x       y       z     vdW  Elec       q    Type
REMARK                         _______ _______ _______ _____ _____    ______ ____
ROOT
ATOM      1  N   UNL     1       6.334   6.122  18.001  0.00  0.00    +0.000 N 
ATOM      2  C   UNL     1       6.406   7.383  17.454  0.00  0.00    +0.000 A 
ATOM      3  C   UNL     1       7.609   7.898  17.886  0.00  0.00    +0.000 A 
ATOM      4  N   UNL     1       8.218   6.981  18.685  0.00  0.00    +0.000 NA
ATOM      5  N   UNL     1       7.433   5.917  18.755  0.00  0.00    +0.000 NA
ENDROOT
BRANCH   1  11
ATOM      6  C   UNL     1       5.261   4.304  16.662  0.00  0.00    +0.000 A 
ATOM      7  C   UNL     1       4.194   3.380  16.562  0.00  0.00    +0.000 A 
ATOM      8  C   UNL     1       3.229   3.257  17.560  0.00  0.00    +0.000 A 
ATOM      9  C   UNL     1       3.307   4.052  18.691  0.00  0.00    +0.000 A 
ATOM     10  C   UNL     1       4.344   4.977  18.823  0.00  0.00    +0.000 A 
ATOM     11  C   UNL     1       5.326   5.127  17.818  0.00  0.00    +0.000 A 
BRANCH   6  13
ATOM     12  F   UNL     1       6.129   5.461  14.747  0.00  0.00    +0.000 F 
ATOM     13  C   UNL     1       6.254   4.331  15.514  0.00  0.00    +0.000 C 
ATOM     14  F   UNL     1       6.092   3.308  14.634  0.00  0.00    +0.000 F 
ATOM     15  F   UNL     1       7.554   4.342  15.916  0.00  0.00    +0.000 F 
ENDBRANCH   6  13
ENDBRANCH   1  11
BRANCH   3  16
ATOM     16  C   UNL     1       8.222   9.219  17.614  0.00  0.00    +0.000 C 
BRANCH  16  17
ATOM     17  O   UNL     1       8.972   9.645  18.747  0.00  0.00    +0.000 OA
BRANCH  17  18
ATOM     18  C   UNL     1       9.845  10.732  18.445  0.00  0.00    +0.000 C 
BRANCH  18  19
ATOM     19  C   UNL     1       9.780  11.733  19.576  0.00  0.00    +0.000 A 
ATOM     20  C   UNL     1       9.289  11.311  20.829  0.00  0.00    +0.000 A 
ATOM     21  C   UNL     1       9.185  12.192  21.904  0.00  0.00    +0.000 A 
ATOM     22  C   UNL     1       9.581  13.514  21.748  0.00  0.00    +0.000 A 
ATOM     23  C   UNL     1      10.107  13.944  20.530  0.00  0.00    +0.000 A 
ATOM     24  C   UNL     1      10.224  13.063  19.442  0.00  0.00    +0.000 A 
BRANCH  24  25
ATOM     25  S   UNL     1      10.976  13.674  17.938  0.00  0.00    +0.000 S 
ATOM     26  H   UNL     1      12.023  14.287  18.509  0.00  0.00    +0.000 HD
ENDBRANCH  24  25
ENDBRANCH  18  19
ENDBRANCH  17  18
ENDBRANCH  16  17
ENDBRANCH   3  16
TORSDOF 7
ENDMDL
MODEL 6
REMARK VINA RESULT:      -7.0      2.575      3.476
REMARK  Name = 
REMARK  7 active torsions:
REMARK  status: ('A' for Active; 'I' for Inactive)
REMARK    1  A    between atoms: C_2  and  C_5
REMARK    2  A    between atoms: C_10  and  N_11
REMARK    3  A    between atoms: C_13  and  C_14
REMARK    4  A    between atoms: C_14  and  O_15
REMARK    5  A    between atoms: O_15  and  C_16
REMARK    6  A    between atoms: C_16  and  C_17
REMARK    7  A    between atoms: C_22  and  S_23
REMARK                            x       y       z     vdW  Elec       q    Type
REMARK                         _______ _______ _______ _____ _____    ______ ____
ROOT
ATOM      1  N   UNL     1       2.621   5.941  19.100  0.00  0.00    +0.000 N 
ATOM      2  C   UNL     1       1.740   6.994  18.986  0.00  0.00    +0.000 A 
ATOM      3  C   UNL     1       2.387   7.922  18.199  0.00  0.00    +0.000 A 
ATOM      4  N   UNL     1       3.620   7.446  17.879  0.00  0.00    +0.000 NA
ATOM      5  N   UNL     1       3.753   6.254  18.438  0.00  0.00    +0.000 NA
ENDROOT
BRANCH   1  11
ATOM      6  C   UNL     1       2.295   3.463  19.043  0.00  0.00    +0.000 A 
ATOM      7  C   UNL     1       2.063   2.282  19.787  0.00  0.00    +0.000 A 
ATOM      8  C   UNL     1       1.972   2.293  21.178  0.00  0.00    +0.000 A 
ATOM      9  C   UNL     1       2.117   3.486  21.865  0.00  0.00    +0.000 A 
ATOM     10  C   UNL     1       2.344   4.672  21.164  0.00  0.00    +0.000 A 
ATOM     11  C   UNL     1       2.428   4.686  19.753  0.00  0.00    +0.000 A 
BRANCH   6  13
ATOM     12  F   UNL     1       3.626   3.651  17.054  0.00  0.00    +0.000 F 
ATOM     13  C   UNL     1       2.386   3.316  17.534  0.00  0.00    +0.000 C 
ATOM     14  F   UNL     1       1.533   4.130  16.859  0.00  0.00    +0.000 F 
ATOM     15  F   UNL     1       2.191   2.043  17.097  0.00  0.00    +0.000 F 
ENDBRANCH   6  13
ENDBRANCH   1  11
BRANCH   3  16
ATOM     16  C   UNL     1       1.926   9.254  17.740  0.00  0.00    +0.000 C 
BRANCH  16  17
ATOM     17  O   UNL     1       1.586  10.060  18.863  0.00  0.00    +0.000 OA
BRANCH  17  18
ATOM     18  C   UNL     1       0.182  10.300  18.955  0.00  0.00    +0.000 C 
BRANCH  18  19
ATOM     19  C   UNL     1      -0.201  10.364  20.416  0.00  0.00    +0.000 A 
ATOM     20  C   UNL     1       0.015   9.229  21.226  0.00  0.00    +0.000 A 
ATOM     21  C   UNL     1      -0.337   9.220  22.574  0.00  0.00    +0.000 A 
ATOM     22  C   UNL     1      -0.904  10.353  23.143  0.00  0.00    +0.000 A 
ATOM     23  C   UNL     1      -1.089  11.501  22.372  0.00  0.00    +0.000 A 
ATOM     24  C   UNL     1      -0.731  11.524  21.014  0.00  0.00    +0.000 A 
BRANCH  24  25
ATOM     25  S   UNL     1      -0.932  13.058  20.114  0.00  0.00    +0.000 S 
ATOM     26  H   UNL     1      -2.157  12.811  19.630  0.00  0.00    +0.000 HD
ENDBRANCH  24  25
ENDBRANCH  18  19
ENDBRANCH  17  18
ENDBRANCH  16  17
ENDBRANCH   3  16
TORSDOF 7
ENDMDL
MODEL 7
REMARK VINA RESULT:      -7.0      1.788      2.675
REMARK  Name = 
REMARK  7 active torsions:
REMARK  status: ('A' for Active; 'I' for Inactive)
REMARK    1  A    between atoms: C_2  and  C_5
REMARK    2  A    between atoms: C_10  and  N_11
REMARK    3  A    between atoms: C_13  and  C_14
REMARK    4  A    between atoms: C_14  and  O_15
REMARK    5  A    between atoms: O_15  and  C_16
REMARK    6  A    between atoms: C_16  and  C_17
REMARK    7  A    between atoms: C_22  and  S_23
REMARK                            x       y       z     vdW  Elec       q    Type
REMARK                         _______ _______ _______ _____ _____    ______ ____
ROOT
ATOM      1  N   UNL     1       2.401   6.087  18.677  0.00  0.00    +0.000 N 
ATOM      2  C   UNL     1       2.234   7.071  17.728  0.00  0.00    +0.000 A 
ATOM      3  C   UNL     1       2.101   8.242  18.442  0.00  0.00    +0.000 A 
ATOM      4  N   UNL     1       2.161   7.958  19.770  0.00  0.00    +0.000 NA
ATOM      5  N   UNL     1       2.332   6.652  19.899  0.00  0.00    +0.000 NA
ENDROOT
BRANCH   1  11
ATOM      6  C   UNL     1       3.960   4.161  18.342  0.00  0.00    +0.000 A 
ATOM      7  C   UNL     1       4.093   2.772  18.107  0.00  0.00    +0.000 A 
ATOM      8  C   UNL     1       2.985   1.930  18.022  0.00  0.00    +0.000 A 
ATOM      9  C   UNL     1       1.713   2.454  18.173  0.00  0.00    +0.000 A 
ATOM     10  C   UNL     1       1.543   3.821  18.402  0.00  0.00    +0.000 A 
ATOM     11  C   UNL     1       2.652   4.694  18.481  0.00  0.00    +0.000 A 
BRANCH   6  13
ATOM     12  F   UNL     1       5.393   5.580  19.644  0.00  0.00    +0.000 F 
ATOM     13  C   UNL     1       5.245   4.967  18.427  0.00  0.00    +0.000 C 
ATOM     14  F   UNL     1       5.305   5.985  17.528  0.00  0.00    +0.000 F 
ATOM     15  F   UNL     1       6.371   4.216  18.291  0.00  0.00    +0.000 F 
ENDBRANCH   6  13
ENDBRANCH   1  11
BRANCH   3  16
ATOM     16  C   UNL     1       1.895   9.626  17.953  0.00  0.00    +0.000 C 
BRANCH  16  17
ATOM     17  O   UNL     1       1.366  10.433  18.999  0.00  0.00    +0.000 OA
BRANCH  17  18
ATOM     18  C   UNL     1      -0.058  10.370  19.070  0.00  0.00    +0.000 C 
BRANCH  18  19
ATOM     19  C   UNL     1      -0.481  10.598  20.503  0.00  0.00    +0.000 A 
ATOM     20  C   UNL     1      -0.207   9.597  21.460  0.00  0.00    +0.000 A 
ATOM     21  C   UNL     1      -0.590   9.740  22.791  0.00  0.00    +0.000 A 
ATOM     22  C   UNL     1      -1.247  10.895  23.197  0.00  0.00    +0.000 A 
ATOM     23  C   UNL     1      -1.492  11.915  22.277  0.00  0.00    +0.000 A 
ATOM     24  C   UNL     1      -1.103  11.785  20.934  0.00  0.00    +0.000 A 
BRANCH  24  25
ATOM     25  S   UNL     1      -1.388  13.169  19.835  0.00  0.00    +0.000 S 
ATOM     26  H   UNL     1      -2.501  12.699  19.255  0.00  0.00    +0.000 HD
ENDBRANCH  24  25
ENDBRANCH  18  19
ENDBRANCH  17  18
ENDBRANCH  16  17
ENDBRANCH   3  16
TORSDOF 7
ENDMDL
MODEL 8
REMARK VINA RESULT:      -7.0      5.680      7.736
REMARK  Name = 
REMARK  7 active torsions:
REMARK  status: ('A' for Active; 'I' for Inactive)
REMARK    1  A    between atoms: C_2  and  C_5
REMARK    2  A    between atoms: C_10  and  N_11
REMARK    3  A    between atoms: C_13  and  C_14
REMARK    4  A    between atoms: C_14  and  O_15
REMARK    5  A    between atoms: O_15  and  C_16
REMARK    6  A    between atoms: C_16  and  C_17
REMARK    7  A    between atoms: C_22  and  S_23
REMARK                            x       y       z     vdW  Elec       q    Type
REMARK                         _______ _______ _______ _____ _____    ______ ____
ROOT
ATOM      1  N   UNL     1       4.566   4.977  19.230  0.00  0.00    +0.000 N 
ATOM      2  C   UNL     1       4.850   5.849  18.202  0.00  0.00    +0.000 A 
ATOM      3  C   UNL     1       6.223   5.965  18.195  0.00  0.00    +0.000 A 
ATOM      4  N   UNL     1       6.734   5.208  19.203  0.00  0.00    +0.000 NA
ATOM      5  N   UNL     1       5.723   4.625  19.826  0.00  0.00    +0.000 NA
ENDROOT
BRANCH   1  11
ATOM      6  C   UNL     1       2.920   3.104  19.411  0.00  0.00    +0.000 A 
ATOM      7  C   UNL     1       1.622   2.703  19.808  0.00  0.00    +0.000 A 
ATOM      8  C   UNL     1       0.729   3.588  20.410  0.00  0.00    +0.000 A 
ATOM      9  C   UNL     1       1.110   4.899  20.636  0.00  0.00    +0.000 A 
ATOM     10  C   UNL     1       2.382   5.332  20.253  0.00  0.00    +0.000 A 
ATOM     11  C   UNL     1       3.299   4.455  19.631  0.00  0.00    +0.000 A 
BRANCH   6  13
ATOM     12  F   UNL     1       3.094   0.925  18.421  0.00  0.00    +0.000 F 
ATOM     13  C   UNL     1       3.802   2.042  18.778  0.00  0.00    +0.000 C 
ATOM     14  F   UNL     1       4.769   1.576  19.612  0.00  0.00    +0.000 F 
ATOM     15  F   UNL     1       4.398   2.444  17.623  0.00  0.00    +0.000 F 
ENDBRANCH   6  13
ENDBRANCH   1  11
BRANCH   3  16
ATOM     16  C   UNL     1       7.096   6.769  17.308  0.00  0.00    +0.000 C 
BRANCH  16  17
ATOM     17  O   UNL     1       6.911   6.366  15.955  0.00  0.00    +0.000 OA
BRANCH  17  18
ATOM     18  C   UNL     1       7.414   5.054  15.703  0.00  0.00    +0.000 C 
BRANCH  18  19
ATOM     19  C   UNL     1       6.824   4.552  14.405  0.00  0.00    +0.000 A 
ATOM     20  C   UNL     1       5.608   3.838  14.443  0.00  0.00    +0.000 A 
ATOM     21  C   UNL     1       5.026   3.333  13.283  0.00  0.00    +0.000 A 
ATOM     22  C   UNL     1       5.644   3.541  12.057  0.00  0.00    +0.000 A 
ATOM     23  C   UNL     1       6.826   4.279  11.991  0.00  0.00    +0.000 A 
ATOM     24  C   UNL     1       7.418   4.800  13.153  0.00  0.00    +0.000 A 
BRANCH  24  25
ATOM     25  S   UNL     1       8.893   5.798  12.974  0.00  0.00    +0.000 S 
ATOM     26  H   UNL     1       9.115   6.008  14.279  0.00  0.00    +0.000 HD
ENDBRANCH  24  25
ENDBRANCH  18  19
ENDBRANCH  17  18
ENDBRANCH  16  17
ENDBRANCH   3  16
TORSDOF 7
ENDMDL
MODEL 9
REMARK VINA RESULT:      -6.9      2.826      3.801
REMARK  Name = 
REMARK  7 active torsions:
REMARK  status: ('A' for Active; 'I' for Inactive)
REMARK    1  A    between atoms: C_2  and  C_5
REMARK    2  A    between atoms: C_10  and  N_11
REMARK    3  A    between atoms: C_13  and  C_14
REMARK    4  A    between atoms: C_14  and  O_15
REMARK    5  A    between atoms: O_15  and  C_16
REMARK    6  A    between atoms: C_16  and  C_17
REMARK    7  A    between atoms: C_22  and  S_23
REMARK                            x       y       z     vdW  Elec       q    Type
REMARK                         _______ _______ _______ _____ _____    ______ ____
ROOT
ATOM      1  N   UNL     1       3.132   6.937  18.311  0.00  0.00    +0.000 N 
ATOM      2  C   UNL     1       2.762   6.811  19.632  0.00  0.00    +0.000 A 
ATOM      3  C   UNL     1       1.883   7.847  19.862  0.00  0.00    +0.000 A 
ATOM      4  N   UNL     1       1.757   8.579  18.723  0.00  0.00    +0.000 NA
ATOM      5  N   UNL     1       2.524   8.025  17.797  0.00  0.00    +0.000 NA
ENDROOT
BRANCH   1  11
ATOM      6  C   UNL     1       3.650   4.728  17.262  0.00  0.00    +0.000 A 
ATOM      7  C   UNL     1       4.577   3.958  16.521  0.00  0.00    +0.000 A 
ATOM      8  C   UNL     1       5.776   4.495  16.055  0.00  0.00    +0.000 A 
ATOM      9  C   UNL     1       6.079   5.821  16.313  0.00  0.00    +0.000 A 
ATOM     10  C   UNL     1       5.189   6.610  17.045  0.00  0.00    +0.000 A 
ATOM     11  C   UNL     1       3.974   6.083  17.536  0.00  0.00    +0.000 A 
BRANCH   6  13
ATOM     12  F   UNL     1       2.242   2.788  17.136  0.00  0.00    +0.000 F 
ATOM     13  C   UNL     1       2.374   4.030  17.700  0.00  0.00    +0.000 C 
ATOM     14  F   UNL     1       1.243   4.688  17.332  0.00  0.00    +0.000 F 
ATOM     15  F   UNL     1       2.311   3.798  19.039  0.00  0.00    +0.000 F 
ENDBRANCH   6  13
ENDBRANCH   1  11
BRANCH   3  16
ATOM     16  C   UNL     1       1.162   8.213  21.104  0.00  0.00    +0.000 C 
BRANCH  16  17
ATOM     17  O   UNL     1       0.217   9.241  20.827  0.00  0.00    +0.000 OA
BRANCH  17  18
ATOM     18  C   UNL     1       0.537  10.467  21.483  0.00  0.00    +0.000 C 
BRANCH  18  19
ATOM     19  C   UNL     1      -0.741  11.244  21.705  0.00  0.00    +0.000 A 
ATOM     20  C   UNL     1      -1.311  11.261  22.995  0.00  0.00    +0.000 A 
ATOM     21  C   UNL     1      -2.498  11.941  23.257  0.00  0.00    +0.000 A 
ATOM     22  C   UNL     1      -3.135  12.630  22.233  0.00  0.00    +0.000 A 
ATOM     23  C   UNL     1      -2.568  12.661  20.958  0.00  0.00    +0.000 A 
ATOM     24  C   UNL     1      -1.368  11.985  20.685  0.00  0.00    +0.000 A 
BRANCH  24  25
ATOM     25  S   UNL     1      -0.669  12.136  19.044  0.00  0.00    +0.000 S 
ATOM     26  H   UNL     1      -1.443  11.220  18.445  0.00  0.00    +0.000 HD
ENDBRANCH  24  25
ENDBRANCH  18  19
ENDBRANCH  17  18
ENDBRANCH  16  17
ENDBRANCH   3  16
TORSDOF 7
ENDMDL
