MODEL 1
REMARK VINA RESULT:      -6.6      0.000      0.000
REMARK  Name = 
REMARK  6 active torsions:
REMARK  status: ('A' for Active; 'I' for Inactive)
REMARK    1  A    between atoms: C_1  and  C_2
REMARK    2  A    between atoms: C_2  and  O_3
REMARK    3  A    between atoms: O_3  and  C_4
REMARK    4  A    between atoms: C_10  and  C_11
REMARK    5  A    between atoms: C_11  and  N_12
REMARK    6  A    between atoms: N_15  and  C_16
REMARK                            x       y       z     vdW  Elec       q    Type
REMARK                         _______ _______ _______ _____ _____    ______ ____
ROOT
ATOM      1  C   UNL     1       2.428   5.474  19.537  0.00  0.00    +0.000 A 
ATOM      2  C   UNL     1       1.502   5.138  20.536  0.00  0.00    +0.000 A 
ATOM      3  C   UNL     1       0.984   3.849  20.622  0.00  0.00    +0.000 A 
ATOM      4  C   UNL     1       1.407   2.875  19.728  0.00  0.00    +0.000 A 
ATOM      5  C   UNL     1       2.331   3.192  18.728  0.00  0.00    +0.000 A 
ATOM      6 CL   UNL     1       2.807   1.910  17.672  0.00  0.00    +0.000 Cl
ATOM      7  C   UNL     1       2.833   4.501  18.594  0.00  0.00    +0.000 A 
ENDROOT
BRANCH   1   8
ATOM      8  O   UNL     1       2.982   6.725  19.403  0.00  0.00    +0.000 OA
BRANCH   8  10
ATOM      9  C   UNL     1       2.388   8.431  17.822  0.00  0.00    +0.000 C 
ATOM     10  C   UNL     1       2.082   7.812  19.173  0.00  0.00    +0.000 C 
ENDBRANCH   8  10
ENDBRANCH   1   8
BRANCH   7  11
ATOM     11  C   UNL     1       3.748   4.873  17.444  0.00  0.00    +0.000 C 
BRANCH  11  12
ATOM     12  N   UNL     1       5.128   5.081  17.818  0.00  0.00    +0.000 N 
ATOM     13  C   UNL     1       5.812   4.469  18.803  0.00  0.00    +0.000 A 
ATOM     14  N   UNL     1       6.942   5.017  19.123  0.00  0.00    +0.000 NA
ATOM     15  N   UNL     1       7.006   6.118  18.302  0.00  0.00    +0.000 N 
ATOM     16  C   UNL     1       8.050   7.100  18.387  0.00  0.00    +0.000 C 
ATOM     17  C   UNL     1       5.850   6.207  17.519  0.00  0.00    +0.000 A 
ATOM     18  O   UNL     1       5.530   7.129  16.785  0.00  0.00    +0.000 OA
ENDBRANCH  11  12
ENDBRANCH   7  11
TORSDOF 4
ENDMDL
MODEL 2
REMARK VINA RESULT:      -6.5      1.740      2.182
REMARK  Name = 
REMARK  6 active torsions:
REMARK  status: ('A' for Active; 'I' for Inactive)
REMARK    1  A    between atoms: C_1  and  C_2
REMARK    2  A    between atoms: C_2  and  O_3
REMARK    3  A    between atoms: O_3  and  C_4
REMARK    4  A    between atoms: C_10  and  C_11
REMARK    5  A    between atoms: C_11  and  N_12
REMARK    6  A    between atoms: N_15  and  C_16
REMARK                            x       y       z     vdW  Elec       q    Type
REMARK                         _______ _______ _______ _____ _____    ______ ____
ROOT
ATOM      1  C   UNL     1       2.578   4.577  19.869  0.00  0.00    +0.000 A 
ATOM      2  C   UNL     1       1.213   4.287  20.012  0.00  0.00    +0.000 A 
ATOM      3  C   UNL     1       0.721   3.016  19.727  0.00  0.00    +0.000 A 
ATOM      4  C   UNL     1       1.594   2.014  19.324  0.00  0.00    +0.000 A 
ATOM      5  C   UNL     1       2.957   2.285  19.180  0.00  0.00    +0.000 A 
ATOM      6 CL   UNL     1       3.965   0.970  18.687  0.00  0.00    +0.000 Cl
ATOM      7  C   UNL     1       3.469   3.576  19.418  0.00  0.00    +0.000 A 
ENDROOT
BRANCH   1   8
ATOM      8  O   UNL     1       3.127   5.808  20.141  0.00  0.00    +0.000 OA
BRANCH   8  10
ATOM      9  C   UNL     1       2.742   7.293  18.295  0.00  0.00    +0.000 C 
ATOM     10  C   UNL     1       2.380   6.956  19.729  0.00  0.00    +0.000 C 
ENDBRANCH   8  10
ENDBRANCH   1   8
BRANCH   7  11
ATOM     11  C   UNL     1       4.926   3.900  19.155  0.00  0.00    +0.000 C 
BRANCH  11  12
ATOM     12  N   UNL     1       5.206   4.362  17.814  0.00  0.00    +0.000 N 
ATOM     13  C   UNL     1       4.380   4.343  16.751  0.00  0.00    +0.000 A 
ATOM     14  N   UNL     1       4.943   4.550  15.602  0.00  0.00    +0.000 NA
ATOM     15  N   UNL     1       6.274   4.685  15.919  0.00  0.00    +0.000 N 
ATOM     16  C   UNL     1       7.307   4.820  14.931  0.00  0.00    +0.000 C 
ATOM     17  C   UNL     1       6.465   4.511  17.294  0.00  0.00    +0.000 A 
ATOM     18  O   UNL     1       7.533   4.437  17.884  0.00  0.00    +0.000 OA
ENDBRANCH  11  12
ENDBRANCH   7  11
TORSDOF 4
ENDMDL
MODEL 3
REMARK VINA RESULT:      -6.4      1.260      1.535
REMARK  Name = 
REMARK  6 active torsions:
REMARK  status: ('A' for Active; 'I' for Inactive)
REMARK    1  A    between atoms: C_1  and  C_2
REMARK    2  A    between atoms: C_2  and  O_3
REMARK    3  A    between atoms: O_3  and  C_4
REMARK    4  A    between atoms: C_10  and  C_11
REMARK    5  A    between atoms: C_11  and  N_12
REMARK    6  A    between atoms: N_15  and  C_16
REMARK                            x       y       z     vdW  Elec       q    Type
REMARK                         _______ _______ _______ _____ _____    ______ ____
ROOT
ATOM      1  C   UNL     1       2.204   4.992  18.976  0.00  0.00    +0.000 A 
ATOM      2  C   UNL     1       1.328   4.762  20.048  0.00  0.00    +0.000 A 
ATOM      3  C   UNL     1       1.195   3.490  20.598  0.00  0.00    +0.000 A 
ATOM      4  C   UNL     1       1.958   2.441  20.102  0.00  0.00    +0.000 A 
ATOM      5  C   UNL     1       2.838   2.654  19.037  0.00  0.00    +0.000 A 
ATOM      6 CL   UNL     1       3.754   1.291  18.499  0.00  0.00    +0.000 Cl
ATOM      7  C   UNL     1       2.953   3.922  18.435  0.00  0.00    +0.000 A 
ENDROOT
BRANCH   1   8
ATOM      8  O   UNL     1       2.386   6.224  18.393  0.00  0.00    +0.000 OA
BRANCH   8  10
ATOM      9  C   UNL     1       1.973   8.588  18.436  0.00  0.00    +0.000 C 
ATOM     10  C   UNL     1       2.334   7.363  19.256  0.00  0.00    +0.000 C 
ENDBRANCH   8  10
ENDBRANCH   1   8
BRANCH   7  11
ATOM     11  C   UNL     1       3.822   4.129  17.210  0.00  0.00    +0.000 C 
BRANCH  11  12
ATOM     12  N   UNL     1       4.781   5.204  17.329  0.00  0.00    +0.000 N 
ATOM     13  C   UNL     1       5.097   6.127  16.401  0.00  0.00    +0.000 A 
ATOM     14  N   UNL     1       6.174   6.809  16.635  0.00  0.00    +0.000 NA
ATOM     15  N   UNL     1       6.642   6.271  17.810  0.00  0.00    +0.000 N 
ATOM     16  C   UNL     1       7.896   6.648  18.401  0.00  0.00    +0.000 C 
ATOM     17  C   UNL     1       5.814   5.224  18.229  0.00  0.00    +0.000 A 
ATOM     18  O   UNL     1       6.016   4.454  19.155  0.00  0.00    +0.000 OA
ENDBRANCH  11  12
ENDBRANCH   7  11
TORSDOF 4
ENDMDL
MODEL 4
REMARK VINA RESULT:      -6.3      1.631      1.969
REMARK  Name = 
REMARK  6 active torsions:
REMARK  status: ('A' for Active; 'I' for Inactive)
REMARK    1  A    between atoms: C_1  and  C_2
REMARK    2  A    between atoms: C_2  and  O_3
REMARK    3  A    between atoms: O_3  and  C_4
REMARK    4  A    between atoms: C_10  and  C_11
REMARK    5  A    between atoms: C_11  and  N_12
REMARK    6  A    between atoms: N_15  and  C_16
REMARK                            x       y       z     vdW  Elec       q    Type
REMARK                         _______ _______ _______ _____ _____    ______ ____
ROOT
ATOM      1  C   UNL     1       2.196   4.087  20.115  0.00  0.00    +0.000 A 
ATOM      2  C   UNL     1       0.843   3.775  19.913  0.00  0.00    +0.000 A 
ATOM      3  C   UNL     1       0.475   2.657  19.170  0.00  0.00    +0.000 A 
ATOM      4  C   UNL     1       1.454   1.822  18.648  0.00  0.00    +0.000 A 
ATOM      5  C   UNL     1       2.806   2.118  18.843  0.00  0.00    +0.000 A 
ATOM      6 CL   UNL     1       3.950   1.013  18.166  0.00  0.00    +0.000 Cl
ATOM      7  C   UNL     1       3.202   3.270  19.550  0.00  0.00    +0.000 A 
ENDROOT
BRANCH   1   8
ATOM      8  O   UNL     1       2.626   5.172  20.843  0.00  0.00    +0.000 OA
BRANCH   8  10
ATOM      9  C   UNL     1       2.396   7.110  19.446  0.00  0.00    +0.000 C 
ATOM     10  C   UNL     1       1.894   6.391  20.684  0.00  0.00    +0.000 C 
ENDBRANCH   8  10
ENDBRANCH   1   8
BRANCH   7  11
ATOM     11  C   UNL     1       4.664   3.651  19.667  0.00  0.00    +0.000 C 
BRANCH  11  12
ATOM     12  N   UNL     1       5.074   4.733  18.801  0.00  0.00    +0.000 N 
ATOM     13  C   UNL     1       4.682   4.962  17.533  0.00  0.00    +0.000 A 
ATOM     14  N   UNL     1       5.391   5.824  16.876  0.00  0.00    +0.000 NA
ATOM     15  N   UNL     1       6.370   6.181  17.772  0.00  0.00    +0.000 N 
ATOM     16  C   UNL     1       7.466   7.046  17.435  0.00  0.00    +0.000 C 
ATOM     17  C   UNL     1       6.222   5.462  18.964  0.00  0.00    +0.000 A 
ATOM     18  O   UNL     1       6.995   5.443  19.910  0.00  0.00    +0.000 OA
ENDBRANCH  11  12
ENDBRANCH   7  11
TORSDOF 4
ENDMDL
MODEL 5
REMARK VINA RESULT:      -6.3      2.559      4.613
REMARK  Name = 
REMARK  6 active torsions:
REMARK  status: ('A' for Active; 'I' for Inactive)
REMARK    1  A    between atoms: C_1  and  C_2
REMARK    2  A    between atoms: C_2  and  O_3
REMARK    3  A    between atoms: O_3  and  C_4
REMARK    4  A    between atoms: C_10  and  C_11
REMARK    5  A    between atoms: C_11  and  N_12
REMARK    6  A    between atoms: N_15  and  C_16
REMARK                            x       y       z     vdW  Elec       q    Type
REMARK                         _______ _______ _______ _____ _____    ______ ____
ROOT
ATOM      1  C   UNL     1       3.985   4.238  17.748  0.00  0.00    +0.000 A 
ATOM      2  C   UNL     1       3.773   2.950  17.232  0.00  0.00    +0.000 A 
ATOM      3  C   UNL     1       2.733   2.156  17.708  0.00  0.00    +0.000 A 
ATOM      4  C   UNL     1       1.877   2.651  18.682  0.00  0.00    +0.000 A 
ATOM      5  C   UNL     1       2.074   3.932  19.205  0.00  0.00    +0.000 A 
ATOM      6 CL   UNL     1       0.949   4.465  20.404  0.00  0.00    +0.000 Cl
ATOM      7  C   UNL     1       3.147   4.735  18.772  0.00  0.00    +0.000 A 
ENDROOT
BRANCH   1   8
ATOM      8  O   UNL     1       4.988   5.074  17.317  0.00  0.00    +0.000 OA
BRANCH   8  10
ATOM      9  C   UNL     1       7.329   4.643  17.624  0.00  0.00    +0.000 C 
ATOM     10  C   UNL     1       6.129   4.460  16.713  0.00  0.00    +0.000 C 
ENDBRANCH   8  10
ENDBRANCH   1   8
BRANCH   7  11
ATOM     11  C   UNL     1       3.427   6.078  19.416  0.00  0.00    +0.000 C 
BRANCH  11  12
ATOM     12  N   UNL     1       2.653   7.175  18.878  0.00  0.00    +0.000 N 
ATOM     13  C   UNL     1       2.859   7.835  17.723  0.00  0.00    +0.000 A 
ATOM     14  N   UNL     1       2.210   8.949  17.593  0.00  0.00    +0.000 NA
ATOM     15  N   UNL     1       1.534   9.065  18.785  0.00  0.00    +0.000 N 
ATOM     16  C   UNL     1       0.760  10.222  19.138  0.00  0.00    +0.000 C 
ATOM     17  C   UNL     1       1.846   7.992  19.626  0.00  0.00    +0.000 A 
ATOM     18  O   UNL     1       1.523   7.859  20.796  0.00  0.00    +0.000 OA
ENDBRANCH  11  12
ENDBRANCH   7  11
TORSDOF 4
ENDMDL
MODEL 6
REMARK VINA RESULT:      -6.2      1.742      2.198
REMARK  Name = 
REMARK  6 active torsions:
REMARK  status: ('A' for Active; 'I' for Inactive)
REMARK    1  A    between atoms: C_1  and  C_2
REMARK    2  A    between atoms: C_2  and  O_3
REMARK    3  A    between atoms: O_3  and  C_4
REMARK    4  A    between atoms: C_10  and  C_11
REMARK    5  A    between atoms: C_11  and  N_12
REMARK    6  A    between atoms: N_15  and  C_16
REMARK                            x       y       z     vdW  Elec       q    Type
REMARK                         _______ _______ _______ _____ _____    ______ ____
ROOT
ATOM      1  C   UNL     1       2.868   5.404  19.742  0.00  0.00    +0.000 A 
ATOM      2  C   UNL     1       1.565   5.080  20.150  0.00  0.00    +0.000 A 
ATOM      3  C   UNL     1       1.238   3.779  20.520  0.00  0.00    +0.000 A 
ATOM      4  C   UNL     1       2.216   2.794  20.515  0.00  0.00    +0.000 A 
ATOM      5  C   UNL     1       3.520   3.100  20.114  0.00  0.00    +0.000 A 
ATOM      6 CL   UNL     1       4.670   1.811  20.153  0.00  0.00    +0.000 Cl
ATOM      7  C   UNL     1       3.862   4.399  19.691  0.00  0.00    +0.000 A 
ENDROOT
BRANCH   1   8
ATOM      8  O   UNL     1       3.257   6.670  19.372  0.00  0.00    +0.000 OA
BRANCH   8  10
ATOM      9  C   UNL     1       2.017   8.479  18.396  0.00  0.00    +0.000 C 
ATOM     10  C   UNL     1       2.740   7.171  18.136  0.00  0.00    +0.000 C 
ENDBRANCH   8  10
ENDBRANCH   1   8
BRANCH   7  11
ATOM     11  C   UNL     1       5.244   4.707  19.151  0.00  0.00    +0.000 C 
BRANCH  11  12
ATOM     12  N   UNL     1       5.332   4.739  17.708  0.00  0.00    +0.000 N 
ATOM     13  C   UNL     1       4.531   4.115  16.824  0.00  0.00    +0.000 A 
ATOM     14  N   UNL     1       4.973   4.068  15.606  0.00  0.00    +0.000 NA
ATOM     15  N   UNL     1       6.198   4.686  15.688  0.00  0.00    +0.000 N 
ATOM     16  C   UNL     1       7.111   4.766  14.583  0.00  0.00    +0.000 C 
ATOM     17  C   UNL     1       6.466   5.060  17.009  0.00  0.00    +0.000 A 
ATOM     18  O   UNL     1       7.514   5.509  17.447  0.00  0.00    +0.000 OA
ENDBRANCH  11  12
ENDBRANCH   7  11
TORSDOF 4
ENDMDL
MODEL 7
REMARK VINA RESULT:      -6.2      1.157      1.157
REMARK  Name = 
REMARK  6 active torsions:
REMARK  status: ('A' for Active; 'I' for Inactive)
REMARK    1  A    between atoms: C_1  and  C_2
REMARK    2  A    between atoms: C_2  and  O_3
REMARK    3  A    between atoms: O_3  and  C_4
REMARK    4  A    between atoms: C_10  and  C_11
REMARK    5  A    between atoms: C_11  and  N_12
REMARK    6  A    between atoms: N_15  and  C_16
REMARK                            x       y       z     vdW  Elec       q    Type
REMARK                         _______ _______ _______ _____ _____    ______ ____
ROOT
ATOM      1  C   UNL     1       2.403   4.908  19.082  0.00  0.00    +0.000 A 
ATOM      2  C   UNL     1       1.468   4.801  20.122  0.00  0.00    +0.000 A 
ATOM      3  C   UNL     1       1.505   3.725  21.004  0.00  0.00    +0.000 A 
ATOM      4  C   UNL     1       2.496   2.761  20.875  0.00  0.00    +0.000 A 
ATOM      5  C   UNL     1       3.438   2.855  19.846  0.00  0.00    +0.000 A 
ATOM      6 CL   UNL     1       4.640   1.615  19.775  0.00  0.00    +0.000 Cl
ATOM      7  C   UNL     1       3.390   3.909  18.914  0.00  0.00    +0.000 A 
ENDROOT
BRANCH   1   8
ATOM      8  O   UNL     1       2.425   5.948  18.182  0.00  0.00    +0.000 OA
BRANCH   8  10
ATOM      9  C   UNL     1       2.870   8.260  17.716  0.00  0.00    +0.000 C 
ATOM     10  C   UNL     1       2.301   7.269  18.715  0.00  0.00    +0.000 C 
ENDBRANCH   8  10
ENDBRANCH   1   8
BRANCH   7  11
ATOM     11  C   UNL     1       4.340   3.952  17.733  0.00  0.00    +0.000 C 
BRANCH  11  12
ATOM     12  N   UNL     1       5.528   4.747  17.947  0.00  0.00    +0.000 N 
ATOM     13  C   UNL     1       6.246   4.861  19.080  0.00  0.00    +0.000 A 
ATOM     14  N   UNL     1       7.096   5.838  19.107  0.00  0.00    +0.000 NA
ATOM     15  N   UNL     1       6.907   6.459  17.896  0.00  0.00    +0.000 N 
ATOM     16  C   UNL     1       7.568   7.679  17.528  0.00  0.00    +0.000 C 
ATOM     17  C   UNL     1       5.886   5.824  17.180  0.00  0.00    +0.000 A 
ATOM     18  O   UNL     1       5.382   6.199  16.132  0.00  0.00    +0.000 OA
ENDBRANCH  11  12
ENDBRANCH   7  11
TORSDOF 4
ENDMDL
MODEL 8
REMARK VINA RESULT:      -6.2      2.520      3.720
REMARK  Name = 
REMARK  6 active torsions:
REMARK  status: ('A' for Active; 'I' for Inactive)
REMARK    1  A    between atoms: C_1  and  C_2
REMARK    2  A    between atoms: C_2  and  O_3
REMARK    3  A    between atoms: O_3  and  C_4
REMARK    4  A    between atoms: C_10  and  C_11
REMARK    5  A    between atoms: C_11  and  N_12
REMARK    6  A    between atoms: N_15  and  C_16
REMARK                            x       y       z     vdW  Elec       q    Type
REMARK                         _______ _______ _______ _____ _____    ______ ____
ROOT
ATOM      1  C   UNL     1       3.729   2.643  20.345  0.00  0.00    +0.000 A 
ATOM      2  C   UNL     1       2.866   2.624  21.450  0.00  0.00    +0.000 A 
ATOM      3  C   UNL     1       1.579   3.148  21.356  0.00  0.00    +0.000 A 
ATOM      4  C   UNL     1       1.133   3.669  20.149  0.00  0.00    +0.000 A 
ATOM      5  C   UNL     1       1.980   3.692  19.038  0.00  0.00    +0.000 A 
ATOM      6 CL   UNL     1       1.330   4.347  17.576  0.00  0.00    +0.000 Cl
ATOM      7  C   UNL     1       3.301   3.210  19.123  0.00  0.00    +0.000 A 
ENDROOT
BRANCH   1   8
ATOM      8  O   UNL     1       5.008   2.136  20.370  0.00  0.00    +0.000 OA
BRANCH   8  10
ATOM      9  C   UNL     1       5.931   0.599  21.966  0.00  0.00    +0.000 C 
ATOM     10  C   UNL     1       5.148   0.746  20.674  0.00  0.00    +0.000 C 
ENDBRANCH   8  10
ENDBRANCH   1   8
BRANCH   7  11
ATOM     11  C   UNL     1       4.255   3.336  17.952  0.00  0.00    +0.000 C 
BRANCH  11  12
ATOM     12  N   UNL     1       4.813   4.657  17.771  0.00  0.00    +0.000 N 
ATOM     13  C   UNL     1       4.547   5.531  16.783  0.00  0.00    +0.000 A 
ATOM     14  N   UNL     1       5.369   6.528  16.681  0.00  0.00    +0.000 NA
ATOM     15  N   UNL     1       6.292   6.281  17.669  0.00  0.00    +0.000 N 
ATOM     16  C   UNL     1       7.471   7.079  17.859  0.00  0.00    +0.000 C 
ATOM     17  C   UNL     1       5.993   5.082  18.324  0.00  0.00    +0.000 A 
ATOM     18  O   UNL     1       6.679   4.509  19.157  0.00  0.00    +0.000 OA
ENDBRANCH  11  12
ENDBRANCH   7  11
TORSDOF 4
ENDMDL
MODEL 9
REMARK VINA RESULT:      -6.1      2.704      3.833
REMARK  Name = 
REMARK  6 active torsions:
REMARK  status: ('A' for Active; 'I' for Inactive)
REMARK    1  A    between atoms: C_1  and  C_2
REMARK    2  A    between atoms: C_2  and  O_3
REMARK    3  A    between atoms: O_3  and  C_4
REMARK    4  A    between atoms: C_10  and  C_11
REMARK    5  A    between atoms: C_11  and  N_12
REMARK    6  A    between atoms: N_15  and  C_16
REMARK                            x       y       z     vdW  Elec       q    Type
REMARK                         _______ _______ _______ _____ _____    ______ ____
ROOT
ATOM      1  C   UNL     1       3.990   4.048  19.687  0.00  0.00    +0.000 A 
ATOM      2  C   UNL     1       2.730   4.139  20.296  0.00  0.00    +0.000 A 
ATOM      3  C   UNL     1       1.913   5.245  20.079  0.00  0.00    +0.000 A 
ATOM      4  C   UNL     1       2.336   6.258  19.228  0.00  0.00    +0.000 A 
ATOM      5  C   UNL     1       3.588   6.181  18.611  0.00  0.00    +0.000 A 
ATOM      6 CL   UNL     1       4.019   7.482  17.559  0.00  0.00    +0.000 Cl
ATOM      7  C   UNL     1       4.450   5.093  18.854  0.00  0.00    +0.000 A 
ENDROOT
BRANCH   1   8
ATOM      8  O   UNL     1       4.841   2.980  19.855  0.00  0.00    +0.000 OA
BRANCH   8  10
ATOM      9  C   UNL     1       3.663   1.489  18.389  0.00  0.00    +0.000 C 
ATOM     10  C   UNL     1       4.266   1.674  19.769  0.00  0.00    +0.000 C 
ENDBRANCH   8  10
ENDBRANCH   1   8
BRANCH   7  11
ATOM     11  C   UNL     1       5.850   5.062  18.275  0.00  0.00    +0.000 C 
BRANCH  11  12
ATOM     12  N   UNL     1       5.905   4.853  16.846  0.00  0.00    +0.000 N 
ATOM     13  C   UNL     1       5.439   3.797  16.153  0.00  0.00    +0.000 A 
ATOM     14  N   UNL     1       5.849   3.707  14.927  0.00  0.00    +0.000 NA
ATOM     15  N   UNL     1       6.695   4.783  14.795  0.00  0.00    +0.000 N 
ATOM     16  C   UNL     1       7.479   5.024  13.617  0.00  0.00    +0.000 C 
ATOM     17  C   UNL     1       6.788   5.478  16.006  0.00  0.00    +0.000 A 
ATOM     18  O   UNL     1       7.550   6.397  16.267  0.00  0.00    +0.000 OA
ENDBRANCH  11  12
ENDBRANCH   7  11
TORSDOF 4
ENDMDL
