MODEL 1
REMARK VINA RESULT:      -9.7      0.000      0.000
REMARK  Name = 
REMARK  5 active torsions:
REMARK  status: ('A' for Active; 'I' for Inactive)
REMARK    1  A    between atoms: C_1  and  C_2
REMARK    2  A    between atoms: C_4  and  N_5
REMARK    3  A    between atoms: C_13  and  N_14
REMARK    4  A    between atoms: N_18  and  C_19
REMARK    5  A    between atoms: C_26  and  C_27
REMARK                            x       y       z     vdW  Elec       q    Type
REMARK                         _______ _______ _______ _____ _____    ______ ____
ROOT
ATOM      1  N   UNL     1       1.543   9.487  18.500  0.00  0.00    +0.000 N 
ATOM      2  C   UNL     1       2.106   8.255  18.865  0.00  0.00    +0.000 A 
ATOM      3  N   UNL     1       2.960   7.672  17.981  0.00  0.00    +0.000 NA
ATOM      4  C   UNL     1       3.402   6.392  18.171  0.00  0.00    +0.000 A 
ATOM      5  N   UNL     1       4.240   5.776  17.262  0.00  0.00    +0.000 N 
ATOM      6  C   UNL     1       2.899   5.695  19.296  0.00  0.00    +0.000 A 
ATOM      7  C   UNL     1       2.961   4.371  19.865  0.00  0.00    +0.000 A 
ATOM      8  C   UNL     1       2.208   4.396  21.037  0.00  0.00    +0.000 A 
ATOM      9  N   UNL     1       1.710   5.654  21.200  0.00  0.00    +0.000 N 
ATOM     10  C   UNL     1       2.093   6.431  20.152  0.00  0.00    +0.000 A 
ATOM     11  N   UNL     1       1.691   7.686  19.999  0.00  0.00    +0.000 NA
ATOM     12  H   UNL     1       1.682   9.641  17.515  0.00  0.00    +0.000 HD
ATOM     13  H   UNL     1       4.474   4.812  17.465  0.00  0.00    +0.000 HD
ATOM     14  H   UNL     1       1.109   5.979  21.946  0.00  0.00    +0.000 HD
ENDROOT
BRANCH   1  21
ATOM     15  C   UNL     1      -1.199   9.831  17.450  0.00  0.00    +0.000 C 
ATOM     16  C   UNL     1      -0.687  10.500  18.696  0.00  0.00    +0.000 A 
ATOM     17  C   UNL     1      -1.599  11.306  19.428  0.00  0.00    +0.000 A 
ATOM     18  C   UNL     1      -1.289  11.916  20.653  0.00  0.00    +0.000 A 
ATOM     19  C   UNL     1       0.005  11.686  21.121  0.00  0.00    +0.000 A 
ATOM     20  C   UNL     1       0.929  10.902  20.407  0.00  0.00    +0.000 A 
ATOM     21  C   UNL     1       0.617  10.300  19.182  0.00  0.00    +0.000 A 
BRANCH  18  22
ATOM     22  N   UNL     1      -2.198  12.732  21.298  0.00  0.00    +0.000 N 
ATOM     23  C   UNL     1      -1.749  13.787  22.230  0.00  0.00    +0.000 C 
ATOM     24  C   UNL     1      -2.791  13.946  23.351  0.00  0.00    +0.000 C 
ATOM     25  O   UNL     1      -4.101  14.224  22.824  0.00  0.00    +0.000 OA
ATOM     26  C   UNL     1      -4.516  13.168  21.940  0.00  0.00    +0.000 C 
ATOM     27  C   UNL     1      -3.542  13.002  20.760  0.00  0.00    +0.000 C 
ENDBRANCH  18  22
ENDBRANCH   1  21
BRANCH   5  28
ATOM     28  C   UNL     1       5.161   6.467  16.362  0.00  0.00    +0.000 C 
ATOM     29  C   UNL     1       6.446   6.933  17.063  0.00  0.00    +0.000 C 
ATOM     30  C   UNL     1       7.312   5.780  17.570  0.00  0.00    +0.000 C 
ATOM     31  C   UNL     1       7.642   4.755  16.486  0.00  0.00    +0.000 C 
ATOM     32  C   UNL     1       6.429   4.328  15.667  0.00  0.00    +0.000 C 
ATOM     33  C   UNL     1       5.554   5.506  15.218  0.00  0.00    +0.000 C 
ENDBRANCH   5  28
BRANCH   7  34
ATOM     34  C   UNL     1       3.640   3.160  19.331  0.00  0.00    +0.000 C 
ATOM     35  F   UNL     1       4.979   3.312  19.173  0.00  0.00    +0.000 F 
ATOM     36  F   UNL     1       3.471   2.091  20.151  0.00  0.00    +0.000 F 
ATOM     37  F   UNL     1       3.144   2.806  18.119  0.00  0.00    +0.000 F 
ENDBRANCH   7  34
TORSDOF 4
ENDMDL
MODEL 2
REMARK VINA RESULT:      -9.6      0.365      1.083
REMARK  Name = 
REMARK  5 active torsions:
REMARK  status: ('A' for Active; 'I' for Inactive)
REMARK    1  A    between atoms: C_1  and  C_2
REMARK    2  A    between atoms: C_4  and  N_5
REMARK    3  A    between atoms: C_13  and  N_14
REMARK    4  A    between atoms: N_18  and  C_19
REMARK    5  A    between atoms: C_26  and  C_27
REMARK                            x       y       z     vdW  Elec       q    Type
REMARK                         _______ _______ _______ _____ _____    ______ ____
ROOT
ATOM      1  N   UNL     1       1.539   9.503  18.515  0.00  0.00    +0.000 N 
ATOM      2  C   UNL     1       2.100   8.267  18.869  0.00  0.00    +0.000 A 
ATOM      3  N   UNL     1       2.929   7.676  17.967  0.00  0.00    +0.000 NA
ATOM      4  C   UNL     1       3.366   6.393  18.151  0.00  0.00    +0.000 A 
ATOM      5  N   UNL     1       4.178   5.768  17.224  0.00  0.00    +0.000 N 
ATOM      6  C   UNL     1       2.883   5.702  19.288  0.00  0.00    +0.000 A 
ATOM      7  C   UNL     1       2.948   4.379  19.859  0.00  0.00    +0.000 A 
ATOM      8  C   UNL     1       2.223   4.413  21.048  0.00  0.00    +0.000 A 
ATOM      9  N   UNL     1       1.739   5.675  21.219  0.00  0.00    +0.000 N 
ATOM     10  C   UNL     1       2.103   6.446  20.161  0.00  0.00    +0.000 A 
ATOM     11  N   UNL     1       1.707   7.704  20.014  0.00  0.00    +0.000 NA
ATOM     12  H   UNL     1       1.656   9.653  17.526  0.00  0.00    +0.000 HD
ATOM     13  H   UNL     1       4.409   4.802  17.423  0.00  0.00    +0.000 HD
ATOM     14  H   UNL     1       1.157   6.006  21.978  0.00  0.00    +0.000 HD
ENDROOT
BRANCH   1  21
ATOM     15  C   UNL     1      -1.214   9.893  17.508  0.00  0.00    +0.000 C 
ATOM     16  C   UNL     1      -0.673  10.547  18.750  0.00  0.00    +0.000 A 
ATOM     17  C   UNL     1      -1.563  11.361  19.501  0.00  0.00    +0.000 A 
ATOM     18  C   UNL     1      -1.225  11.958  20.725  0.00  0.00    +0.000 A 
ATOM     19  C   UNL     1       0.072  11.707  21.172  0.00  0.00    +0.000 A 
ATOM     20  C   UNL     1       0.974  10.914  20.439  0.00  0.00    +0.000 A 
ATOM     21  C   UNL     1       0.635  10.324  19.215  0.00  0.00    +0.000 A 
BRANCH  18  22
ATOM     22  N   UNL     1      -2.113  12.783  21.389  0.00  0.00    +0.000 N 
ATOM     23  C   UNL     1      -3.456  13.059  20.839  0.00  0.00    +0.000 C 
ATOM     24  C   UNL     1      -3.869  14.493  21.217  0.00  0.00    +0.000 C 
ATOM     25  O   UNL     1      -3.824  14.702  22.640  0.00  0.00    +0.000 OA
ATOM     26  C   UNL     1      -2.499  14.446  23.138  0.00  0.00    +0.000 C 
ATOM     27  C   UNL     1      -2.052  13.003  22.844  0.00  0.00    +0.000 C 
ENDBRANCH  18  22
ENDBRANCH   1  21
BRANCH   5  28
ATOM     28  C   UNL     1       5.083   6.449  16.301  0.00  0.00    +0.000 C 
ATOM     29  C   UNL     1       6.384   6.913  16.973  0.00  0.00    +0.000 C 
ATOM     30  C   UNL     1       7.256   5.760  17.469  0.00  0.00    +0.000 C 
ATOM     31  C   UNL     1       7.559   4.728  16.385  0.00  0.00    +0.000 C 
ATOM     32  C   UNL     1       6.327   4.301  15.593  0.00  0.00    +0.000 C 
ATOM     33  C   UNL     1       5.448   5.480  15.154  0.00  0.00    +0.000 C 
ENDBRANCH   5  28
BRANCH   7  34
ATOM     34  C   UNL     1       3.606   3.162  19.313  0.00  0.00    +0.000 C 
ATOM     35  F   UNL     1       3.125   2.778  18.104  0.00  0.00    +0.000 F 
ATOM     36  F   UNL     1       4.941   3.346  19.153  0.00  0.00    +0.000 F 
ATOM     37  F   UNL     1       3.454   2.100  20.144  0.00  0.00    +0.000 F 
ENDBRANCH   7  34
TORSDOF 4
ENDMDL
MODEL 3
REMARK VINA RESULT:      -9.5      1.096      1.724
REMARK  Name = 
REMARK  5 active torsions:
REMARK  status: ('A' for Active; 'I' for Inactive)
REMARK    1  A    between atoms: C_1  and  C_2
REMARK    2  A    between atoms: C_4  and  N_5
REMARK    3  A    between atoms: C_13  and  N_14
REMARK    4  A    between atoms: N_18  and  C_19
REMARK    5  A    between atoms: C_26  and  C_27
REMARK                            x       y       z     vdW  Elec       q    Type
REMARK                         _______ _______ _______ _____ _____    ______ ____
ROOT
ATOM      1  N   UNL     1       1.716   9.785  18.005  0.00  0.00    +0.000 N 
ATOM      2  C   UNL     1       2.201   8.560  18.490  0.00  0.00    +0.000 A 
ATOM      3  N   UNL     1       3.027   7.850  17.676  0.00  0.00    +0.000 NA
ATOM      4  C   UNL     1       3.390   6.569  17.989  0.00  0.00    +0.000 A 
ATOM      5  N   UNL     1       4.199   5.823  17.153  0.00  0.00    +0.000 N 
ATOM      6  C   UNL     1       2.834   6.009  19.165  0.00  0.00    +0.000 A 
ATOM      7  C   UNL     1       2.812   4.742  19.854  0.00  0.00    +0.000 A 
ATOM      8  C   UNL     1       2.050   4.919  21.007  0.00  0.00    +0.000 A 
ATOM      9  N   UNL     1       1.627   6.214  21.046  0.00  0.00    +0.000 N 
ATOM     10  C   UNL     1       2.066   6.867  19.938  0.00  0.00    +0.000 A 
ATOM     11  N   UNL     1       1.741   8.124  19.664  0.00  0.00    +0.000 NA
ATOM     12  H   UNL     1       1.874   9.838  17.012  0.00  0.00    +0.000 HD
ATOM     13  H   UNL     1       4.372   4.870  17.447  0.00  0.00    +0.000 HD
ATOM     14  H   UNL     1       1.039   6.641  21.750  0.00  0.00    +0.000 HD
ENDROOT
BRANCH   1  21
ATOM     15  C   UNL     1       2.498  12.622  18.292  0.00  0.00    +0.000 C 
ATOM     16  C   UNL     1       1.185  12.060  18.765  0.00  0.00    +0.000 A 
ATOM     17  C   UNL     1       0.255  12.967  19.341  0.00  0.00    +0.000 A 
ATOM     18  C   UNL     1      -1.039  12.603  19.741  0.00  0.00    +0.000 A 
ATOM     19  C   UNL     1      -1.369  11.261  19.545  0.00  0.00    +0.000 A 
ATOM     20  C   UNL     1      -0.459  10.343  18.989  0.00  0.00    +0.000 A 
ATOM     21  C   UNL     1       0.834  10.709  18.595  0.00  0.00    +0.000 A 
BRANCH  18  22
ATOM     22  N   UNL     1      -1.886  13.514  20.343  0.00  0.00    +0.000 N 
ATOM     23  C   UNL     1      -3.178  13.088  20.921  0.00  0.00    +0.000 C 
ATOM     24  C   UNL     1      -4.203  14.224  20.752  0.00  0.00    +0.000 C 
ATOM     25  O   UNL     1      -3.738  15.453  21.338  0.00  0.00    +0.000 OA
ATOM     26  C   UNL     1      -2.492  15.849  20.738  0.00  0.00    +0.000 C 
ATOM     27  C   UNL     1      -1.404  14.777  20.929  0.00  0.00    +0.000 C 
ENDBRANCH  18  22
ENDBRANCH   1  21
BRANCH   5  28
ATOM     28  C   UNL     1       5.168   6.373  16.208  0.00  0.00    +0.000 C 
ATOM     29  C   UNL     1       6.445   6.885  16.891  0.00  0.00    +0.000 C 
ATOM     30  C   UNL     1       7.259   5.779  17.563  0.00  0.00    +0.000 C 
ATOM     31  C   UNL     1       7.589   4.621  16.624  0.00  0.00    +0.000 C 
ATOM     32  C   UNL     1       6.388   4.131  15.822  0.00  0.00    +0.000 C 
ATOM     33  C   UNL     1       5.565   5.268  15.203  0.00  0.00    +0.000 C 
ENDBRANCH   5  28
BRANCH   7  34
ATOM     34  C   UNL     1       3.423   3.449  19.444  0.00  0.00    +0.000 C 
ATOM     35  F   UNL     1       2.996   3.003  18.236  0.00  0.00    +0.000 F 
ATOM     36  F   UNL     1       4.775   3.541  19.361  0.00  0.00    +0.000 F 
ATOM     37  F   UNL     1       3.152   2.466  20.338  0.00  0.00    +0.000 F 
ENDBRANCH   7  34
TORSDOF 4
ENDMDL
MODEL 4
REMARK VINA RESULT:      -9.5      1.041      1.511
REMARK  Name = 
REMARK  5 active torsions:
REMARK  status: ('A' for Active; 'I' for Inactive)
REMARK    1  A    between atoms: C_1  and  C_2
REMARK    2  A    between atoms: C_4  and  N_5
REMARK    3  A    between atoms: C_13  and  N_14
REMARK    4  A    between atoms: N_18  and  C_19
REMARK    5  A    between atoms: C_26  and  C_27
REMARK                            x       y       z     vdW  Elec       q    Type
REMARK                         _______ _______ _______ _____ _____    ______ ____
ROOT
ATOM      1  N   UNL     1       1.715   9.778  18.013  0.00  0.00    +0.000 N 
ATOM      2  C   UNL     1       2.204   8.554  18.496  0.00  0.00    +0.000 A 
ATOM      3  N   UNL     1       3.021   7.841  17.674  0.00  0.00    +0.000 NA
ATOM      4  C   UNL     1       3.387   6.561  17.987  0.00  0.00    +0.000 A 
ATOM      5  N   UNL     1       4.186   5.813  17.144  0.00  0.00    +0.000 N 
ATOM      6  C   UNL     1       2.844   6.004  19.170  0.00  0.00    +0.000 A 
ATOM      7  C   UNL     1       2.828   4.739  19.862  0.00  0.00    +0.000 A 
ATOM      8  C   UNL     1       2.079   4.919  21.023  0.00  0.00    +0.000 A 
ATOM      9  N   UNL     1       1.657   6.214  21.064  0.00  0.00    +0.000 N 
ATOM     10  C   UNL     1       2.085   6.864  19.949  0.00  0.00    +0.000 A 
ATOM     11  N   UNL     1       1.758   8.120  19.676  0.00  0.00    +0.000 NA
ATOM     12  H   UNL     1       1.862   9.829  17.019  0.00  0.00    +0.000 HD
ATOM     13  H   UNL     1       4.363   4.860  17.438  0.00  0.00    +0.000 HD
ATOM     14  H   UNL     1       1.077   6.643  21.773  0.00  0.00    +0.000 HD
ENDROOT
BRANCH   1  21
ATOM     15  C   UNL     1       2.491  12.621  18.261  0.00  0.00    +0.000 C 
ATOM     16  C   UNL     1       1.189  12.058  18.763  0.00  0.00    +0.000 A 
ATOM     17  C   UNL     1       0.266  12.966  19.347  0.00  0.00    +0.000 A 
ATOM     18  C   UNL     1      -1.020  12.601  19.774  0.00  0.00    +0.000 A 
ATOM     19  C   UNL     1      -1.348  11.257  19.596  0.00  0.00    +0.000 A 
ATOM     20  C   UNL     1      -0.444  10.337  19.031  0.00  0.00    +0.000 A 
ATOM     21  C   UNL     1       0.840  10.704  18.611  0.00  0.00    +0.000 A 
BRANCH  18  22
ATOM     22  N   UNL     1      -1.860  13.514  20.383  0.00  0.00    +0.000 N 
ATOM     23  C   UNL     1      -1.513  14.950  20.439  0.00  0.00    +0.000 C 
ATOM     24  C   UNL     1      -2.059  15.548  21.748  0.00  0.00    +0.000 C 
ATOM     25  O   UNL     1      -3.476  15.337  21.881  0.00  0.00    +0.000 OA
ATOM     26  C   UNL     1      -3.774  13.930  21.844  0.00  0.00    +0.000 C 
ATOM     27  C   UNL     1      -3.307  13.285  20.527  0.00  0.00    +0.000 C 
ENDBRANCH  18  22
ENDBRANCH   1  21
BRANCH   5  28
ATOM     28  C   UNL     1       5.145   6.360  16.186  0.00  0.00    +0.000 C 
ATOM     29  C   UNL     1       6.429   6.875  16.855  0.00  0.00    +0.000 C 
ATOM     30  C   UNL     1       7.250   5.772  17.523  0.00  0.00    +0.000 C 
ATOM     31  C   UNL     1       7.571   4.611  16.584  0.00  0.00    +0.000 C 
ATOM     32  C   UNL     1       6.363   4.117  15.796  0.00  0.00    +0.000 C 
ATOM     33  C   UNL     1       5.533   5.252  15.181  0.00  0.00    +0.000 C 
ENDBRANCH   5  28
BRANCH   7  34
ATOM     34  C   UNL     1       3.434   3.445  19.448  0.00  0.00    +0.000 C 
ATOM     35  F   UNL     1       3.195   2.429  20.314  0.00  0.00    +0.000 F 
ATOM     36  F   UNL     1       2.964   3.037  18.241  0.00  0.00    +0.000 F 
ATOM     37  F   UNL     1       4.782   3.543  19.330  0.00  0.00    +0.000 F 
ENDBRANCH   7  34
TORSDOF 4
ENDMDL
MODEL 5
REMARK VINA RESULT:      -9.1      1.280      1.672
REMARK  Name = 
REMARK  5 active torsions:
REMARK  status: ('A' for Active; 'I' for Inactive)
REMARK    1  A    between atoms: C_1  and  C_2
REMARK    2  A    between atoms: C_4  and  N_5
REMARK    3  A    between atoms: C_13  and  N_14
REMARK    4  A    between atoms: N_18  and  C_19
REMARK    5  A    between atoms: C_26  and  C_27
REMARK                            x       y       z     vdW  Elec       q    Type
REMARK                         _______ _______ _______ _____ _____    ______ ____
ROOT
ATOM      1  N   UNL     1       1.861   9.231  19.139  0.00  0.00    +0.000 N 
ATOM      2  C   UNL     1       2.228   7.878  19.213  0.00  0.00    +0.000 A 
ATOM      3  N   UNL     1       3.001   7.386  18.208  0.00  0.00    +0.000 NA
ATOM      4  C   UNL     1       3.245   6.044  18.103  0.00  0.00    +0.000 A 
ATOM      5  N   UNL     1       3.998   5.527  17.067  0.00  0.00    +0.000 N 
ATOM      6  C   UNL     1       2.625   5.198  19.054  0.00  0.00    +0.000 A 
ATOM      7  C   UNL     1       2.481   3.787  19.315  0.00  0.00    +0.000 A 
ATOM      8  C   UNL     1       1.720   3.664  20.476  0.00  0.00    +0.000 A 
ATOM      9  N   UNL     1       1.412   4.914  20.921  0.00  0.00    +0.000 N 
ATOM     10  C   UNL     1       1.923   5.838  20.065  0.00  0.00    +0.000 A 
ATOM     11  N   UNL     1       1.714   7.141  20.200  0.00  0.00    +0.000 NA
ATOM     12  H   UNL     1       2.037   9.576  18.210  0.00  0.00    +0.000 HD
ATOM     13  H   UNL     1       4.083   4.518  17.047  0.00  0.00    +0.000 HD
ATOM     14  H   UNL     1       0.853   5.151  21.730  0.00  0.00    +0.000 HD
ENDROOT
BRANCH   1  21
ATOM     15  C   UNL     1       1.492  12.123  18.650  0.00  0.00    +0.000 C 
ATOM     16  C   UNL     1       0.878  11.382  19.805  0.00  0.00    +0.000 A 
ATOM     17  C   UNL     1       0.034  12.118  20.680  0.00  0.00    +0.000 A 
ATOM     18  C   UNL     1      -0.678  11.540  21.742  0.00  0.00    +0.000 A 
ATOM     19  C   UNL     1      -0.499  10.165  21.901  0.00  0.00    +0.000 A 
ATOM     20  C   UNL     1       0.342   9.419  21.055  0.00  0.00    +0.000 A 
ATOM     21  C   UNL     1       1.054  10.000  19.999  0.00  0.00    +0.000 A 
BRANCH  18  22
ATOM     22  N   UNL     1      -1.445  12.311  22.594  0.00  0.00    +0.000 N 
ATOM     23  C   UNL     1      -2.504  11.704  23.427  0.00  0.00    +0.000 C 
ATOM     24  C   UNL     1      -3.655  12.713  23.592  0.00  0.00    +0.000 C 
ATOM     25  O   UNL     1      -3.195  13.960  24.142  0.00  0.00    +0.000 OA
ATOM     26  C   UNL     1      -2.183  14.533  23.297  0.00  0.00    +0.000 C 
ATOM     27  C   UNL     1      -0.973  13.593  23.144  0.00  0.00    +0.000 C 
ENDBRANCH  18  22
ENDBRANCH   1  21
BRANCH   5  28
ATOM     28  C   UNL     1       5.026   6.255  16.326  0.00  0.00    +0.000 C 
ATOM     29  C   UNL     1       6.193   6.711  17.215  0.00  0.00    +0.000 C 
ATOM     30  C   UNL     1       6.996   5.551  17.804  0.00  0.00    +0.000 C 
ATOM     31  C   UNL     1       7.489   4.565  16.747  0.00  0.00    +0.000 C 
ATOM     32  C   UNL     1       6.409   4.153  15.752  0.00  0.00    +0.000 C 
ATOM     33  C   UNL     1       5.589   5.335  15.220  0.00  0.00    +0.000 C 
ENDBRANCH   5  28
BRANCH   7  34
ATOM     34  C   UNL     1       2.982   2.637  18.516  0.00  0.00    +0.000 C 
ATOM     35  F   UNL     1       2.624   1.428  19.016  0.00  0.00    +0.000 F 
ATOM     36  F   UNL     1       2.517   2.676  17.240  0.00  0.00    +0.000 F 
ATOM     37  F   UNL     1       4.337   2.639  18.439  0.00  0.00    +0.000 F 
ENDBRANCH   7  34
TORSDOF 4
ENDMDL
MODEL 6
REMARK VINA RESULT:      -9.0      0.967      1.573
REMARK  Name = 
REMARK  5 active torsions:
REMARK  status: ('A' for Active; 'I' for Inactive)
REMARK    1  A    between atoms: C_1  and  C_2
REMARK    2  A    between atoms: C_4  and  N_5
REMARK    3  A    between atoms: C_13  and  N_14
REMARK    4  A    between atoms: N_18  and  C_19
REMARK    5  A    between atoms: C_26  and  C_27
REMARK                            x       y       z     vdW  Elec       q    Type
REMARK                         _______ _______ _______ _____ _____    ______ ____
ROOT
ATOM      1  N   UNL     1       1.865   9.626  18.463  0.00  0.00    +0.000 N 
ATOM      2  C   UNL     1       2.295   8.327  18.775  0.00  0.00    +0.000 A 
ATOM      3  N   UNL     1       3.049   7.680  17.846  0.00  0.00    +0.000 NA
ATOM      4  C   UNL     1       3.350   6.353  17.985  0.00  0.00    +0.000 A 
ATOM      5  N   UNL     1       4.083   5.675  17.031  0.00  0.00    +0.000 N 
ATOM      6  C   UNL     1       2.806   5.682  19.107  0.00  0.00    +0.000 A 
ATOM      7  C   UNL     1       2.736   4.343  19.638  0.00  0.00    +0.000 A 
ATOM      8  C   UNL     1       2.028   4.416  20.836  0.00  0.00    +0.000 A 
ATOM      9  N   UNL     1       1.681   5.716  21.050  0.00  0.00    +0.000 N 
ATOM     10  C   UNL     1       2.117   6.477  20.011  0.00  0.00    +0.000 A 
ATOM     11  N   UNL     1       1.855   7.773  19.906  0.00  0.00    +0.000 NA
ATOM     12  H   UNL     1       1.989   9.793  17.478  0.00  0.00    +0.000 HD
ATOM     13  H   UNL     1       4.213   4.685  17.199  0.00  0.00    +0.000 HD
ATOM     14  H   UNL     1       1.145   6.083  21.825  0.00  0.00    +0.000 HD
ENDROOT
BRANCH   1  21
ATOM     15  C   UNL     1       2.367  12.538  18.351  0.00  0.00    +0.000 C 
ATOM     16  C   UNL     1       1.286  11.903  19.183  0.00  0.00    +0.000 A 
ATOM     17  C   UNL     1       0.433  12.769  19.918  0.00  0.00    +0.000 A 
ATOM     18  C   UNL     1      -0.671  12.326  20.662  0.00  0.00    +0.000 A 
ATOM     19  C   UNL     1      -0.885  10.947  20.646  0.00  0.00    +0.000 A 
ATOM     20  C   UNL     1      -0.045  10.070  19.936  0.00  0.00    +0.000 A 
ATOM     21  C   UNL     1       1.058  10.516  19.199  0.00  0.00    +0.000 A 
BRANCH  18  22
ATOM     22  N   UNL     1      -1.438  13.207  21.401  0.00  0.00    +0.000 N 
ATOM     23  C   UNL     1      -2.461  14.054  20.754  0.00  0.00    +0.000 C 
ATOM     24  C   UNL     1      -2.547  15.397  21.502  0.00  0.00    +0.000 C 
ATOM     25  O   UNL     1      -2.820  15.209  22.903  0.00  0.00    +0.000 OA
ATOM     26  C   UNL     1      -1.795  14.399  23.504  0.00  0.00    +0.000 C 
ATOM     27  C   UNL     1      -1.701  13.015  22.837  0.00  0.00    +0.000 C 
ENDBRANCH  18  22
ENDBRANCH   1  21
BRANCH   5  28
ATOM     28  C   UNL     1       5.047   6.286  16.118  0.00  0.00    +0.000 C 
ATOM     29  C   UNL     1       6.270   6.869  16.843  0.00  0.00    +0.000 C 
ATOM     30  C   UNL     1       7.126   5.810  17.537  0.00  0.00    +0.000 C 
ATOM     31  C   UNL     1       7.553   4.678  16.605  0.00  0.00    +0.000 C 
ATOM     32  C   UNL     1       6.409   4.122  15.764  0.00  0.00    +0.000 C 
ATOM     33  C   UNL     1       5.540   5.212  15.123  0.00  0.00    +0.000 C 
ENDBRANCH   5  28
BRANCH   7  34
ATOM     34  C   UNL     1       3.257   3.080  19.048  0.00  0.00    +0.000 C 
ATOM     35  F   UNL     1       2.780   2.822  17.805  0.00  0.00    +0.000 F 
ATOM     36  F   UNL     1       4.610   3.101  18.942  0.00  0.00    +0.000 F 
ATOM     37  F   UNL     1       2.940   2.007  19.815  0.00  0.00    +0.000 F 
ENDBRANCH   7  34
TORSDOF 4
ENDMDL
MODEL 7
REMARK VINA RESULT:      -8.9      1.236      1.580
REMARK  Name = 
REMARK  5 active torsions:
REMARK  status: ('A' for Active; 'I' for Inactive)
REMARK    1  A    between atoms: C_1  and  C_2
REMARK    2  A    between atoms: C_4  and  N_5
REMARK    3  A    between atoms: C_13  and  N_14
REMARK    4  A    between atoms: N_18  and  C_19
REMARK    5  A    between atoms: C_26  and  C_27
REMARK                            x       y       z     vdW  Elec       q    Type
REMARK                         _______ _______ _______ _____ _____    ______ ____
ROOT
ATOM      1  N   UNL     1       2.044   8.703  19.516  0.00  0.00    +0.000 N 
ATOM      2  C   UNL     1       2.282   7.323  19.607  0.00  0.00    +0.000 A 
ATOM      3  N   UNL     1       3.332   6.823  18.902  0.00  0.00    +0.000 NA
ATOM      4  C   UNL     1       3.519   5.473  18.784  0.00  0.00    +0.000 A 
ATOM      5  N   UNL     1       4.560   4.952  18.040  0.00  0.00    +0.000 N 
ATOM      6  C   UNL     1       2.553   4.632  19.386  0.00  0.00    +0.000 A 
ATOM      7  C   UNL     1       2.244   3.225  19.468  0.00  0.00    +0.000 A 
ATOM      8  C   UNL     1       1.115   3.103  20.275  0.00  0.00    +0.000 A 
ATOM      9  N   UNL     1       0.741   4.349  20.680  0.00  0.00    +0.000 N 
ATOM     10  C   UNL     1       1.576   5.272  20.134  0.00  0.00    +0.000 A 
ATOM     11  N   UNL     1       1.409   6.579  20.289  0.00  0.00    +0.000 NA
ATOM     12  H   UNL     1       2.559   9.082  18.738  0.00  0.00    +0.000 HD
ATOM     13  H   UNL     1       4.588   3.942  17.972  0.00  0.00    +0.000 HD
ATOM     14  H   UNL     1      -0.054   4.588  21.258  0.00  0.00    +0.000 HD
ENDROOT
BRANCH   1  21
ATOM     15  C   UNL     1      -0.111   9.837  17.838  0.00  0.00    +0.000 C 
ATOM     16  C   UNL     1       0.005  10.061  19.321  0.00  0.00    +0.000 A 
ATOM     17  C   UNL     1      -1.014  10.826  19.948  0.00  0.00    +0.000 A 
ATOM     18  C   UNL     1      -1.087  11.039  21.333  0.00  0.00    +0.000 A 
ATOM     19  C   UNL     1      -0.068  10.446  22.080  0.00  0.00    +0.000 A 
ATOM     20  C   UNL     1       0.959   9.695  21.479  0.00  0.00    +0.000 A 
ATOM     21  C   UNL     1       1.030   9.490  20.096  0.00  0.00    +0.000 A 
BRANCH  18  22
ATOM     22  N   UNL     1      -2.071  11.834  21.887  0.00  0.00    +0.000 N 
ATOM     23  C   UNL     1      -2.016  12.240  23.306  0.00  0.00    +0.000 C 
ATOM     24  C   UNL     1      -3.450  12.347  23.855  0.00  0.00    +0.000 C 
ATOM     25  O   UNL     1      -4.253  13.251  23.074  0.00  0.00    +0.000 OA
ATOM     26  C   UNL     1      -4.303  12.814  21.705  0.00  0.00    +0.000 C 
ATOM     27  C   UNL     1      -2.898  12.747  21.079  0.00  0.00    +0.000 C 
ENDBRANCH  18  22
ENDBRANCH   1  21
BRANCH   5  28
ATOM     28  C   UNL     1       5.825   5.632  17.767  0.00  0.00    +0.000 C 
ATOM     29  C   UNL     1       6.929   4.674  17.298  0.00  0.00    +0.000 C 
ATOM     30  C   UNL     1       6.631   4.018  15.949  0.00  0.00    +0.000 C 
ATOM     31  C   UNL     1       6.304   5.027  14.851  0.00  0.00    +0.000 C 
ATOM     32  C   UNL     1       5.294   6.086  15.282  0.00  0.00    +0.000 C 
ATOM     33  C   UNL     1       5.595   6.686  16.661  0.00  0.00    +0.000 C 
ENDBRANCH   5  28
BRANCH   7  34
ATOM     34  C   UNL     1       2.930   2.082  18.807  0.00  0.00    +0.000 C 
ATOM     35  F   UNL     1       3.046   2.219  17.463  0.00  0.00    +0.000 F 
ATOM     36  F   UNL     1       4.189   1.913  19.285  0.00  0.00    +0.000 F 
ATOM     37  F   UNL     1       2.270   0.916  19.022  0.00  0.00    +0.000 F 
ENDBRANCH   7  34
TORSDOF 4
ENDMDL
MODEL 8
REMARK VINA RESULT:      -8.6      0.964      1.698
REMARK  Name = 
REMARK  5 active torsions:
REMARK  status: ('A' for Active; 'I' for Inactive)
REMARK    1  A    between atoms: C_1  and  C_2
REMARK    2  A    between atoms: C_4  and  N_5
REMARK    3  A    between atoms: C_13  and  N_14
REMARK    4  A    between atoms: N_18  and  C_19
REMARK    5  A    between atoms: C_26  and  C_27
REMARK                            x       y       z     vdW  Elec       q    Type
REMARK                         _______ _______ _______ _____ _____    ______ ____
ROOT
ATOM      1  N   UNL     1       1.628   9.178  19.095  0.00  0.00    +0.000 N 
ATOM      2  C   UNL     1       2.058   7.850  19.239  0.00  0.00    +0.000 A 
ATOM      3  N   UNL     1       3.039   7.417  18.402  0.00  0.00    +0.000 NA
ATOM      4  C   UNL     1       3.381   6.094  18.347  0.00  0.00    +0.000 A 
ATOM      5  N   UNL     1       4.350   5.636  17.475  0.00  0.00    +0.000 N 
ATOM      6  C   UNL     1       2.643   5.201  19.160  0.00  0.00    +0.000 A 
ATOM      7  C   UNL     1       2.538   3.780  19.389  0.00  0.00    +0.000 A 
ATOM      8  C   UNL     1       1.578   3.597  20.381  0.00  0.00    +0.000 A 
ATOM      9  N   UNL     1       1.113   4.821  20.758  0.00  0.00    +0.000 N 
ATOM     10  C   UNL     1       1.721   5.785  20.016  0.00  0.00    +0.000 A 
ATOM     11  N   UNL     1       1.410   7.071  20.108  0.00  0.00    +0.000 NA
ATOM     12  H   UNL     1       1.959   9.544  18.217  0.00  0.00    +0.000 HD
ATOM     13  H   UNL     1       4.499   4.634  17.472  0.00  0.00    +0.000 HD
ATOM     14  H   UNL     1       0.395   5.015  21.444  0.00  0.00    +0.000 HD
ENDROOT
BRANCH   1  21
ATOM     15  C   UNL     1       1.719   9.417  22.041  0.00  0.00    +0.000 C 
ATOM     16  C   UNL     1       0.629   9.999  21.184  0.00  0.00    +0.000 A 
ATOM     17  C   UNL     1      -0.388  10.747  21.837  0.00  0.00    +0.000 A 
ATOM     18  C   UNL     1      -1.414  11.422  21.159  0.00  0.00    +0.000 A 
ATOM     19  C   UNL     1      -1.384  11.309  19.769  0.00  0.00    +0.000 A 
ATOM     20  C   UNL     1      -0.394  10.564  19.101  0.00  0.00    +0.000 A 
ATOM     21  C   UNL     1       0.625   9.887  19.782  0.00  0.00    +0.000 A 
BRANCH  18  22
ATOM     22  N   UNL     1      -2.408  12.093  21.847  0.00  0.00    +0.000 N 
ATOM     23  C   UNL     1      -2.241  12.451  23.270  0.00  0.00    +0.000 C 
ATOM     24  C   UNL     1      -3.612  12.391  23.968  0.00  0.00    +0.000 C 
ATOM     25  O   UNL     1      -4.579  13.234  23.316  0.00  0.00    +0.000 OA
ATOM     26  C   UNL     1      -4.731  12.844  21.940  0.00  0.00    +0.000 C 
ATOM     27  C   UNL     1      -3.402  12.944  21.171  0.00  0.00    +0.000 C 
ENDBRANCH  18  22
ENDBRANCH   1  21
BRANCH   5  28
ATOM     28  C   UNL     1       5.454   6.433  16.947  0.00  0.00    +0.000 C 
ATOM     29  C   UNL     1       6.832   5.904  17.373  0.00  0.00    +0.000 C 
ATOM     30  C   UNL     1       7.151   4.519  16.809  0.00  0.00    +0.000 C 
ATOM     31  C   UNL     1       6.999   4.440  15.291  0.00  0.00    +0.000 C 
ATOM     32  C   UNL     1       5.700   5.053  14.779  0.00  0.00    +0.000 C 
ATOM     33  C   UNL     1       5.386   6.419  15.403  0.00  0.00    +0.000 C 
ENDBRANCH   5  28
BRANCH   7  34
ATOM     34  C   UNL     1       3.255   2.672  18.702  0.00  0.00    +0.000 C 
ATOM     35  F   UNL     1       2.807   1.439  19.044  0.00  0.00    +0.000 F 
ATOM     36  F   UNL     1       3.134   2.762  17.352  0.00  0.00    +0.000 F 
ATOM     37  F   UNL     1       4.583   2.693  18.978  0.00  0.00    +0.000 F 
ENDBRANCH   7  34
TORSDOF 4
ENDMDL
MODEL 9
REMARK VINA RESULT:      -8.4      5.167     10.680
REMARK  Name = 
REMARK  5 active torsions:
REMARK  status: ('A' for Active; 'I' for Inactive)
REMARK    1  A    between atoms: C_1  and  C_2
REMARK    2  A    between atoms: C_4  and  N_5
REMARK    3  A    between atoms: C_13  and  N_14
REMARK    4  A    between atoms: N_18  and  C_19
REMARK    5  A    between atoms: C_26  and  C_27
REMARK                            x       y       z     vdW  Elec       q    Type
REMARK                         _______ _______ _______ _____ _____    ______ ____
ROOT
ATOM      1  N   UNL     1       0.388  10.147  19.687  0.00  0.00    +0.000 N 
ATOM      2  C   UNL     1      -0.742  10.701  19.066  0.00  0.00    +0.000 A 
ATOM      3  N   UNL     1      -1.455  11.619  19.773  0.00  0.00    +0.000 NA
ATOM      4  C   UNL     1      -2.667  12.065  19.322  0.00  0.00    +0.000 A 
ATOM      5  N   UNL     1      -3.418  12.969  20.047  0.00  0.00    +0.000 N 
ATOM      6  C   UNL     1      -3.159  11.498  18.121  0.00  0.00    +0.000 A 
ATOM      7  C   UNL     1      -4.354  11.540  17.315  0.00  0.00    +0.000 A 
ATOM      8  C   UNL     1      -4.133  10.711  16.216  0.00  0.00    +0.000 A 
ATOM      9  N   UNL     1      -2.879  10.187  16.320  0.00  0.00    +0.000 N 
ATOM     10  C   UNL     1      -2.298  10.628  17.468  0.00  0.00    +0.000 A 
ATOM     11  N   UNL     1      -1.104  10.220  17.875  0.00  0.00    +0.000 NA
ATOM     12  H   UNL     1       0.361  10.348  20.673  0.00  0.00    +0.000 HD
ATOM     13  H   UNL     1      -4.323  13.202  19.656  0.00  0.00    +0.000 HD
ATOM     14  H   UNL     1      -2.438   9.534  15.686  0.00  0.00    +0.000 HD
ENDROOT
BRANCH   1  21
ATOM     15  C   UNL     1       0.997   7.779  21.349  0.00  0.00    +0.000 C 
ATOM     16  C   UNL     1       1.615   8.041  20.003  0.00  0.00    +0.000 A 
ATOM     17  C   UNL     1       2.507   7.062  19.491  0.00  0.00    +0.000 A 
ATOM     18  C   UNL     1       3.085   7.129  18.214  0.00  0.00    +0.000 A 
ATOM     19  C   UNL     1       2.730   8.246  17.457  0.00  0.00    +0.000 A 
ATOM     20  C   UNL     1       1.858   9.235  17.950  0.00  0.00    +0.000 A 
ATOM     21  C   UNL     1       1.288   9.167  19.226  0.00  0.00    +0.000 A 
BRANCH  18  22
ATOM     22  N   UNL     1       3.987   6.174  17.784  0.00  0.00    +0.000 N 
ATOM     23  C   UNL     1       5.053   6.513  16.818  0.00  0.00    +0.000 C 
ATOM     24  C   UNL     1       5.330   5.289  15.927  0.00  0.00    +0.000 C 
ATOM     25  O   UNL     1       5.667   4.127  16.706  0.00  0.00    +0.000 OA
ATOM     26  C   UNL     1       4.601   3.814  17.618  0.00  0.00    +0.000 C 
ATOM     27  C   UNL     1       4.317   4.981  18.582  0.00  0.00    +0.000 C 
ENDBRANCH  18  22
ENDBRANCH   1  21
BRANCH   5  28
ATOM     28  C   UNL     1      -2.881  13.938  21.001  0.00  0.00    +0.000 C 
ATOM     29  C   UNL     1      -3.709  15.230  21.070  0.00  0.00    +0.000 C 
ATOM     30  C   UNL     1      -5.124  15.016  21.607  0.00  0.00    +0.000 C 
ATOM     31  C   UNL     1      -5.153  14.296  22.954  0.00  0.00    +0.000 C 
ATOM     32  C   UNL     1      -4.260  13.061  22.999  0.00  0.00    +0.000 C 
ATOM     33  C   UNL     1      -2.865  13.297  22.406  0.00  0.00    +0.000 C 
ENDBRANCH   5  28
BRANCH   7  34
ATOM     34  C   UNL     1      -5.624  12.269  17.572  0.00  0.00    +0.000 C 
ATOM     35  F   UNL     1      -5.649  12.918  18.762  0.00  0.00    +0.000 F 
ATOM     36  F   UNL     1      -5.862  13.208  16.620  0.00  0.00    +0.000 F 
ATOM     37  F   UNL     1      -6.689  11.429  17.567  0.00  0.00    +0.000 F 
ENDBRANCH   7  34
TORSDOF 4
ENDMDL
