MODEL 1
REMARK VINA RESULT:      -7.4      0.000      0.000
REMARK  Name = 
REMARK  17 active torsions:
REMARK  status: ('A' for Active; 'I' for Inactive)
REMARK    1  A    between atoms: C_1  and  C_2
REMARK    2  A    between atoms: C_2  and  C_4
REMARK    3  A    between atoms: C_5  and  O_6
REMARK    4  A    between atoms: C_8  and  O_9
REMARK    5  A    between atoms: O_9  and  C_10
REMARK    6  A    between atoms: C_10  and  C_11
REMARK    7  A    between atoms: C_12  and  C_13
REMARK    8  A    between atoms: C_12  and  C_14
REMARK    9  A    between atoms: C_14  and  C_15
REMARK   10  A    between atoms: C_15  and  C_16
REMARK   11  A    between atoms: C_17  and  C_18
REMARK   12  A    between atoms: C_17  and  C_19
REMARK   13  A    between atoms: C_19  and  C_20
REMARK   14  A    between atoms: C_20  and  C_21
REMARK   15  A    between atoms: C_22  and  C_23
REMARK   16  A    between atoms: C_22  and  C_24
REMARK   17  A    between atoms: C_26  and  O_27
REMARK                            x       y       z     vdW  Elec       q    Type
REMARK                         _______ _______ _______ _____ _____    ______ ____
ROOT
ATOM      1  C   UNL     1       1.835   2.640  18.165  0.00  0.00    +0.000 C 
ENDROOT
BRANCH   1   2
ATOM      2  C   UNL     1       1.647   3.957  18.852  0.00  0.00    +0.000 C 
ATOM      3  C   UNL     1       1.413   4.125  20.170  0.00  0.00    +0.000 C 
ATOM      4  C   UNL     1       1.387   2.993  21.167  0.00  0.00    +0.000 C 
BRANCH   3   5
ATOM      5  C   UNL     1       1.173   5.521  20.718  0.00  0.00    +0.000 C 
BRANCH   5   6
ATOM      6  C   UNL     1       2.301   6.498  20.369  0.00  0.00    +0.000 C 
BRANCH   6   7
ATOM      7  C   UNL     1       1.814   7.769  19.751  0.00  0.00    +0.000 C 
ATOM      8  C   UNL     1       2.213   8.242  18.551  0.00  0.00    +0.000 C 
ATOM      9  C   UNL     1       3.201   7.507  17.677  0.00  0.00    +0.000 C 
BRANCH   8  10
ATOM     10  C   UNL     1       1.714   9.553  17.959  0.00  0.00    +0.000 C 
BRANCH  10  11
ATOM     11  C   UNL     1       0.320   9.971  18.442  0.00  0.00    +0.000 C 
BRANCH  11  12
ATOM     12  C   UNL     1       0.054  11.444  18.503  0.00  0.00    +0.000 C 
ATOM     13  C   UNL     1      -0.472  12.049  19.588  0.00  0.00    +0.000 C 
ATOM     14  C   UNL     1      -0.850  11.328  20.855  0.00  0.00    +0.000 C 
ATOM     15  C   UNL     1      -0.729  13.528  19.614  0.00  0.00    +0.000 C 
ENDBRANCH  11  12
ENDBRANCH  10  11
ENDBRANCH   8  10
ENDBRANCH   6   7
ENDBRANCH   5   6
ENDBRANCH   3   5
ENDBRANCH   1   2
BRANCH   1  16
ATOM     16  O   UNL     1       3.180   2.225  18.377  0.00  0.00    +0.000 OA
BRANCH  16  20
ATOM     17  C   UNL     1       6.029   5.112  17.345  0.00  0.00    +0.000 A 
ATOM     18  C   UNL     1       5.174   4.522  16.396  0.00  0.00    +0.000 A 
ATOM     19  C   UNL     1       4.216   3.577  16.774  0.00  0.00    +0.000 A 
ATOM     20  C   UNL     1       4.130   3.167  18.101  0.00  0.00    +0.000 A 
ATOM     21  C   UNL     1       4.966   3.745  19.056  0.00  0.00    +0.000 A 
ATOM     22  C   UNL     1       5.915   4.699  18.679  0.00  0.00    +0.000 A 
BRANCH  17  24
ATOM     23  C   UNL     1       7.074   7.487  17.536  0.00  0.00    +0.000 C 
ATOM     24  C   UNL     1       7.011   6.133  16.886  0.00  0.00    +0.000 C 
ATOM     25  O   UNL     1       7.699   5.871  15.895  0.00  0.00    +0.000 OA
ENDBRANCH  17  24
BRANCH  18  26
ATOM     26  O   UNL     1       5.220   4.819  15.058  0.00  0.00    +0.000 OA
ATOM     27  H   UNL     1       5.817   4.165  14.628  0.00  0.00    +0.000 HD
ENDBRANCH  18  26
BRANCH  22  28
ATOM     28  O   UNL     1       6.743   5.191  19.647  0.00  0.00    +0.000 OA
ATOM     29  H   UNL     1       6.328   5.095  20.522  0.00  0.00    +0.000 HD
ENDBRANCH  22  28
ENDBRANCH  16  20
ENDBRANCH   1  16
TORSDOF 12
ENDMDL
MODEL 2
REMARK VINA RESULT:      -7.4      4.021      7.016
REMARK  Name = 
REMARK  17 active torsions:
REMARK  status: ('A' for Active; 'I' for Inactive)
REMARK    1  A    between atoms: C_1  and  C_2
REMARK    2  A    between atoms: C_2  and  C_4
REMARK    3  A    between atoms: C_5  and  O_6
REMARK    4  A    between atoms: C_8  and  O_9
REMARK    5  A    between atoms: O_9  and  C_10
REMARK    6  A    between atoms: C_10  and  C_11
REMARK    7  A    between atoms: C_12  and  C_13
REMARK    8  A    between atoms: C_12  and  C_14
REMARK    9  A    between atoms: C_14  and  C_15
REMARK   10  A    between atoms: C_15  and  C_16
REMARK   11  A    between atoms: C_17  and  C_18
REMARK   12  A    between atoms: C_17  and  C_19
REMARK   13  A    between atoms: C_19  and  C_20
REMARK   14  A    between atoms: C_20  and  C_21
REMARK   15  A    between atoms: C_22  and  C_23
REMARK   16  A    between atoms: C_22  and  C_24
REMARK   17  A    between atoms: C_26  and  O_27
REMARK                            x       y       z     vdW  Elec       q    Type
REMARK                         _______ _______ _______ _____ _____    ______ ____
ROOT
ATOM      1  C   UNL     1       6.318   6.030  16.366  0.00  0.00    +0.000 C 
ENDROOT
BRANCH   1   2
ATOM      2  C   UNL     1       7.142   7.093  17.024  0.00  0.00    +0.000 C 
ATOM      3  C   UNL     1       7.791   6.964  18.199  0.00  0.00    +0.000 C 
ATOM      4  C   UNL     1       7.845   5.679  18.989  0.00  0.00    +0.000 C 
BRANCH   3   5
ATOM      5  C   UNL     1       8.533   8.153  18.783  0.00  0.00    +0.000 C 
BRANCH   5   6
ATOM      6  C   UNL     1       8.101   9.485  18.160  0.00  0.00    +0.000 C 
BRANCH   6   7
ATOM      7  C   UNL     1       9.231  10.446  17.973  0.00  0.00    +0.000 C 
ATOM      8  C   UNL     1       9.811  11.153  18.966  0.00  0.00    +0.000 C 
ATOM      9  C   UNL     1       9.383  11.026  20.409  0.00  0.00    +0.000 C 
BRANCH   8  10
ATOM     10  C   UNL     1      10.947  12.142  18.739  0.00  0.00    +0.000 C 
BRANCH  10  11
ATOM     11  C   UNL     1      10.536  13.405  17.971  0.00  0.00    +0.000 C 
BRANCH  11  12
ATOM     12  C   UNL     1       9.760  14.426  18.744  0.00  0.00    +0.000 C 
ATOM     13  C   UNL     1       8.438  14.629  18.568  0.00  0.00    +0.000 C 
ATOM     14  C   UNL     1       7.590  13.861  17.588  0.00  0.00    +0.000 C 
ATOM     15  C   UNL     1       7.691  15.664  19.357  0.00  0.00    +0.000 C 
ENDBRANCH  11  12
ENDBRANCH  10  11
ENDBRANCH   8  10
ENDBRANCH   6   7
ENDBRANCH   5   6
ENDBRANCH   3   5
ENDBRANCH   1   2
BRANCH   1  16
ATOM     16  O   UNL     1       4.947   6.339  16.589  0.00  0.00    +0.000 OA
BRANCH  16  20
ATOM     17  C   UNL     1       3.177   4.002  19.575  0.00  0.00    +0.000 A 
ATOM     18  C   UNL     1       3.876   3.439  18.492  0.00  0.00    +0.000 A 
ATOM     19  C   UNL     1       4.477   4.246  17.522  0.00  0.00    +0.000 A 
ATOM     20  C   UNL     1       4.346   5.629  17.590  0.00  0.00    +0.000 A 
ATOM     21  C   UNL     1       3.661   6.205  18.660  0.00  0.00    +0.000 A 
ATOM     22  C   UNL     1       3.071   5.398  19.636  0.00  0.00    +0.000 A 
BRANCH  17  24
ATOM     23  C   UNL     1       1.091   2.922  20.697  0.00  0.00    +0.000 C 
ATOM     24  C   UNL     1       2.581   3.091  20.593  0.00  0.00    +0.000 C 
ATOM     25  O   UNL     1       3.340   2.561  21.410  0.00  0.00    +0.000 OA
ENDBRANCH  17  24
BRANCH  18  26
ATOM     26  O   UNL     1       4.011   2.087  18.308  0.00  0.00    +0.000 OA
ATOM     27  H   UNL     1       3.764   1.645  19.151  0.00  0.00    +0.000 HD
ENDBRANCH  18  26
BRANCH  22  28
ATOM     28  O   UNL     1       2.367   6.013  20.631  0.00  0.00    +0.000 OA
ATOM     29  H   UNL     1       2.179   5.382  21.347  0.00  0.00    +0.000 HD
ENDBRANCH  22  28
ENDBRANCH  16  20
ENDBRANCH   1  16
TORSDOF 12
ENDMDL
MODEL 3
REMARK VINA RESULT:      -7.0      3.349      7.339
REMARK  Name = 
REMARK  17 active torsions:
REMARK  status: ('A' for Active; 'I' for Inactive)
REMARK    1  A    between atoms: C_1  and  C_2
REMARK    2  A    between atoms: C_2  and  C_4
REMARK    3  A    between atoms: C_5  and  O_6
REMARK    4  A    between atoms: C_8  and  O_9
REMARK    5  A    between atoms: O_9  and  C_10
REMARK    6  A    between atoms: C_10  and  C_11
REMARK    7  A    between atoms: C_12  and  C_13
REMARK    8  A    between atoms: C_12  and  C_14
REMARK    9  A    between atoms: C_14  and  C_15
REMARK   10  A    between atoms: C_15  and  C_16
REMARK   11  A    between atoms: C_17  and  C_18
REMARK   12  A    between atoms: C_17  and  C_19
REMARK   13  A    between atoms: C_19  and  C_20
REMARK   14  A    between atoms: C_20  and  C_21
REMARK   15  A    between atoms: C_22  and  C_23
REMARK   16  A    between atoms: C_22  and  C_24
REMARK   17  A    between atoms: C_26  and  O_27
REMARK                            x       y       z     vdW  Elec       q    Type
REMARK                         _______ _______ _______ _____ _____    ______ ____
ROOT
ATOM      1  C   UNL     1       2.378   6.335  20.325  0.00  0.00    +0.000 C 
ENDROOT
BRANCH   1   2
ATOM      2  C   UNL     1       1.622   5.214  19.681  0.00  0.00    +0.000 C 
ATOM      3  C   UNL     1       1.484   3.971  20.187  0.00  0.00    +0.000 C 
ATOM      4  C   UNL     1       2.014   3.554  21.536  0.00  0.00    +0.000 C 
BRANCH   3   5
ATOM      5  C   UNL     1       0.746   2.912  19.388  0.00  0.00    +0.000 C 
BRANCH   5   6
ATOM      6  C   UNL     1       1.684   2.048  18.539  0.00  0.00    +0.000 C 
BRANCH   6   7
ATOM      7  C   UNL     1       2.516   2.841  17.582  0.00  0.00    +0.000 C 
ATOM      8  C   UNL     1       3.816   3.151  17.769  0.00  0.00    +0.000 C 
ATOM      9  C   UNL     1       4.592   2.700  18.984  0.00  0.00    +0.000 C 
BRANCH   8  10
ATOM     10  C   UNL     1       4.630   3.980  16.784  0.00  0.00    +0.000 C 
BRANCH  10  11
ATOM     11  C   UNL     1       6.006   4.408  17.309  0.00  0.00    +0.000 C 
BRANCH  11  12
ATOM     12  C   UNL     1       6.421   5.815  17.007  0.00  0.00    +0.000 C 
ATOM     13  C   UNL     1       7.261   6.517  17.795  0.00  0.00    +0.000 C 
ATOM     14  C   UNL     1       7.880   5.978  19.058  0.00  0.00    +0.000 C 
ATOM     15  C   UNL     1       7.654   7.928  17.465  0.00  0.00    +0.000 C 
ENDBRANCH  11  12
ENDBRANCH  10  11
ENDBRANCH   8  10
ENDBRANCH   6   7
ENDBRANCH   5   6
ENDBRANCH   3   5
ENDBRANCH   1   2
BRANCH   1  16
ATOM     16  O   UNL     1       1.437   7.168  20.994  0.00  0.00    +0.000 OA
BRANCH  16  20
ATOM     17  C   UNL     1       0.540  10.876  19.274  0.00  0.00    +0.000 A 
ATOM     18  C   UNL     1       0.018  10.475  20.517  0.00  0.00    +0.000 A 
ATOM     19  C   UNL     1       0.354   9.240  21.078  0.00  0.00    +0.000 A 
ATOM     20  C   UNL     1       1.178   8.361  20.381  0.00  0.00    +0.000 A 
ATOM     21  C   UNL     1       1.709   8.744  19.149  0.00  0.00    +0.000 A 
ATOM     22  C   UNL     1       1.382   9.985  18.595  0.00  0.00    +0.000 A 
BRANCH  17  24
ATOM     23  C   UNL     1      -1.195  12.460  18.153  0.00  0.00    +0.000 C 
ATOM     24  C   UNL     1       0.167  12.216  18.740  0.00  0.00    +0.000 C 
ATOM     25  O   UNL     1       1.041  13.087  18.703  0.00  0.00    +0.000 OA
ENDBRANCH  17  24
BRANCH  18  26
ATOM     26  O   UNL     1      -0.844  11.246  21.252  0.00  0.00    +0.000 OA
ATOM     27  H   UNL     1      -0.771  10.964  22.191  0.00  0.00    +0.000 HD
ENDBRANCH  18  26
BRANCH  22  28
ATOM     28  O   UNL     1       1.887  10.285  17.363  0.00  0.00    +0.000 OA
ATOM     29  H   UNL     1       1.171  10.576  16.770  0.00  0.00    +0.000 HD
ENDBRANCH  22  28
ENDBRANCH  16  20
ENDBRANCH   1  16
TORSDOF 12
ENDMDL
MODEL 4
REMARK VINA RESULT:      -7.0      4.029      7.239
REMARK  Name = 
REMARK  17 active torsions:
REMARK  status: ('A' for Active; 'I' for Inactive)
REMARK    1  A    between atoms: C_1  and  C_2
REMARK    2  A    between atoms: C_2  and  C_4
REMARK    3  A    between atoms: C_5  and  O_6
REMARK    4  A    between atoms: C_8  and  O_9
REMARK    5  A    between atoms: O_9  and  C_10
REMARK    6  A    between atoms: C_10  and  C_11
REMARK    7  A    between atoms: C_12  and  C_13
REMARK    8  A    between atoms: C_12  and  C_14
REMARK    9  A    between atoms: C_14  and  C_15
REMARK   10  A    between atoms: C_15  and  C_16
REMARK   11  A    between atoms: C_17  and  C_18
REMARK   12  A    between atoms: C_17  and  C_19
REMARK   13  A    between atoms: C_19  and  C_20
REMARK   14  A    between atoms: C_20  and  C_21
REMARK   15  A    between atoms: C_22  and  C_23
REMARK   16  A    between atoms: C_22  and  C_24
REMARK   17  A    between atoms: C_26  and  O_27
REMARK                            x       y       z     vdW  Elec       q    Type
REMARK                         _______ _______ _______ _____ _____    ______ ____
ROOT
ATOM      1  C   UNL     1       5.148   6.339  16.456  0.00  0.00    +0.000 C 
ENDROOT
BRANCH   1   2
ATOM      2  C   UNL     1       6.398   7.143  16.637  0.00  0.00    +0.000 C 
ATOM      3  C   UNL     1       7.275   7.007  17.653  0.00  0.00    +0.000 C 
ATOM      4  C   UNL     1       7.157   5.953  18.725  0.00  0.00    +0.000 C 
BRANCH   3   5
ATOM      5  C   UNL     1       8.469   7.942  17.745  0.00  0.00    +0.000 C 
BRANCH   5   6
ATOM      6  C   UNL     1       8.073   9.373  18.127  0.00  0.00    +0.000 C 
BRANCH   6   7
ATOM      7  C   UNL     1       9.224  10.196  18.611  0.00  0.00    +0.000 C 
ATOM      8  C   UNL     1       9.401  11.506  18.335  0.00  0.00    +0.000 C 
ATOM      9  C   UNL     1       8.419  12.301  17.508  0.00  0.00    +0.000 C 
BRANCH   8  10
ATOM     10  C   UNL     1      10.596  12.312  18.825  0.00  0.00    +0.000 C 
BRANCH  10  11
ATOM     11  C   UNL     1      10.886  12.158  20.324  0.00  0.00    +0.000 C 
BRANCH  11  12
ATOM     12  C   UNL     1      10.278  13.189  21.224  0.00  0.00    +0.000 C 
ATOM     13  C   UNL     1       9.211  12.937  22.010  0.00  0.00    +0.000 C 
ATOM     14  C   UNL     1       8.511  11.605  22.081  0.00  0.00    +0.000 C 
ATOM     15  C   UNL     1       8.623  13.995  22.898  0.00  0.00    +0.000 C 
ENDBRANCH  11  12
ENDBRANCH  10  11
ENDBRANCH   8  10
ENDBRANCH   6   7
ENDBRANCH   5   6
ENDBRANCH   3   5
ENDBRANCH   1   2
BRANCH   1  16
ATOM     16  O   UNL     1       4.120   6.952  17.228  0.00  0.00    +0.000 OA
BRANCH  16  20
ATOM     17  C   UNL     1       1.879   4.195  19.439  0.00  0.00    +0.000 A 
ATOM     18  C   UNL     1       2.397   3.897  18.165  0.00  0.00    +0.000 A 
ATOM     19  C   UNL     1       3.162   4.831  17.460  0.00  0.00    +0.000 A 
ATOM     20  C   UNL     1       3.380   6.097  17.994  0.00  0.00    +0.000 A 
ATOM     21  C   UNL     1       2.878   6.407  19.258  0.00  0.00    +0.000 A 
ATOM     22  C   UNL     1       2.124   5.469  19.968  0.00  0.00    +0.000 A 
BRANCH  17  24
ATOM     23  C   UNL     1       1.545   2.626  21.488  0.00  0.00    +0.000 C 
ATOM     24  C   UNL     1       1.094   3.150  20.154  0.00  0.00    +0.000 C 
ATOM     25  O   UNL     1       0.122   2.658  19.573  0.00  0.00    +0.000 OA
ENDBRANCH  17  24
BRANCH  18  26
ATOM     26  O   UNL     1       2.189   2.700  17.532  0.00  0.00    +0.000 OA
ATOM     27  H   UNL     1       2.936   2.104  17.767  0.00  0.00    +0.000 HD
ENDBRANCH  18  26
BRANCH  22  28
ATOM     28  O   UNL     1       1.612   5.845  21.176  0.00  0.00    +0.000 OA
ATOM     29  H   UNL     1       1.197   5.083  21.616  0.00  0.00    +0.000 HD
ENDBRANCH  22  28
ENDBRANCH  16  20
ENDBRANCH   1  16
TORSDOF 12
ENDMDL
MODEL 5
REMARK VINA RESULT:      -7.0      3.584      7.352
REMARK  Name = 
REMARK  17 active torsions:
REMARK  status: ('A' for Active; 'I' for Inactive)
REMARK    1  A    between atoms: C_1  and  C_2
REMARK    2  A    between atoms: C_2  and  C_4
REMARK    3  A    between atoms: C_5  and  O_6
REMARK    4  A    between atoms: C_8  and  O_9
REMARK    5  A    between atoms: O_9  and  C_10
REMARK    6  A    between atoms: C_10  and  C_11
REMARK    7  A    between atoms: C_12  and  C_13
REMARK    8  A    between atoms: C_12  and  C_14
REMARK    9  A    between atoms: C_14  and  C_15
REMARK   10  A    between atoms: C_15  and  C_16
REMARK   11  A    between atoms: C_17  and  C_18
REMARK   12  A    between atoms: C_17  and  C_19
REMARK   13  A    between atoms: C_19  and  C_20
REMARK   14  A    between atoms: C_20  and  C_21
REMARK   15  A    between atoms: C_22  and  C_23
REMARK   16  A    between atoms: C_22  and  C_24
REMARK   17  A    between atoms: C_26  and  O_27
REMARK                            x       y       z     vdW  Elec       q    Type
REMARK                         _______ _______ _______ _____ _____    ______ ____
ROOT
ATOM      1  C   UNL     1       2.077   6.268  20.927  0.00  0.00    +0.000 C 
ENDROOT
BRANCH   1   2
ATOM      2  C   UNL     1       1.211   5.194  20.344  0.00  0.00    +0.000 C 
ATOM      3  C   UNL     1       1.320   3.874  20.603  0.00  0.00    +0.000 C 
ATOM      4  C   UNL     1       2.296   3.295  21.596  0.00  0.00    +0.000 C 
BRANCH   3   5
ATOM      5  C   UNL     1       0.415   2.890  19.883  0.00  0.00    +0.000 C 
BRANCH   5   6
ATOM      6  C   UNL     1       1.071   2.281  18.640  0.00  0.00    +0.000 C 
BRANCH   6   7
ATOM      7  C   UNL     1       1.936   3.245  17.893  0.00  0.00    +0.000 C 
ATOM      8  C   UNL     1       3.240   3.043  17.606  0.00  0.00    +0.000 C 
ATOM      9  C   UNL     1       3.972   1.782  17.999  0.00  0.00    +0.000 C 
BRANCH   8  10
ATOM     10  C   UNL     1       4.101   4.056  16.863  0.00  0.00    +0.000 C 
BRANCH  10  11
ATOM     11  C   UNL     1       4.015   5.483  17.419  0.00  0.00    +0.000 C 
BRANCH  11  12
ATOM     12  C   UNL     1       5.177   6.379  17.123  0.00  0.00    +0.000 C 
ATOM     13  C   UNL     1       6.324   6.350  17.833  0.00  0.00    +0.000 C 
ATOM     14  C   UNL     1       6.575   5.421  18.993  0.00  0.00    +0.000 C 
ATOM     15  C   UNL     1       7.470   7.265  17.513  0.00  0.00    +0.000 C 
ENDBRANCH  11  12
ENDBRANCH  10  11
ENDBRANCH   8  10
ENDBRANCH   6   7
ENDBRANCH   5   6
ENDBRANCH   3   5
ENDBRANCH   1   2
BRANCH   1  16
ATOM     16  O   UNL     1       2.169   7.320  19.972  0.00  0.00    +0.000 OA
BRANCH  16  20
ATOM     17  C   UNL     1       0.125  10.877  20.799  0.00  0.00    +0.000 A 
ATOM     18  C   UNL     1       0.552  10.536  19.503  0.00  0.00    +0.000 A 
ATOM     19  C   UNL     1       1.212   9.330  19.253  0.00  0.00    +0.000 A 
ATOM     20  C   UNL     1       1.502   8.465  20.304  0.00  0.00    +0.000 A 
ATOM     21  C   UNL     1       1.081   8.785  21.595  0.00  0.00    +0.000 A 
ATOM     22  C   UNL     1       0.410   9.985  21.842  0.00  0.00    +0.000 A 
BRANCH  17  24
ATOM     23  C   UNL     1       0.062  13.319  21.697  0.00  0.00    +0.000 C 
ATOM     24  C   UNL     1      -0.599  12.164  20.999  0.00  0.00    +0.000 C 
ATOM     25  O   UNL     1      -1.786  12.217  20.665  0.00  0.00    +0.000 OA
ENDBRANCH  17  24
BRANCH  18  26
ATOM     26  O   UNL     1       0.363  11.346  18.414  0.00  0.00    +0.000 OA
ATOM     27  H   UNL     1       0.121  10.772  17.653  0.00  0.00    +0.000 HD
ENDBRANCH  18  26
BRANCH  22  28
ATOM     28  O   UNL     1       0.070  10.271  23.132  0.00  0.00    +0.000 OA
ATOM     29  H   UNL     1      -0.899  10.316  23.221  0.00  0.00    +0.000 HD
ENDBRANCH  22  28
ENDBRANCH  16  20
ENDBRANCH   1  16
TORSDOF 12
ENDMDL
MODEL 6
REMARK VINA RESULT:      -6.9      4.208      6.990
REMARK  Name = 
REMARK  17 active torsions:
REMARK  status: ('A' for Active; 'I' for Inactive)
REMARK    1  A    between atoms: C_1  and  C_2
REMARK    2  A    between atoms: C_2  and  C_4
REMARK    3  A    between atoms: C_5  and  O_6
REMARK    4  A    between atoms: C_8  and  O_9
REMARK    5  A    between atoms: O_9  and  C_10
REMARK    6  A    between atoms: C_10  and  C_11
REMARK    7  A    between atoms: C_12  and  C_13
REMARK    8  A    between atoms: C_12  and  C_14
REMARK    9  A    between atoms: C_14  and  C_15
REMARK   10  A    between atoms: C_15  and  C_16
REMARK   11  A    between atoms: C_17  and  C_18
REMARK   12  A    between atoms: C_17  and  C_19
REMARK   13  A    between atoms: C_19  and  C_20
REMARK   14  A    between atoms: C_20  and  C_21
REMARK   15  A    between atoms: C_22  and  C_23
REMARK   16  A    between atoms: C_22  and  C_24
REMARK   17  A    between atoms: C_26  and  O_27
REMARK                            x       y       z     vdW  Elec       q    Type
REMARK                         _______ _______ _______ _____ _____    ______ ____
ROOT
ATOM      1  C   UNL     1       7.237   8.296  17.671  0.00  0.00    +0.000 C 
ENDROOT
BRANCH   1   2
ATOM      2  C   UNL     1       7.254   6.948  17.020  0.00  0.00    +0.000 C 
ATOM      3  C   UNL     1       7.190   5.766  17.666  0.00  0.00    +0.000 C 
ATOM      4  C   UNL     1       7.008   5.637  19.158  0.00  0.00    +0.000 C 
BRANCH   3   5
ATOM      5  C   UNL     1       7.289   4.472  16.877  0.00  0.00    +0.000 C 
BRANCH   5   6
ATOM      6  C   UNL     1       6.025   4.177  16.061  0.00  0.00    +0.000 C 
BRANCH   6   7
ATOM      7  C   UNL     1       4.801   4.843  16.604  0.00  0.00    +0.000 C 
ATOM      8  C   UNL     1       3.836   4.217  17.312  0.00  0.00    +0.000 C 
ATOM      9  C   UNL     1       3.906   2.749  17.657  0.00  0.00    +0.000 C 
BRANCH   8  10
ATOM     10  C   UNL     1       2.589   4.920  17.832  0.00  0.00    +0.000 C 
BRANCH  10  11
ATOM     11  C   UNL     1       2.876   6.161  18.685  0.00  0.00    +0.000 C 
BRANCH  11  12
ATOM     12  C   UNL     1       2.644   7.485  18.027  0.00  0.00    +0.000 C 
ATOM     13  C   UNL     1       2.018   8.510  18.642  0.00  0.00    +0.000 C 
ATOM     14  C   UNL     1       1.487   8.450  20.050  0.00  0.00    +0.000 C 
ATOM     15  C   UNL     1       1.797   9.824  17.951  0.00  0.00    +0.000 C 
ENDBRANCH  11  12
ENDBRANCH  10  11
ENDBRANCH   8  10
ENDBRANCH   6   7
ENDBRANCH   5   6
ENDBRANCH   3   5
ENDBRANCH   1   2
BRANCH   1  16
ATOM     16  O   UNL     1       8.509   8.505  18.276  0.00  0.00    +0.000 OA
BRANCH  16  20
ATOM     17  C   UNL     1       9.303  12.540  19.052  0.00  0.00    +0.000 A 
ATOM     18  C   UNL     1       8.588  12.117  17.917  0.00  0.00    +0.000 A 
ATOM     19  C   UNL     1       8.318  10.763  17.695  0.00  0.00    +0.000 A 
ATOM     20  C   UNL     1       8.801   9.804  18.580  0.00  0.00    +0.000 A 
ATOM     21  C   UNL     1       9.507  10.206  19.714  0.00  0.00    +0.000 A 
ATOM     22  C   UNL     1       9.766  11.561  19.941  0.00  0.00    +0.000 A 
BRANCH  17  24
ATOM     23  C   UNL     1      10.538  14.738  18.407  0.00  0.00    +0.000 C 
ATOM     24  C   UNL     1       9.536  13.998  19.248  0.00  0.00    +0.000 C 
ATOM     25  O   UNL     1       8.957  14.556  20.185  0.00  0.00    +0.000 OA
ENDBRANCH  17  24
BRANCH  18  26
ATOM     26  O   UNL     1       8.120  12.980  16.960  0.00  0.00    +0.000 OA
ATOM     27  H   UNL     1       7.999  12.467  16.129  0.00  0.00    +0.000 HD
ENDBRANCH  18  26
BRANCH  22  28
ATOM     28  O   UNL     1      10.507  11.893  21.038  0.00  0.00    +0.000 OA
ATOM     29  H   UNL     1      10.967  11.106  21.382  0.00  0.00    +0.000 HD
ENDBRANCH  22  28
ENDBRANCH  16  20
ENDBRANCH   1  16
TORSDOF 12
ENDMDL
MODEL 7
REMARK VINA RESULT:      -6.9      3.624      7.912
REMARK  Name = 
REMARK  17 active torsions:
REMARK  status: ('A' for Active; 'I' for Inactive)
REMARK    1  A    between atoms: C_1  and  C_2
REMARK    2  A    between atoms: C_2  and  C_4
REMARK    3  A    between atoms: C_5  and  O_6
REMARK    4  A    between atoms: C_8  and  O_9
REMARK    5  A    between atoms: O_9  and  C_10
REMARK    6  A    between atoms: C_10  and  C_11
REMARK    7  A    between atoms: C_12  and  C_13
REMARK    8  A    between atoms: C_12  and  C_14
REMARK    9  A    between atoms: C_14  and  C_15
REMARK   10  A    between atoms: C_15  and  C_16
REMARK   11  A    between atoms: C_17  and  C_18
REMARK   12  A    between atoms: C_17  and  C_19
REMARK   13  A    between atoms: C_19  and  C_20
REMARK   14  A    between atoms: C_20  and  C_21
REMARK   15  A    between atoms: C_22  and  C_23
REMARK   16  A    between atoms: C_22  and  C_24
REMARK   17  A    between atoms: C_26  and  O_27
REMARK                            x       y       z     vdW  Elec       q    Type
REMARK                         _______ _______ _______ _____ _____    ______ ____
ROOT
ATOM      1  C   UNL     1       1.359   5.912  20.859  0.00  0.00    +0.000 C 
ENDROOT
BRANCH   1   2
ATOM      2  C   UNL     1       1.480   4.942  19.725  0.00  0.00    +0.000 C 
ATOM      3  C   UNL     1       1.547   3.600  19.846  0.00  0.00    +0.000 C 
ATOM      4  C   UNL     1       1.426   2.872  21.162  0.00  0.00    +0.000 C 
BRANCH   3   5
ATOM      5  C   UNL     1       1.740   2.743  18.608  0.00  0.00    +0.000 C 
BRANCH   5   6
ATOM      6  C   UNL     1       2.555   3.448  17.519  0.00  0.00    +0.000 C 
BRANCH   6   7
ATOM      7  C   UNL     1       4.029   3.417  17.768  0.00  0.00    +0.000 C 
ATOM      8  C   UNL     1       4.790   4.507  18.005  0.00  0.00    +0.000 C 
ATOM      9  C   UNL     1       4.215   5.902  18.066  0.00  0.00    +0.000 C 
BRANCH   8  10
ATOM     10  C   UNL     1       6.295   4.444  18.233  0.00  0.00    +0.000 C 
BRANCH  10  11
ATOM     11  C   UNL     1       7.131   4.981  17.065  0.00  0.00    +0.000 C 
BRANCH  11  12
ATOM     12  C   UNL     1       7.048   4.210  15.783  0.00  0.00    +0.000 C 
ATOM     13  C   UNL     1       6.250   4.576  14.759  0.00  0.00    +0.000 C 
ATOM     14  C   UNL     1       5.358   5.790  14.777  0.00  0.00    +0.000 C 
ATOM     15  C   UNL     1       6.187   3.779  13.489  0.00  0.00    +0.000 C 
ENDBRANCH  11  12
ENDBRANCH  10  11
ENDBRANCH   8  10
ENDBRANCH   6   7
ENDBRANCH   5   6
ENDBRANCH   3   5
ENDBRANCH   1   2
BRANCH   1  16
ATOM     16  O   UNL     1       2.165   7.045  20.553  0.00  0.00    +0.000 OA
BRANCH  16  20
ATOM     17  C   UNL     1       0.162  10.710  20.821  0.00  0.00    +0.000 A 
ATOM     18  C   UNL     1       0.440   9.918  21.950  0.00  0.00    +0.000 A 
ATOM     19  C   UNL     1       1.132   8.709  21.832  0.00  0.00    +0.000 A 
ATOM     20  C   UNL     1       1.513   8.245  20.577  0.00  0.00    +0.000 A 
ATOM     21  C   UNL     1       1.250   9.020  19.447  0.00  0.00    +0.000 A 
ATOM     22  C   UNL     1       0.569  10.235  19.567  0.00  0.00    +0.000 A 
BRANCH  17  24
ATOM     23  C   UNL     1       0.194  13.306  21.006  0.00  0.00    +0.000 C 
ATOM     24  C   UNL     1      -0.554  12.002  21.012  0.00  0.00    +0.000 C 
ATOM     25  O   UNL     1      -1.760  11.962  21.275  0.00  0.00    +0.000 OA
ENDBRANCH  17  24
BRANCH  18  26
ATOM     26  O   UNL     1       0.057  10.262  23.220  0.00  0.00    +0.000 OA
ATOM     27  H   UNL     1       0.191  11.232  23.320  0.00  0.00    +0.000 HD
ENDBRANCH  18  26
BRANCH  22  28
ATOM     28  O   UNL     1       0.291  10.924  18.422  0.00  0.00    +0.000 OA
ATOM     29  H   UNL     1      -0.290  11.680  18.620  0.00  0.00    +0.000 HD
ENDBRANCH  22  28
ENDBRANCH  16  20
ENDBRANCH   1  16
TORSDOF 12
ENDMDL
MODEL 8
REMARK VINA RESULT:      -6.9      4.605      7.997
REMARK  Name = 
REMARK  17 active torsions:
REMARK  status: ('A' for Active; 'I' for Inactive)
REMARK    1  A    between atoms: C_1  and  C_2
REMARK    2  A    between atoms: C_2  and  C_4
REMARK    3  A    between atoms: C_5  and  O_6
REMARK    4  A    between atoms: C_8  and  O_9
REMARK    5  A    between atoms: O_9  and  C_10
REMARK    6  A    between atoms: C_10  and  C_11
REMARK    7  A    between atoms: C_12  and  C_13
REMARK    8  A    between atoms: C_12  and  C_14
REMARK    9  A    between atoms: C_14  and  C_15
REMARK   10  A    between atoms: C_15  and  C_16
REMARK   11  A    between atoms: C_17  and  C_18
REMARK   12  A    between atoms: C_17  and  C_19
REMARK   13  A    between atoms: C_19  and  C_20
REMARK   14  A    between atoms: C_20  and  C_21
REMARK   15  A    between atoms: C_22  and  C_23
REMARK   16  A    between atoms: C_22  and  C_24
REMARK   17  A    between atoms: C_26  and  O_27
REMARK                            x       y       z     vdW  Elec       q    Type
REMARK                         _______ _______ _______ _____ _____    ______ ____
ROOT
ATOM      1  C   UNL     1       7.685   8.861  17.790  0.00  0.00    +0.000 C 
ENDROOT
BRANCH   1   2
ATOM      2  C   UNL     1       7.478   7.501  17.199  0.00  0.00    +0.000 C 
ATOM      3  C   UNL     1       7.592   6.333  17.865  0.00  0.00    +0.000 C 
ATOM      4  C   UNL     1       7.873   6.237  19.344  0.00  0.00    +0.000 C 
BRANCH   3   5
ATOM      5  C   UNL     1       7.421   5.022  17.117  0.00  0.00    +0.000 C 
BRANCH   5   6
ATOM      6  C   UNL     1       6.157   4.994  16.250  0.00  0.00    +0.000 C 
BRANCH   6   7
ATOM      7  C   UNL     1       4.917   4.672  17.020  0.00  0.00    +0.000 C 
ATOM      8  C   UNL     1       3.986   5.576  17.391  0.00  0.00    +0.000 C 
ATOM      9  C   UNL     1       4.092   7.041  17.039  0.00  0.00    +0.000 C 
BRANCH   8  10
ATOM     10  C   UNL     1       2.743   5.218  18.195  0.00  0.00    +0.000 C 
BRANCH  10  11
ATOM     11  C   UNL     1       2.862   5.505  19.697  0.00  0.00    +0.000 C 
BRANCH  11  12
ATOM     12  C   UNL     1       2.003   4.673  20.599  0.00  0.00    +0.000 C 
ATOM     13  C   UNL     1       2.285   3.389  20.900  0.00  0.00    +0.000 C 
ATOM     14  C   UNL     1       3.485   2.644  20.375  0.00  0.00    +0.000 C 
ATOM     15  C   UNL     1       1.401   2.581  21.805  0.00  0.00    +0.000 C 
ENDBRANCH  11  12
ENDBRANCH  10  11
ENDBRANCH   8  10
ENDBRANCH   6   7
ENDBRANCH   5   6
ENDBRANCH   3   5
ENDBRANCH   1   2
BRANCH   1  16
ATOM     16  O   UNL     1       8.872   8.819  18.575  0.00  0.00    +0.000 OA
BRANCH  16  20
ATOM     17  C   UNL     1      10.291  12.585  19.722  0.00  0.00    +0.000 A 
ATOM     18  C   UNL     1      10.295  12.153  18.384  0.00  0.00    +0.000 A 
ATOM     19  C   UNL     1       9.793  10.898  18.027  0.00  0.00    +0.000 A 
ATOM     20  C   UNL     1       9.324  10.032  19.010  0.00  0.00    +0.000 A 
ATOM     21  C   UNL     1       9.307  10.446  20.342  0.00  0.00    +0.000 A 
ATOM     22  C   UNL     1       9.798  11.706  20.696  0.00  0.00    +0.000 A 
BRANCH  17  24
ATOM     23  C   UNL     1       9.905  15.013  20.577  0.00  0.00    +0.000 C 
ATOM     24  C   UNL     1      10.814  13.944  20.037  0.00  0.00    +0.000 C 
ATOM     25  O   UNL     1      11.988  14.194  19.747  0.00  0.00    +0.000 OA
ENDBRANCH  17  24
BRANCH  18  26
ATOM     26  O   UNL     1      10.787  12.911  17.352  0.00  0.00    +0.000 OA
ATOM     27  H   UNL     1      11.642  13.297  17.647  0.00  0.00    +0.000 HD
ENDBRANCH  18  26
BRANCH  22  28
ATOM     28  O   UNL     1       9.808  12.037  22.020  0.00  0.00    +0.000 OA
ATOM     29  H   UNL     1       9.519  12.959  22.137  0.00  0.00    +0.000 HD
ENDBRANCH  22  28
ENDBRANCH  16  20
ENDBRANCH   1  16
TORSDOF 12
ENDMDL
MODEL 9
REMARK VINA RESULT:      -6.8      1.193      1.715
REMARK  Name = 
REMARK  17 active torsions:
REMARK  status: ('A' for Active; 'I' for Inactive)
REMARK    1  A    between atoms: C_1  and  C_2
REMARK    2  A    between atoms: C_2  and  C_4
REMARK    3  A    between atoms: C_5  and  O_6
REMARK    4  A    between atoms: C_8  and  O_9
REMARK    5  A    between atoms: O_9  and  C_10
REMARK    6  A    between atoms: C_10  and  C_11
REMARK    7  A    between atoms: C_12  and  C_13
REMARK    8  A    between atoms: C_12  and  C_14
REMARK    9  A    between atoms: C_14  and  C_15
REMARK   10  A    between atoms: C_15  and  C_16
REMARK   11  A    between atoms: C_17  and  C_18
REMARK   12  A    between atoms: C_17  and  C_19
REMARK   13  A    between atoms: C_19  and  C_20
REMARK   14  A    between atoms: C_20  and  C_21
REMARK   15  A    between atoms: C_22  and  C_23
REMARK   16  A    between atoms: C_22  and  C_24
REMARK   17  A    between atoms: C_26  and  O_27
REMARK                            x       y       z     vdW  Elec       q    Type
REMARK                         _______ _______ _______ _____ _____    ______ ____
ROOT
ATOM      1  C   UNL     1       1.827   3.011  18.223  0.00  0.00    +0.000 C 
ENDROOT
BRANCH   1   2
ATOM      2  C   UNL     1       1.667   4.298  18.971  0.00  0.00    +0.000 C 
ATOM      3  C   UNL     1       1.551   4.415  20.310  0.00  0.00    +0.000 C 
ATOM      4  C   UNL     1       1.650   3.251  21.264  0.00  0.00    +0.000 C 
BRANCH   3   5
ATOM      5  C   UNL     1       1.323   5.784  20.928  0.00  0.00    +0.000 C 
BRANCH   5   6
ATOM      6  C   UNL     1       2.172   6.879  20.273  0.00  0.00    +0.000 C 
BRANCH   6   7
ATOM      7  C   UNL     1       1.385   8.092  19.892  0.00  0.00    +0.000 C 
ATOM      8  C   UNL     1       1.019   9.069  20.748  0.00  0.00    +0.000 C 
ATOM      9  C   UNL     1       1.396   9.051  22.211  0.00  0.00    +0.000 C 
BRANCH   8  10
ATOM     10  C   UNL     1       0.196  10.282  20.334  0.00  0.00    +0.000 C 
BRANCH  10  11
ATOM     11  C   UNL     1       0.432  10.736  18.888  0.00  0.00    +0.000 C 
BRANCH  11  12
ATOM     12  C   UNL     1       1.632  11.601  18.653  0.00  0.00    +0.000 C 
ATOM     13  C   UNL     1       1.552  12.938  18.496  0.00  0.00    +0.000 C 
ATOM     14  C   UNL     1       0.263  13.717  18.540  0.00  0.00    +0.000 C 
ATOM     15  C   UNL     1       2.775  13.775  18.258  0.00  0.00    +0.000 C 
ENDBRANCH  11  12
ENDBRANCH  10  11
ENDBRANCH   8  10
ENDBRANCH   6   7
ENDBRANCH   5   6
ENDBRANCH   3   5
ENDBRANCH   1   2
BRANCH   1  16
ATOM     16  O   UNL     1       3.152   2.539  18.445  0.00  0.00    +0.000 OA
BRANCH  16  20
ATOM     17  C   UNL     1       6.122   5.294  17.395  0.00  0.00    +0.000 A 
ATOM     18  C   UNL     1       5.213   4.771  16.457  0.00  0.00    +0.000 A 
ATOM     19  C   UNL     1       4.216   3.870  16.842  0.00  0.00    +0.000 A 
ATOM     20  C   UNL     1       4.143   3.436  18.162  0.00  0.00    +0.000 A 
ATOM     21  C   UNL     1       5.033   3.949  19.106  0.00  0.00    +0.000 A 
ATOM     22  C   UNL     1       6.021   4.860  18.723  0.00  0.00    +0.000 A 
BRANCH  17  24
ATOM     23  C   UNL     1       7.375   7.558  17.674  0.00  0.00    +0.000 C 
ATOM     24  C   UNL     1       7.146   6.272  16.930  0.00  0.00    +0.000 C 
ATOM     25  O   UNL     1       7.724   6.042  15.865  0.00  0.00    +0.000 OA
ENDBRANCH  17  24
BRANCH  18  26
ATOM     26  O   UNL     1       5.241   5.093  15.125  0.00  0.00    +0.000 OA
ATOM     27  H   UNL     1       4.537   4.572  14.677  0.00  0.00    +0.000 HD
ENDBRANCH  18  26
BRANCH  22  28
ATOM     28  O   UNL     1       6.898   5.286  19.678  0.00  0.00    +0.000 OA
ATOM     29  H   UNL     1       7.644   5.754  19.262  0.00  0.00    +0.000 HD
ENDBRANCH  22  28
ENDBRANCH  16  20
ENDBRANCH   1  16
TORSDOF 12
ENDMDL
