MODEL 1
REMARK VINA RESULT:      -8.4      0.000      0.000
REMARK  Name = 
REMARK  4 active torsions:
REMARK  status: ('A' for Active; 'I' for Inactive)
REMARK    1  A    between atoms: C_5  and  N_6
REMARK    2  A    between atoms: N_9  and  C_10
REMARK    3  A    between atoms: C_15  and  C_16
REMARK    4  A    between atoms: C_24  and  N_25
REMARK                            x       y       z     vdW  Elec       q    Type
REMARK                         _______ _______ _______ _____ _____    ______ ____
ROOT
ATOM      1  N   UNL     1       1.475   9.333  19.029  0.00  0.00    +0.000 N 
ATOM      2  C   UNL     1       1.447   8.796  17.656  0.00  0.00    +0.000 C 
ATOM      3  C   UNL     1       2.614   7.795  17.488  0.00  0.00    +0.000 C 
ATOM      4  N   UNL     1       2.478   6.713  18.488  0.00  0.00    +0.000 N 
ATOM      5  C   UNL     1       2.484   7.219  19.883  0.00  0.00    +0.000 C 
ATOM      6  C   UNL     1       1.351   8.272  20.063  0.00  0.00    +0.000 C 
ENDROOT
BRANCH   1  11
ATOM      7  N   UNL     1      -1.086  14.148  19.653  0.00  0.00    +0.000 N 
ATOM      8  C   UNL     1      -0.409  12.948  19.578  0.00  0.00    +0.000 A 
ATOM      9  N   UNL     1      -0.913  11.906  20.237  0.00  0.00    +0.000 NA
ATOM     10  C   UNL     1      -0.259  10.733  20.082  0.00  0.00    +0.000 A 
ATOM     11  C   UNL     1       0.875  10.555  19.312  0.00  0.00    +0.000 A 
ATOM     12  C   UNL     1       1.315  11.746  18.722  0.00  0.00    +0.000 A 
ATOM     13  N   UNL     1       0.708  12.932  18.853  0.00  0.00    +0.000 NA
ATOM     14  H   UNL     1      -1.630  14.182  20.500  0.00  0.00    +0.000 HD
ATOM     15  H   UNL     1      -0.447  14.909  19.472  0.00  0.00    +0.000 HD
BRANCH  12  16
ATOM     16  N   UNL     1       2.457  11.745  17.902  0.00  0.00    +0.000 N 
ATOM     17  H   UNL     1       2.223  11.302  17.019  0.00  0.00    +0.000 HD
ATOM     18  H   UNL     1       2.769  12.713  17.806  0.00  0.00    +0.000 HD
ENDBRANCH  12  16
ENDBRANCH   1  11
BRANCH   4  19
ATOM     19  C   UNL     1       2.762   5.390  18.152  0.00  0.00    +0.000 A 
ATOM     20  C   UNL     1       1.679   4.492  17.982  0.00  0.00    +0.000 A 
ATOM     21  C   UNL     1       1.850   3.125  17.757  0.00  0.00    +0.000 A 
ATOM     22  C   UNL     1       3.126   2.603  17.679  0.00  0.00    +0.000 A 
ATOM     23  C   UNL     1       4.221   3.454  17.809  0.00  0.00    +0.000 A 
ATOM     24  C   UNL     1       4.086   4.846  18.041  0.00  0.00    +0.000 A 
BRANCH  24  25
ATOM     25  C   UNL     1       5.350   5.624  18.195  0.00  0.00    +0.000 A 
ATOM     26  C   UNL     1       6.270   5.339  19.220  0.00  0.00    +0.000 A 
ATOM     27  C   UNL     1       7.518   5.972  19.283  0.00  0.00    +0.000 A 
ATOM     28  C   UNL     1       7.889   6.873  18.291  0.00  0.00    +0.000 A 
ATOM     29  C   UNL     1       6.972   7.222  17.309  0.00  0.00    +0.000 A 
ATOM     30  C   UNL     1       5.694   6.652  17.309  0.00  0.00    +0.000 A 
ENDBRANCH  24  25
ENDBRANCH   4  19
TORSDOF 4
ENDMDL
MODEL 2
REMARK VINA RESULT:      -8.2      2.035      3.664
REMARK  Name = 
REMARK  4 active torsions:
REMARK  status: ('A' for Active; 'I' for Inactive)
REMARK    1  A    between atoms: C_5  and  N_6
REMARK    2  A    between atoms: N_9  and  C_10
REMARK    3  A    between atoms: C_15  and  C_16
REMARK    4  A    between atoms: C_24  and  N_25
REMARK                            x       y       z     vdW  Elec       q    Type
REMARK                         _______ _______ _______ _____ _____    ______ ____
ROOT
ATOM      1  N   UNL     1       1.655   8.635  19.584  0.00  0.00    +0.000 N 
ATOM      2  C   UNL     1       1.804   8.722  18.120  0.00  0.00    +0.000 C 
ATOM      3  C   UNL     1       3.208   8.204  17.730  0.00  0.00    +0.000 C 
ATOM      4  N   UNL     1       3.364   6.810  18.202  0.00  0.00    +0.000 N 
ATOM      5  C   UNL     1       3.202   6.683  19.671  0.00  0.00    +0.000 C 
ATOM      6  C   UNL     1       1.815   7.249  20.097  0.00  0.00    +0.000 C 
ENDROOT
BRANCH   1  11
ATOM      7  N   UNL     1      -1.610  12.178  22.215  0.00  0.00    +0.000 N 
ATOM      8  C   UNL     1      -0.856  11.230  21.555  0.00  0.00    +0.000 A 
ATOM      9  N   UNL     1      -1.099  11.032  20.260  0.00  0.00    +0.000 NA
ATOM     10  C   UNL     1      -0.294  10.145  19.634  0.00  0.00    +0.000 A 
ATOM     11  C   UNL     1       0.730   9.440  20.240  0.00  0.00    +0.000 A 
ATOM     12  C   UNL     1       0.832   9.715  21.609  0.00  0.00    +0.000 A 
ATOM     13  N   UNL     1       0.054  10.576  22.275  0.00  0.00    +0.000 NA
ATOM     14  H   UNL     1      -2.493  12.302  21.746  0.00  0.00    +0.000 HD
ATOM     15  H   UNL     1      -1.626  11.970  23.203  0.00  0.00    +0.000 HD
BRANCH  12  16
ATOM     16  N   UNL     1       1.825   9.084  22.380  0.00  0.00    +0.000 N 
ATOM     17  H   UNL     1       2.395   8.510  21.768  0.00  0.00    +0.000 HD
ATOM     18  H   UNL     1       2.349   9.816  22.865  0.00  0.00    +0.000 HD
ENDBRANCH  12  16
ENDBRANCH   1  11
BRANCH   4  19
ATOM     19  C   UNL     1       4.015   5.860  17.417  0.00  0.00    +0.000 A 
ATOM     20  C   UNL     1       4.870   6.314  16.381  0.00  0.00    +0.000 A 
ATOM     21  C   UNL     1       5.481   5.455  15.466  0.00  0.00    +0.000 A 
ATOM     22  C   UNL     1       5.268   4.094  15.564  0.00  0.00    +0.000 A 
ATOM     23  C   UNL     1       4.461   3.600  16.585  0.00  0.00    +0.000 A 
ATOM     24  C   UNL     1       3.822   4.442  17.531  0.00  0.00    +0.000 A 
BRANCH  24  25
ATOM     25  C   UNL     1       2.959   3.772  18.547  0.00  0.00    +0.000 A 
ATOM     26  C   UNL     1       3.494   3.249  19.739  0.00  0.00    +0.000 A 
ATOM     27  C   UNL     1       2.670   2.745  20.753  0.00  0.00    +0.000 A 
ATOM     28  C   UNL     1       1.288   2.797  20.614  0.00  0.00    +0.000 A 
ATOM     29  C   UNL     1       0.739   3.243  19.420  0.00  0.00    +0.000 A 
ATOM     30  C   UNL     1       1.574   3.658  18.376  0.00  0.00    +0.000 A 
ENDBRANCH  24  25
ENDBRANCH   4  19
TORSDOF 4
ENDMDL
MODEL 3
REMARK VINA RESULT:      -7.9      0.349      1.001
REMARK  Name = 
REMARK  4 active torsions:
REMARK  status: ('A' for Active; 'I' for Inactive)
REMARK    1  A    between atoms: C_5  and  N_6
REMARK    2  A    between atoms: N_9  and  C_10
REMARK    3  A    between atoms: C_15  and  C_16
REMARK    4  A    between atoms: C_24  and  N_25
REMARK                            x       y       z     vdW  Elec       q    Type
REMARK                         _______ _______ _______ _____ _____    ______ ____
ROOT
ATOM      1  N   UNL     1       1.619   9.148  19.168  0.00  0.00    +0.000 N 
ATOM      2  C   UNL     1       1.460   8.610  17.805  0.00  0.00    +0.000 C 
ATOM      3  C   UNL     1       2.574   7.569  17.545  0.00  0.00    +0.000 C 
ATOM      4  N   UNL     1       2.485   6.494  18.558  0.00  0.00    +0.000 N 
ATOM      5  C   UNL     1       2.624   7.002  19.944  0.00  0.00    +0.000 C 
ATOM      6  C   UNL     1       1.545   8.093  20.213  0.00  0.00    +0.000 C 
ENDROOT
BRANCH   1  11
ATOM      7  N   UNL     1      -0.753  14.027  20.002  0.00  0.00    +0.000 N 
ATOM      8  C   UNL     1      -0.111  12.813  19.867  0.00  0.00    +0.000 A 
ATOM      9  N   UNL     1      -0.518  11.804  20.636  0.00  0.00    +0.000 NA
ATOM     10  C   UNL     1       0.089  10.616  20.426  0.00  0.00    +0.000 A 
ATOM     11  C   UNL     1       1.086  10.389  19.495  0.00  0.00    +0.000 A 
ATOM     12  C   UNL     1       1.442  11.551  18.798  0.00  0.00    +0.000 A 
ATOM     13  N   UNL     1       0.878  12.751  18.978  0.00  0.00    +0.000 NA
ATOM     14  H   UNL     1      -1.156  14.101  20.922  0.00  0.00    +0.000 HD
ATOM     15  H   UNL     1      -0.142  14.770  19.694  0.00  0.00    +0.000 HD
BRANCH  12  16
ATOM     16  N   UNL     1       2.442  11.499  17.810  0.00  0.00    +0.000 N 
ATOM     17  H   UNL     1       3.157  10.842  18.106  0.00  0.00    +0.000 HD
ATOM     18  H   UNL     1       1.990  11.246  16.929  0.00  0.00    +0.000 HD
ENDBRANCH  12  16
ENDBRANCH   1  11
BRANCH   4  19
ATOM     19  C   UNL     1       2.696   5.162  18.204  0.00  0.00    +0.000 A 
ATOM     20  C   UNL     1       1.578   4.291  18.168  0.00  0.00    +0.000 A 
ATOM     21  C   UNL     1       1.688   2.919  17.939  0.00  0.00    +0.000 A 
ATOM     22  C   UNL     1       2.933   2.363  17.721  0.00  0.00    +0.000 A 
ATOM     23  C   UNL     1       4.057   3.186  17.717  0.00  0.00    +0.000 A 
ATOM     24  C   UNL     1       3.984   4.583  17.949  0.00  0.00    +0.000 A 
BRANCH  24  25
ATOM     25  C   UNL     1       5.276   5.329  17.949  0.00  0.00    +0.000 A 
ATOM     26  C   UNL     1       5.572   6.292  16.967  0.00  0.00    +0.000 A 
ATOM     27  C   UNL     1       6.720   7.091  17.045  0.00  0.00    +0.000 A 
ATOM     28  C   UNL     1       7.575   6.971  18.134  0.00  0.00    +0.000 A 
ATOM     29  C   UNL     1       7.342   5.981  19.079  0.00  0.00    +0.000 A 
ATOM     30  C   UNL     1       6.242   5.127  18.942  0.00  0.00    +0.000 A 
ENDBRANCH  24  25
ENDBRANCH   4  19
TORSDOF 4
ENDMDL
MODEL 4
REMARK VINA RESULT:      -7.8      0.825      1.014
REMARK  Name = 
REMARK  4 active torsions:
REMARK  status: ('A' for Active; 'I' for Inactive)
REMARK    1  A    between atoms: C_5  and  N_6
REMARK    2  A    between atoms: N_9  and  C_10
REMARK    3  A    between atoms: C_15  and  C_16
REMARK    4  A    between atoms: C_24  and  N_25
REMARK                            x       y       z     vdW  Elec       q    Type
REMARK                         _______ _______ _______ _____ _____    ______ ____
ROOT
ATOM      1  N   UNL     1       1.532   9.376  19.137  0.00  0.00    +0.000 N 
ATOM      2  C   UNL     1       1.648   8.925  17.739  0.00  0.00    +0.000 C 
ATOM      3  C   UNL     1       2.784   7.881  17.643  0.00  0.00    +0.000 C 
ATOM      4  N   UNL     1       2.485   6.748  18.547  0.00  0.00    +0.000 N 
ATOM      5  C   UNL     1       2.345   7.169  19.963  0.00  0.00    +0.000 C 
ATOM      6  C   UNL     1       1.241   8.262  20.078  0.00  0.00    +0.000 C 
ENDROOT
BRANCH   1  11
ATOM      7  N   UNL     1      -1.149  13.963  20.517  0.00  0.00    +0.000 N 
ATOM      8  C   UNL     1      -0.416  12.861  20.129  0.00  0.00    +0.000 A 
ATOM      9  N   UNL     1       0.709  12.596  20.793  0.00  0.00    +0.000 NA
ATOM     10  C   UNL     1       1.361  11.470  20.428  0.00  0.00    +0.000 A 
ATOM     11  C   UNL     1       0.953  10.606  19.428  0.00  0.00    +0.000 A 
ATOM     12  C   UNL     1      -0.214  11.041  18.789  0.00  0.00    +0.000 A 
ATOM     13  N   UNL     1      -0.890  12.151  19.107  0.00  0.00    +0.000 NA
ATOM     14  H   UNL     1      -0.547  14.634  20.967  0.00  0.00    +0.000 HD
ATOM     15  H   UNL     1      -1.716  14.282  19.744  0.00  0.00    +0.000 HD
BRANCH  12  16
ATOM     16  N   UNL     1      -0.771  10.278  17.747  0.00  0.00    +0.000 N 
ATOM     17  H   UNL     1      -0.570   9.298  17.919  0.00  0.00    +0.000 HD
ATOM     18  H   UNL     1      -1.769  10.492  17.708  0.00  0.00    +0.000 HD
ENDBRANCH  12  16
ENDBRANCH   1  11
BRANCH   4  19
ATOM     19  C   UNL     1       2.754   5.436  18.161  0.00  0.00    +0.000 A 
ATOM     20  C   UNL     1       1.660   4.555  17.966  0.00  0.00    +0.000 A 
ATOM     21  C   UNL     1       1.815   3.196  17.690  0.00  0.00    +0.000 A 
ATOM     22  C   UNL     1       3.085   2.665  17.583  0.00  0.00    +0.000 A 
ATOM     23  C   UNL     1       4.190   3.499  17.735  0.00  0.00    +0.000 A 
ATOM     24  C   UNL     1       4.071   4.884  18.019  0.00  0.00    +0.000 A 
BRANCH  24  25
ATOM     25  C   UNL     1       5.344   5.643  18.191  0.00  0.00    +0.000 A 
ATOM     26  C   UNL     1       6.238   5.353  19.239  0.00  0.00    +0.000 A 
ATOM     27  C   UNL     1       7.494   5.967  19.321  0.00  0.00    +0.000 A 
ATOM     28  C   UNL     1       7.900   6.852  18.328  0.00  0.00    +0.000 A 
ATOM     29  C   UNL     1       7.009   7.206  17.324  0.00  0.00    +0.000 A 
ATOM     30  C   UNL     1       5.722   6.657  17.304  0.00  0.00    +0.000 A 
ENDBRANCH  24  25
ENDBRANCH   4  19
TORSDOF 4
ENDMDL
MODEL 5
REMARK VINA RESULT:      -7.7      2.050      3.825
REMARK  Name = 
REMARK  4 active torsions:
REMARK  status: ('A' for Active; 'I' for Inactive)
REMARK    1  A    between atoms: C_5  and  N_6
REMARK    2  A    between atoms: N_9  and  C_10
REMARK    3  A    between atoms: C_15  and  C_16
REMARK    4  A    between atoms: C_24  and  N_25
REMARK                            x       y       z     vdW  Elec       q    Type
REMARK                         _______ _______ _______ _____ _____    ______ ____
ROOT
ATOM      1  N   UNL     1       1.236   8.671  19.971  0.00  0.00    +0.000 N 
ATOM      2  C   UNL     1       1.979   7.548  20.571  0.00  0.00    +0.000 C 
ATOM      3  C   UNL     1       2.098   6.413  19.527  0.00  0.00    +0.000 C 
ATOM      4  N   UNL     1       2.786   6.927  18.321  0.00  0.00    +0.000 N 
ATOM      5  C   UNL     1       2.074   8.071  17.701  0.00  0.00    +0.000 C 
ATOM      6  C   UNL     1       1.893   9.207  18.750  0.00  0.00    +0.000 C 
ENDROOT
BRANCH   1  11
ATOM      7  N   UNL     1      -1.763  11.983  23.159  0.00  0.00    +0.000 N 
ATOM      8  C   UNL     1      -0.944  11.211  22.362  0.00  0.00    +0.000 A 
ATOM      9  N   UNL     1       0.040  10.533  22.952  0.00  0.00    +0.000 NA
ATOM     10  C   UNL     1       0.776   9.735  22.146  0.00  0.00    +0.000 A 
ATOM     11  C   UNL     1       0.584   9.590  20.785  0.00  0.00    +0.000 A 
ATOM     12  C   UNL     1      -0.451  10.400  20.301  0.00  0.00    +0.000 A 
ATOM     13  N   UNL     1      -1.200  11.212  21.055  0.00  0.00    +0.000 NA
ATOM     14  H   UNL     1      -1.273  12.249  23.998  0.00  0.00    +0.000 HD
ATOM     15  H   UNL     1      -2.180  12.718  22.605  0.00  0.00    +0.000 HD
BRANCH  12  16
ATOM     16  N   UNL     1      -0.783  10.374  18.934  0.00  0.00    +0.000 N 
ATOM     17  H   UNL     1      -1.253   9.498  18.731  0.00  0.00    +0.000 HD
ATOM     18  H   UNL     1      -1.351  11.201  18.740  0.00  0.00    +0.000 HD
ENDBRANCH  12  16
ENDBRANCH   1  11
BRANCH   4  19
ATOM     19  C   UNL     1       3.715   6.142  17.640  0.00  0.00    +0.000 A 
ATOM     20  C   UNL     1       4.606   6.781  16.742  0.00  0.00    +0.000 A 
ATOM     21  C   UNL     1       5.497   6.083  15.926  0.00  0.00    +0.000 A 
ATOM     22  C   UNL     1       5.540   4.704  15.991  0.00  0.00    +0.000 A 
ATOM     23  C   UNL     1       4.705   4.035  16.882  0.00  0.00    +0.000 A 
ATOM     24  C   UNL     1       3.785   4.711  17.724  0.00  0.00    +0.000 A 
BRANCH  24  25
ATOM     25  C   UNL     1       2.931   3.858  18.600  0.00  0.00    +0.000 A 
ATOM     26  C   UNL     1       3.340   3.490  19.895  0.00  0.00    +0.000 A 
ATOM     27  C   UNL     1       2.484   2.808  20.769  0.00  0.00    +0.000 A 
ATOM     28  C   UNL     1       1.181   2.521  20.380  0.00  0.00    +0.000 A 
ATOM     29  C   UNL     1       0.776   2.812  19.084  0.00  0.00    +0.000 A 
ATOM     30  C   UNL     1       1.670   3.409  18.188  0.00  0.00    +0.000 A 
ENDBRANCH  24  25
ENDBRANCH   4  19
TORSDOF 4
ENDMDL
MODEL 6
REMARK VINA RESULT:      -7.6      1.933      3.920
REMARK  Name = 
REMARK  4 active torsions:
REMARK  status: ('A' for Active; 'I' for Inactive)
REMARK    1  A    between atoms: C_5  and  N_6
REMARK    2  A    between atoms: N_9  and  C_10
REMARK    3  A    between atoms: C_15  and  C_16
REMARK    4  A    between atoms: C_24  and  N_25
REMARK                            x       y       z     vdW  Elec       q    Type
REMARK                         _______ _______ _______ _____ _____    ______ ____
ROOT
ATOM      1  N   UNL     1       1.112   9.130  19.940  0.00  0.00    +0.000 N 
ATOM      2  C   UNL     1       2.047   8.224  20.631  0.00  0.00    +0.000 C 
ATOM      3  C   UNL     1       2.166   6.914  19.818  0.00  0.00    +0.000 C 
ATOM      4  N   UNL     1       2.637   7.227  18.451  0.00  0.00    +0.000 N 
ATOM      5  C   UNL     1       1.728   8.152  17.731  0.00  0.00    +0.000 C 
ATOM      6  C   UNL     1       1.549   9.460  18.557  0.00  0.00    +0.000 C 
ENDROOT
BRANCH   1  11
ATOM      7  N   UNL     1      -1.114  12.999  23.134  0.00  0.00    +0.000 N 
ATOM      8  C   UNL     1      -0.616  12.046  22.271  0.00  0.00    +0.000 A 
ATOM      9  N   UNL     1       0.114  12.462  21.236  0.00  0.00    +0.000 NA
ATOM     10  C   UNL     1       0.640  11.494  20.454  0.00  0.00    +0.000 A 
ATOM     11  C   UNL     1       0.465  10.136  20.647  0.00  0.00    +0.000 A 
ATOM     12  C   UNL     1      -0.363   9.854  21.740  0.00  0.00    +0.000 A 
ATOM     13  N   UNL     1      -0.915  10.776  22.537  0.00  0.00    +0.000 NA
ATOM     14  H   UNL     1      -1.202  13.881  22.657  0.00  0.00    +0.000 HD
ATOM     15  H   UNL     1      -1.929  12.635  23.606  0.00  0.00    +0.000 HD
BRANCH  12  16
ATOM     16  N   UNL     1      -0.646   8.519  22.081  0.00  0.00    +0.000 N 
ATOM     17  H   UNL     1      -1.649   8.420  22.201  0.00  0.00    +0.000 HD
ATOM     18  H   UNL     1      -0.260   7.925  21.344  0.00  0.00    +0.000 HD
ENDBRANCH  12  16
ENDBRANCH   1  11
BRANCH   4  19
ATOM     19  C   UNL     1       3.559   6.402  17.807  0.00  0.00    +0.000 A 
ATOM     20  C   UNL     1       4.440   6.987  16.863  0.00  0.00    +0.000 A 
ATOM     21  C   UNL     1       5.322   6.242  16.079  0.00  0.00    +0.000 A 
ATOM     22  C   UNL     1       5.367   4.870  16.225  0.00  0.00    +0.000 A 
ATOM     23  C   UNL     1       4.543   4.255  17.164  0.00  0.00    +0.000 A 
ATOM     24  C   UNL     1       3.632   4.979  17.975  0.00  0.00    +0.000 A 
BRANCH  24  25
ATOM     25  C   UNL     1       2.788   4.180  18.910  0.00  0.00    +0.000 A 
ATOM     26  C   UNL     1       3.224   3.866  20.211  0.00  0.00    +0.000 A 
ATOM     27  C   UNL     1       2.380   3.237  21.135  0.00  0.00    +0.000 A 
ATOM     28  C   UNL     1       1.064   2.951  20.791  0.00  0.00    +0.000 A 
ATOM     29  C   UNL     1       0.632   3.188  19.493  0.00  0.00    +0.000 A 
ATOM     30  C   UNL     1       1.512   3.731  18.549  0.00  0.00    +0.000 A 
ENDBRANCH  24  25
ENDBRANCH   4  19
TORSDOF 4
ENDMDL
MODEL 7
REMARK VINA RESULT:      -7.6      2.090      4.130
REMARK  Name = 
REMARK  4 active torsions:
REMARK  status: ('A' for Active; 'I' for Inactive)
REMARK    1  A    between atoms: C_5  and  N_6
REMARK    2  A    between atoms: N_9  and  C_10
REMARK    3  A    between atoms: C_15  and  C_16
REMARK    4  A    between atoms: C_24  and  N_25
REMARK                            x       y       z     vdW  Elec       q    Type
REMARK                         _______ _______ _______ _____ _____    ______ ____
ROOT
ATOM      1  N   UNL     1       0.829   9.544  20.336  0.00  0.00    +0.000 N 
ATOM      2  C   UNL     1       1.778   8.644  21.015  0.00  0.00    +0.000 C 
ATOM      3  C   UNL     1       1.886   7.330  20.207  0.00  0.00    +0.000 C 
ATOM      4  N   UNL     1       2.332   7.638  18.830  0.00  0.00    +0.000 N 
ATOM      5  C   UNL     1       1.408   8.556  18.121  0.00  0.00    +0.000 C 
ATOM      6  C   UNL     1       1.240   9.868  18.944  0.00  0.00    +0.000 C 
ENDROOT
BRANCH   1  11
ATOM      7  N   UNL     1      -1.306  13.474  23.518  0.00  0.00    +0.000 N 
ATOM      8  C   UNL     1      -0.839  12.496  22.665  0.00  0.00    +0.000 A 
ATOM      9  N   UNL     1      -0.269  12.886  21.525  0.00  0.00    +0.000 NA
ATOM     10  C   UNL     1       0.237  11.902  20.749  0.00  0.00    +0.000 A 
ATOM     11  C   UNL     1       0.192  10.553  21.049  0.00  0.00    +0.000 A 
ATOM     12  C   UNL     1      -0.480  10.295  22.251  0.00  0.00    +0.000 A 
ATOM     13  N   UNL     1      -1.005  11.232  23.048  0.00  0.00    +0.000 NA
ATOM     14  H   UNL     1      -1.518  14.310  22.999  0.00  0.00    +0.000 HD
ATOM     15  H   UNL     1      -2.030  13.090  24.109  0.00  0.00    +0.000 HD
BRANCH  12  16
ATOM     16  N   UNL     1      -0.616   8.972  22.710  0.00  0.00    +0.000 N 
ATOM     17  H   UNL     1      -0.590   8.347  21.911  0.00  0.00    +0.000 HD
ATOM     18  H   UNL     1       0.130   8.803  23.388  0.00  0.00    +0.000 HD
ENDBRANCH  12  16
ENDBRANCH   1  11
BRANCH   4  19
ATOM     19  C   UNL     1       3.245   6.812  18.174  0.00  0.00    +0.000 A 
ATOM     20  C   UNL     1       4.104   7.394  17.209  0.00  0.00    +0.000 A 
ATOM     21  C   UNL     1       4.975   6.647  16.414  0.00  0.00    +0.000 A 
ATOM     22  C   UNL     1       5.028   5.276  16.568  0.00  0.00    +0.000 A 
ATOM     23  C   UNL     1       4.225   4.664  17.527  0.00  0.00    +0.000 A 
ATOM     24  C   UNL     1       3.327   5.391  18.350  0.00  0.00    +0.000 A 
BRANCH  24  25
ATOM     25  C   UNL     1       2.505   4.594  19.308  0.00  0.00    +0.000 A 
ATOM     26  C   UNL     1       1.340   3.920  18.895  0.00  0.00    +0.000 A 
ATOM     27  C   UNL     1       0.646   3.062  19.757  0.00  0.00    +0.000 A 
ATOM     28  C   UNL     1       1.130   2.824  21.038  0.00  0.00    +0.000 A 
ATOM     29  C   UNL     1       2.236   3.531  21.491  0.00  0.00    +0.000 A 
ATOM     30  C   UNL     1       2.868   4.456  20.653  0.00  0.00    +0.000 A 
ENDBRANCH  24  25
ENDBRANCH   4  19
TORSDOF 4
ENDMDL
MODEL 8
REMARK VINA RESULT:      -7.6      1.826      3.781
REMARK  Name = 
REMARK  4 active torsions:
REMARK  status: ('A' for Active; 'I' for Inactive)
REMARK    1  A    between atoms: C_5  and  N_6
REMARK    2  A    between atoms: N_9  and  C_10
REMARK    3  A    between atoms: C_15  and  C_16
REMARK    4  A    between atoms: C_24  and  N_25
REMARK                            x       y       z     vdW  Elec       q    Type
REMARK                         _______ _______ _______ _____ _____    ______ ____
ROOT
ATOM      1  N   UNL     1       1.073   9.354  19.592  0.00  0.00    +0.000 N 
ATOM      2  C   UNL     1       1.836   8.417  20.437  0.00  0.00    +0.000 C 
ATOM      3  C   UNL     1       1.994   7.078  19.681  0.00  0.00    +0.000 C 
ATOM      4  N   UNL     1       2.684   7.321  18.394  0.00  0.00    +0.000 N 
ATOM      5  C   UNL     1       1.953   8.274  17.524  0.00  0.00    +0.000 C 
ATOM      6  C   UNL     1       1.732   9.615  18.285  0.00  0.00    +0.000 C 
ENDROOT
BRANCH   1  11
ATOM      7  N   UNL     1      -1.953  13.195  22.086  0.00  0.00    +0.000 N 
ATOM      8  C   UNL     1      -1.145  12.295  21.423  0.00  0.00    +0.000 A 
ATOM      9  N   UNL     1       0.075  12.074  21.913  0.00  0.00    +0.000 NA
ATOM     10  C   UNL     1       0.809  11.136  21.275  0.00  0.00    +0.000 A 
ATOM     11  C   UNL     1       0.390  10.418  20.170  0.00  0.00    +0.000 A 
ATOM     12  C   UNL     1      -0.889  10.793  19.742  0.00  0.00    +0.000 A 
ATOM     13  N   UNL     1      -1.650  11.721  20.332  0.00  0.00    +0.000 NA
ATOM     14  H   UNL     1      -1.387  13.850  22.599  0.00  0.00    +0.000 HD
ATOM     15  H   UNL     1      -2.642  13.565  21.448  0.00  0.00    +0.000 HD
BRANCH  12  16
ATOM     16  N   UNL     1      -1.471  10.160  18.629  0.00  0.00    +0.000 N 
ATOM     17  H   UNL     1      -0.771  10.079  17.898  0.00  0.00    +0.000 HD
ATOM     18  H   UNL     1      -1.841   9.261  18.944  0.00  0.00    +0.000 HD
ENDBRANCH  12  16
ENDBRANCH   1  11
BRANCH   4  19
ATOM     19  C   UNL     1       3.640   6.425  17.917  0.00  0.00    +0.000 A 
ATOM     20  C   UNL     1       4.615   6.904  17.007  0.00  0.00    +0.000 A 
ATOM     21  C   UNL     1       5.546   6.074  16.380  0.00  0.00    +0.000 A 
ATOM     22  C   UNL     1       5.544   4.721  16.655  0.00  0.00    +0.000 A 
ATOM     23  C   UNL     1       4.624   4.210  17.567  0.00  0.00    +0.000 A 
ATOM     24  C   UNL     1       3.662   5.022  18.220  0.00  0.00    +0.000 A 
BRANCH  24  25
ATOM     25  C   UNL     1       2.718   4.328  19.144  0.00  0.00    +0.000 A 
ATOM     26  C   UNL     1       1.532   3.734  18.675  0.00  0.00    +0.000 A 
ATOM     27  C   UNL     1       0.716   2.963  19.513  0.00  0.00    +0.000 A 
ATOM     28  C   UNL     1       1.096   2.734  20.831  0.00  0.00    +0.000 A 
ATOM     29  C   UNL     1       2.224   3.367  21.335  0.00  0.00    +0.000 A 
ATOM     30  C   UNL     1       2.981   4.209  20.514  0.00  0.00    +0.000 A 
ENDBRANCH  24  25
ENDBRANCH   4  19
TORSDOF 4
ENDMDL
MODEL 9
REMARK VINA RESULT:      -7.5      1.010      1.441
REMARK  Name = 
REMARK  4 active torsions:
REMARK  status: ('A' for Active; 'I' for Inactive)
REMARK    1  A    between atoms: C_5  and  N_6
REMARK    2  A    between atoms: N_9  and  C_10
REMARK    3  A    between atoms: C_15  and  C_16
REMARK    4  A    between atoms: C_24  and  N_25
REMARK                            x       y       z     vdW  Elec       q    Type
REMARK                         _______ _______ _______ _____ _____    ______ ____
ROOT
ATOM      1  N   UNL     1       1.523   9.093  19.505  0.00  0.00    +0.000 N 
ATOM      2  C   UNL     1       1.602   8.781  18.067  0.00  0.00    +0.000 C 
ATOM      3  C   UNL     1       2.764   7.786  17.835  0.00  0.00    +0.000 C 
ATOM      4  N   UNL     1       2.529   6.564  18.636  0.00  0.00    +0.000 N 
ATOM      5  C   UNL     1       2.426   6.844  20.089  0.00  0.00    +0.000 C 
ATOM      6  C   UNL     1       1.297   7.886  20.343  0.00  0.00    +0.000 C 
ENDROOT
BRANCH   1  11
ATOM      7  N   UNL     1      -0.374  13.910  21.331  0.00  0.00    +0.000 N 
ATOM      8  C   UNL     1       0.019  12.676  20.855  0.00  0.00    +0.000 A 
ATOM      9  N   UNL     1       0.025  12.490  19.536  0.00  0.00    +0.000 NA
ATOM     10  C   UNL     1       0.481  11.292  19.108  0.00  0.00    +0.000 A 
ATOM     11  C   UNL     1       0.920  10.271  19.931  0.00  0.00    +0.000 A 
ATOM     12  C   UNL     1       0.808  10.593  21.289  0.00  0.00    +0.000 A 
ATOM     13  N   UNL     1       0.354  11.760  21.762  0.00  0.00    +0.000 NA
ATOM     14  H   UNL     1      -0.976  14.359  20.661  0.00  0.00    +0.000 HD
ATOM     15  H   UNL     1      -0.711  13.816  22.279  0.00  0.00    +0.000 HD
BRANCH  12  16
ATOM     16  N   UNL     1       1.213   9.666  22.266  0.00  0.00    +0.000 N 
ATOM     17  H   UNL     1       0.602   8.858  22.220  0.00  0.00    +0.000 HD
ATOM     18  H   UNL     1       2.197   9.448  22.095  0.00  0.00    +0.000 HD
ENDBRANCH  12  16
ENDBRANCH   1  11
BRANCH   4  19
ATOM     19  C   UNL     1       2.820   5.303  18.116  0.00  0.00    +0.000 A 
ATOM     20  C   UNL     1       1.743   4.424  17.841  0.00  0.00    +0.000 A 
ATOM     21  C   UNL     1       1.924   3.103  17.428  0.00  0.00    +0.000 A 
ATOM     22  C   UNL     1       3.204   2.613  17.260  0.00  0.00    +0.000 A 
ATOM     23  C   UNL     1       4.292   3.451  17.488  0.00  0.00    +0.000 A 
ATOM     24  C   UNL     1       4.147   4.797  17.911  0.00  0.00    +0.000 A 
BRANCH  24  25
ATOM     25  C   UNL     1       5.406   5.561  18.150  0.00  0.00    +0.000 A 
ATOM     26  C   UNL     1       6.240   5.282  19.248  0.00  0.00    +0.000 A 
ATOM     27  C   UNL     1       7.488   5.901  19.397  0.00  0.00    +0.000 A 
ATOM     28  C   UNL     1       7.946   6.781  18.424  0.00  0.00    +0.000 A 
ATOM     29  C   UNL     1       7.113   7.125  17.369  0.00  0.00    +0.000 A 
ATOM     30  C   UNL     1       5.831   6.571  17.279  0.00  0.00    +0.000 A 
ENDBRANCH  24  25
ENDBRANCH   4  19
TORSDOF 4
ENDMDL
