MODEL 1
REMARK VINA RESULT:      -6.8      0.000      0.000
REMARK  Name = 
REMARK  9 active torsions:
REMARK  status: ('A' for Active; 'I' for Inactive)
REMARK    1  A    between atoms: N_1  and  C_2
REMARK    2  A    between atoms: C_2  and  C_3
REMARK    3  A    between atoms: C_2  and  C_15
REMARK    4  A    between atoms: C_3  and  C_4
REMARK    5  A    between atoms: C_4  and  N_5
REMARK    6  A    between atoms: N_5  and  C_6
REMARK    7  A    between atoms: C_6  and  C_7
REMARK    8  A    between atoms: C_7  and  C_8
REMARK    9  A    between atoms: C_8  and  C_9
REMARK                            x       y       z     vdW  Elec       q    Type
REMARK                         _______ _______ _______ _____ _____    ______ ____
ROOT
ATOM      1  C   UNL     1       2.194   2.772  18.142  0.00  0.00    +0.000 C 
ENDROOT
BRANCH   1   2
ATOM      2  C   UNL     1       3.646   2.336  17.870  0.00  0.00    +0.000 C 
BRANCH   2   3
ATOM      3  C   UNL     1       4.704   3.252  18.548  0.00  0.00    +0.000 C 
ATOM      4  O   UNL     1       4.899   3.205  19.765  0.00  0.00    +0.000 OA
ATOM      5  N   UNL     1       5.449   4.101  17.736  0.00  0.00    +0.000 N 
ATOM      6  C   UNL     1       6.610   4.787  18.295  0.00  0.00    +0.000 C 
ATOM      7  C   UNL     1       6.420   6.298  18.255  0.00  0.00    +0.000 C 
ATOM      8  C   UNL     1       6.082   6.764  16.840  0.00  0.00    +0.000 C 
ATOM      9  C   UNL     1       4.886   5.995  16.280  0.00  0.00    +0.000 C 
ATOM     10  C   UNL     1       5.103   4.482  16.367  0.00  0.00    +0.000 C 
ENDBRANCH   2   3
BRANCH   2  11
ATOM     11  N   UNL     1       3.871   0.925  18.260  0.00  0.00    +0.000 NA
ATOM     12  H   UNL     1       4.773   0.616  17.904  0.00  0.00    +0.000 HD
ATOM     13  H   UNL     1       3.166   0.342  17.808  0.00  0.00    +0.000 HD
ENDBRANCH   2  11
ENDBRANCH   1   2
BRANCH   1  14
ATOM     14  C   UNL     1       1.519   2.126  19.358  0.00  0.00    +0.000 C 
BRANCH  14  15
ATOM     15  N   UNL     1       1.747   2.975  20.530  0.00  0.00    +0.000 NA
ATOM     16  H   UNL     1       2.747   3.071  20.709  0.00  0.00    +0.000 HD
BRANCH  15  17
ATOM     17  C   UNL     1       1.143   4.293  20.355  0.00  0.00    +0.000 C 
BRANCH  17  18
ATOM     18  C   UNL     1       2.131   5.367  20.807  0.00  0.00    +0.000 C 
BRANCH  18  19
ATOM     19  C   UNL     1       2.787   6.036  19.598  0.00  0.00    +0.000 C 
BRANCH  19  20
ATOM     20  C   UNL     1       2.223   7.411  19.345  0.00  0.00    +0.000 A 
ATOM     21  C   UNL     1       1.532   8.094  20.354  0.00  0.00    +0.000 A 
ATOM     22  C   UNL     1       1.001   9.361  20.111  0.00  0.00    +0.000 A 
ATOM     23  C   UNL     1       1.153   9.954  18.858  0.00  0.00    +0.000 A 
ATOM     24  C   UNL     1       1.831   9.278  17.845  0.00  0.00    +0.000 A 
ATOM     25  C   UNL     1       2.362   8.010  18.087  0.00  0.00    +0.000 A 
ENDBRANCH  19  20
ENDBRANCH  18  19
ENDBRANCH  17  18
ENDBRANCH  15  17
ENDBRANCH  14  15
ENDBRANCH   1  14
TORSDOF 9
ENDMDL
MODEL 2
REMARK VINA RESULT:      -6.5      4.256      6.956
REMARK  Name = 
REMARK  9 active torsions:
REMARK  status: ('A' for Active; 'I' for Inactive)
REMARK    1  A    between atoms: N_1  and  C_2
REMARK    2  A    between atoms: C_2  and  C_3
REMARK    3  A    between atoms: C_2  and  C_15
REMARK    4  A    between atoms: C_3  and  C_4
REMARK    5  A    between atoms: C_4  and  N_5
REMARK    6  A    between atoms: N_5  and  C_6
REMARK    7  A    between atoms: C_6  and  C_7
REMARK    8  A    between atoms: C_7  and  C_8
REMARK    9  A    between atoms: C_8  and  C_9
REMARK                            x       y       z     vdW  Elec       q    Type
REMARK                         _______ _______ _______ _____ _____    ______ ____
ROOT
ATOM      1  C   UNL     1       5.203   5.786  17.687  0.00  0.00    +0.000 C 
ENDROOT
BRANCH   1   2
ATOM      2  C   UNL     1       5.279   5.364  19.167  0.00  0.00    +0.000 C 
BRANCH   2   3
ATOM      3  C   UNL     1       4.656   3.967  19.444  0.00  0.00    +0.000 C 
ATOM      4  O   UNL     1       5.367   2.967  19.570  0.00  0.00    +0.000 OA
ATOM      5  N   UNL     1       3.274   3.883  19.580  0.00  0.00    +0.000 N 
ATOM      6  C   UNL     1       2.679   2.648  20.082  0.00  0.00    +0.000 C 
ATOM      7  C   UNL     1       1.765   2.021  19.037  0.00  0.00    +0.000 C 
ATOM      8  C   UNL     1       0.720   3.029  18.558  0.00  0.00    +0.000 C 
ATOM      9  C   UNL     1       1.384   4.319  18.077  0.00  0.00    +0.000 C 
ATOM     10  C   UNL     1       2.318   4.899  19.142  0.00  0.00    +0.000 C 
ENDBRANCH   2   3
BRANCH   2  11
ATOM     11  N   UNL     1       6.670   5.410  19.674  0.00  0.00    +0.000 NA
ATOM     12  H   UNL     1       7.309   5.556  18.895  0.00  0.00    +0.000 HD
ATOM     13  H   UNL     1       6.904   4.501  20.075  0.00  0.00    +0.000 HD
ENDBRANCH   2  11
ENDBRANCH   1   2
BRANCH   1  14
ATOM     14  C   UNL     1       6.535   6.168  17.032  0.00  0.00    +0.000 C 
BRANCH  14  15
ATOM     15  N   UNL     1       6.749   7.607  17.203  0.00  0.00    +0.000 NA
ATOM     16  H   UNL     1       6.012   8.008  17.784  0.00  0.00    +0.000 HD
BRANCH  15  17
ATOM     17  C   UNL     1       8.055   7.882  17.796  0.00  0.00    +0.000 C 
BRANCH  17  18
ATOM     18  C   UNL     1       8.228   9.391  17.965  0.00  0.00    +0.000 C 
BRANCH  18  19
ATOM     19  C   UNL     1       9.008   9.702  19.242  0.00  0.00    +0.000 C 
BRANCH  19  20
ATOM     20  C   UNL     1       9.903  10.903  19.073  0.00  0.00    +0.000 A 
ATOM     21  C   UNL     1      10.407  11.579  20.192  0.00  0.00    +0.000 A 
ATOM     22  C   UNL     1      11.224  12.698  20.030  0.00  0.00    +0.000 A 
ATOM     23  C   UNL     1      11.542  13.152  18.750  0.00  0.00    +0.000 A 
ATOM     24  C   UNL     1      11.038  12.491  17.632  0.00  0.00    +0.000 A 
ATOM     25  C   UNL     1      10.219  11.373  17.792  0.00  0.00    +0.000 A 
ENDBRANCH  19  20
ENDBRANCH  18  19
ENDBRANCH  17  18
ENDBRANCH  15  17
ENDBRANCH  14  15
ENDBRANCH   1  14
TORSDOF 9
ENDMDL
MODEL 3
REMARK VINA RESULT:      -6.3      4.199      6.961
REMARK  Name = 
REMARK  9 active torsions:
REMARK  status: ('A' for Active; 'I' for Inactive)
REMARK    1  A    between atoms: N_1  and  C_2
REMARK    2  A    between atoms: C_2  and  C_3
REMARK    3  A    between atoms: C_2  and  C_15
REMARK    4  A    between atoms: C_3  and  C_4
REMARK    5  A    between atoms: C_4  and  N_5
REMARK    6  A    between atoms: N_5  and  C_6
REMARK    7  A    between atoms: C_6  and  C_7
REMARK    8  A    between atoms: C_7  and  C_8
REMARK    9  A    between atoms: C_8  and  C_9
REMARK                            x       y       z     vdW  Elec       q    Type
REMARK                         _______ _______ _______ _____ _____    ______ ____
ROOT
ATOM      1  C   UNL     1       5.754   5.212  17.474  0.00  0.00    +0.000 C 
ENDROOT
BRANCH   1   2
ATOM      2  C   UNL     1       5.533   5.106  18.995  0.00  0.00    +0.000 C 
BRANCH   2   3
ATOM      3  C   UNL     1       4.795   3.807  19.424  0.00  0.00    +0.000 C 
ATOM      4  O   UNL     1       5.266   2.695  19.172  0.00  0.00    +0.000 OA
ATOM      5  N   UNL     1       3.604   3.935  20.131  0.00  0.00    +0.000 N 
ATOM      6  C   UNL     1       3.016   2.756  20.761  0.00  0.00    +0.000 C 
ATOM      7  C   UNL     1       1.646   2.450  20.169  0.00  0.00    +0.000 C 
ATOM      8  C   UNL     1       0.737   3.677  20.244  0.00  0.00    +0.000 C 
ATOM      9  C   UNL     1       1.406   4.895  19.608  0.00  0.00    +0.000 C 
ATOM     10  C   UNL     1       2.792   5.149  20.207  0.00  0.00    +0.000 C 
ENDBRANCH   2   3
BRANCH   2  11
ATOM     11  N   UNL     1       6.808   5.235  19.739  0.00  0.00    +0.000 NA
ATOM     12  H   UNL     1       7.490   4.583  19.357  0.00  0.00    +0.000 HD
ATOM     13  H   UNL     1       6.652   4.959  20.709  0.00  0.00    +0.000 HD
ENDBRANCH   2  11
ENDBRANCH   1   2
BRANCH   1  14
ATOM     14  C   UNL     1       7.109   5.776  17.034  0.00  0.00    +0.000 C 
BRANCH  14  15
ATOM     15  N   UNL     1       7.050   7.239  17.083  0.00  0.00    +0.000 NA
ATOM     16  H   UNL     1       6.107   7.547  17.319  0.00  0.00    +0.000 HD
BRANCH  15  17
ATOM     17  C   UNL     1       8.006   7.776  18.047  0.00  0.00    +0.000 C 
BRANCH  17  18
ATOM     18  C   UNL     1       8.122   9.287  17.860  0.00  0.00    +0.000 C 
BRANCH  18  19
ATOM     19  C   UNL     1       9.171   9.867  18.809  0.00  0.00    +0.000 C 
BRANCH  19  20
ATOM     20  C   UNL     1       9.706  11.186  18.313  0.00  0.00    +0.000 A 
ATOM     21  C   UNL     1      11.085  11.386  18.167  0.00  0.00    +0.000 A 
ATOM     22  C   UNL     1      11.576  12.613  17.721  0.00  0.00    +0.000 A 
ATOM     23  C   UNL     1      10.694  13.651  17.421  0.00  0.00    +0.000 A 
ATOM     24  C   UNL     1       9.321  13.465  17.571  0.00  0.00    +0.000 A 
ATOM     25  C   UNL     1       8.829  12.238  18.019  0.00  0.00    +0.000 A 
ENDBRANCH  19  20
ENDBRANCH  18  19
ENDBRANCH  17  18
ENDBRANCH  15  17
ENDBRANCH  14  15
ENDBRANCH   1  14
TORSDOF 9
ENDMDL
MODEL 4
REMARK VINA RESULT:      -6.2      0.701      1.296
REMARK  Name = 
REMARK  9 active torsions:
REMARK  status: ('A' for Active; 'I' for Inactive)
REMARK    1  A    between atoms: N_1  and  C_2
REMARK    2  A    between atoms: C_2  and  C_3
REMARK    3  A    between atoms: C_2  and  C_15
REMARK    4  A    between atoms: C_3  and  C_4
REMARK    5  A    between atoms: C_4  and  N_5
REMARK    6  A    between atoms: N_5  and  C_6
REMARK    7  A    between atoms: C_6  and  C_7
REMARK    8  A    between atoms: C_7  and  C_8
REMARK    9  A    between atoms: C_8  and  C_9
REMARK                            x       y       z     vdW  Elec       q    Type
REMARK                         _______ _______ _______ _____ _____    ______ ____
ROOT
ATOM      1  C   UNL     1       2.368   2.199  19.560  0.00  0.00    +0.000 C 
ENDROOT
BRANCH   1   2
ATOM      2  C   UNL     1       3.473   2.267  18.489  0.00  0.00    +0.000 C 
BRANCH   2   3
ATOM      3  C   UNL     1       4.693   3.133  18.913  0.00  0.00    +0.000 C 
ATOM      4  O   UNL     1       5.168   3.052  20.048  0.00  0.00    +0.000 OA
ATOM      5  N   UNL     1       5.255   3.979  17.963  0.00  0.00    +0.000 N 
ATOM      6  C   UNL     1       6.539   4.616  18.243  0.00  0.00    +0.000 C 
ATOM      7  C   UNL     1       6.398   6.133  18.274  0.00  0.00    +0.000 C 
ATOM      8  C   UNL     1       5.753   6.643  16.985  0.00  0.00    +0.000 C 
ATOM      9  C   UNL     1       4.432   5.924  16.712  0.00  0.00    +0.000 C 
ATOM     10  C   UNL     1       4.610   4.404  16.720  0.00  0.00    +0.000 C 
ENDBRANCH   2   3
BRANCH   2  11
ATOM     11  N   UNL     1       3.926   0.915  18.089  0.00  0.00    +0.000 NA
ATOM     12  H   UNL     1       4.758   0.994  17.509  0.00  0.00    +0.000 HD
ATOM     13  H   UNL     1       3.206   0.485  17.507  0.00  0.00    +0.000 HD
ENDBRANCH   2  11
ENDBRANCH   1   2
BRANCH   1  14
ATOM     14  C   UNL     1       1.038   2.864  19.189  0.00  0.00    +0.000 C 
BRANCH  14  15
ATOM     15  N   UNL     1       0.645   3.769  20.273  0.00  0.00    +0.000 NA
ATOM     16  H   UNL     1       0.086   3.269  20.966  0.00  0.00    +0.000 HD
BRANCH  15  17
ATOM     17  C   UNL     1       1.812   4.368  20.913  0.00  0.00    +0.000 C 
BRANCH  17  18
ATOM     18  C   UNL     1       2.199   5.645  20.169  0.00  0.00    +0.000 C 
BRANCH  18  19
ATOM     19  C   UNL     1       1.579   6.869  20.844  0.00  0.00    +0.000 C 
BRANCH  19  20
ATOM     20  C   UNL     1       1.548   8.061  19.923  0.00  0.00    +0.000 A 
ATOM     21  C   UNL     1       2.151   8.000  18.659  0.00  0.00    +0.000 A 
ATOM     22  C   UNL     1       2.130   9.111  17.815  0.00  0.00    +0.000 A 
ATOM     23  C   UNL     1       1.512  10.291  18.227  0.00  0.00    +0.000 A 
ATOM     24  C   UNL     1       0.918  10.364  19.486  0.00  0.00    +0.000 A 
ATOM     25  C   UNL     1       0.938   9.254  20.332  0.00  0.00    +0.000 A 
ENDBRANCH  19  20
ENDBRANCH  18  19
ENDBRANCH  17  18
ENDBRANCH  15  17
ENDBRANCH  14  15
ENDBRANCH   1  14
TORSDOF 9
ENDMDL
MODEL 5
REMARK VINA RESULT:      -6.1      4.323      7.052
REMARK  Name = 
REMARK  9 active torsions:
REMARK  status: ('A' for Active; 'I' for Inactive)
REMARK    1  A    between atoms: N_1  and  C_2
REMARK    2  A    between atoms: C_2  and  C_3
REMARK    3  A    between atoms: C_2  and  C_15
REMARK    4  A    between atoms: C_3  and  C_4
REMARK    5  A    between atoms: C_4  and  N_5
REMARK    6  A    between atoms: N_5  and  C_6
REMARK    7  A    between atoms: C_6  and  C_7
REMARK    8  A    between atoms: C_7  and  C_8
REMARK    9  A    between atoms: C_8  and  C_9
REMARK                            x       y       z     vdW  Elec       q    Type
REMARK                         _______ _______ _______ _____ _____    ______ ____
ROOT
ATOM      1  C   UNL     1       5.418   6.060  16.495  0.00  0.00    +0.000 C 
ENDROOT
BRANCH   1   2
ATOM      2  C   UNL     1       5.696   4.786  17.314  0.00  0.00    +0.000 C 
BRANCH   2   3
ATOM      3  C   UNL     1       4.417   3.958  17.624  0.00  0.00    +0.000 C 
ATOM      4  O   UNL     1       3.980   3.135  16.816  0.00  0.00    +0.000 OA
ATOM      5  N   UNL     1       3.799   4.148  18.855  0.00  0.00    +0.000 N 
ATOM      6  C   UNL     1       2.753   3.222  19.281  0.00  0.00    +0.000 C 
ATOM      7  C   UNL     1       1.424   3.946  19.455  0.00  0.00    +0.000 C 
ATOM      8  C   UNL     1       1.577   5.139  20.398  0.00  0.00    +0.000 C 
ATOM      9  C   UNL     1       2.706   6.061  19.937  0.00  0.00    +0.000 C 
ATOM     10  C   UNL     1       4.014   5.291  19.743  0.00  0.00    +0.000 C 
ENDBRANCH   2   3
BRANCH   2  11
ATOM     11  N   UNL     1       6.709   3.928  16.656  0.00  0.00    +0.000 NA
ATOM     12  H   UNL     1       7.570   3.945  17.198  0.00  0.00    +0.000 HD
ATOM     13  H   UNL     1       6.933   4.324  15.742  0.00  0.00    +0.000 HD
ENDBRANCH   2  11
ENDBRANCH   1   2
BRANCH   1  14
ATOM     14  C   UNL     1       5.853   7.379  17.143  0.00  0.00    +0.000 C 
BRANCH  14  15
ATOM     15  N   UNL     1       7.272   7.601  16.853  0.00  0.00    +0.000 NA
ATOM     16  H   UNL     1       7.380   8.343  16.161  0.00  0.00    +0.000 HD
BRANCH  15  17
ATOM     17  C   UNL     1       8.014   7.939  18.065  0.00  0.00    +0.000 C 
BRANCH  17  18
ATOM     18  C   UNL     1       8.316   9.436  18.074  0.00  0.00    +0.000 C 
BRANCH  18  19
ATOM     19  C   UNL     1       9.089   9.821  19.335  0.00  0.00    +0.000 C 
BRANCH  19  20
ATOM     20  C   UNL     1      10.035  10.967  19.085  0.00  0.00    +0.000 A 
ATOM     21  C   UNL     1      10.433  11.290  17.781  0.00  0.00    +0.000 A 
ATOM     22  C   UNL     1      11.320  12.343  17.556  0.00  0.00    +0.000 A 
ATOM     23  C   UNL     1      11.819  13.079  18.630  0.00  0.00    +0.000 A 
ATOM     24  C   UNL     1      11.436  12.759  19.931  0.00  0.00    +0.000 A 
ATOM     25  C   UNL     1      10.550  11.705  20.159  0.00  0.00    +0.000 A 
ENDBRANCH  19  20
ENDBRANCH  18  19
ENDBRANCH  17  18
ENDBRANCH  15  17
ENDBRANCH  14  15
ENDBRANCH   1  14
TORSDOF 9
ENDMDL
MODEL 6
REMARK VINA RESULT:      -6.1      4.132      6.878
REMARK  Name = 
REMARK  9 active torsions:
REMARK  status: ('A' for Active; 'I' for Inactive)
REMARK    1  A    between atoms: N_1  and  C_2
REMARK    2  A    between atoms: C_2  and  C_3
REMARK    3  A    between atoms: C_2  and  C_15
REMARK    4  A    between atoms: C_3  and  C_4
REMARK    5  A    between atoms: C_4  and  N_5
REMARK    6  A    between atoms: N_5  and  C_6
REMARK    7  A    between atoms: C_6  and  C_7
REMARK    8  A    between atoms: C_7  and  C_8
REMARK    9  A    between atoms: C_8  and  C_9
REMARK                            x       y       z     vdW  Elec       q    Type
REMARK                         _______ _______ _______ _____ _____    ______ ____
ROOT
ATOM      1  C   UNL     1       5.572   5.667  18.008  0.00  0.00    +0.000 C 
ENDROOT
BRANCH   1   2
ATOM      2  C   UNL     1       4.106   6.001  17.671  0.00  0.00    +0.000 C 
BRANCH   2   3
ATOM      3  C   UNL     1       3.098   5.520  18.753  0.00  0.00    +0.000 C 
ATOM      4  O   UNL     1       2.984   6.117  19.827  0.00  0.00    +0.000 OA
ATOM      5  N   UNL     1       2.303   4.417  18.460  0.00  0.00    +0.000 N 
ATOM      6  C   UNL     1       1.183   4.090  19.338  0.00  0.00    +0.000 C 
ATOM      7  C   UNL     1       1.375   2.719  19.975  0.00  0.00    +0.000 C 
ATOM      8  C   UNL     1       1.619   1.654  18.906  0.00  0.00    +0.000 C 
ATOM      9  C   UNL     1       2.773   2.055  17.987  0.00  0.00    +0.000 C 
ATOM     10  C   UNL     1       2.559   3.449  17.393  0.00  0.00    +0.000 C 
ENDBRANCH   2   3
BRANCH   2  11
ATOM     11  N   UNL     1       3.924   7.449  17.415  0.00  0.00    +0.000 NA
ATOM     12  H   UNL     1       4.835   7.894  17.325  0.00  0.00    +0.000 HD
ATOM     13  H   UNL     1       3.473   7.873  18.227  0.00  0.00    +0.000 HD
ENDBRANCH   2  11
ENDBRANCH   1   2
BRANCH   1  14
ATOM     14  C   UNL     1       6.557   5.730  16.835  0.00  0.00    +0.000 C 
BRANCH  14  15
ATOM     15  N   UNL     1       7.022   7.112  16.684  0.00  0.00    +0.000 NA
ATOM     16  H   UNL     1       6.234   7.731  16.494  0.00  0.00    +0.000 HD
BRANCH  15  17
ATOM     17  C   UNL     1       7.736   7.564  17.874  0.00  0.00    +0.000 C 
BRANCH  17  18
ATOM     18  C   UNL     1       8.135   9.028  17.701  0.00  0.00    +0.000 C 
BRANCH  18  19
ATOM     19  C   UNL     1       8.982   9.498  18.883  0.00  0.00    +0.000 C 
BRANCH  19  20
ATOM     20  C   UNL     1       9.471  10.911  18.696  0.00  0.00    +0.000 A 
ATOM     21  C   UNL     1       8.794  11.791  17.842  0.00  0.00    +0.000 A 
ATOM     22  C   UNL     1       9.258  13.094  17.661  0.00  0.00    +0.000 A 
ATOM     23  C   UNL     1      10.403  13.528  18.329  0.00  0.00    +0.000 A 
ATOM     24  C   UNL     1      11.088  12.656  19.174  0.00  0.00    +0.000 A 
ATOM     25  C   UNL     1      10.626  11.352  19.355  0.00  0.00    +0.000 A 
ENDBRANCH  19  20
ENDBRANCH  18  19
ENDBRANCH  17  18
ENDBRANCH  15  17
ENDBRANCH  14  15
ENDBRANCH   1  14
TORSDOF 9
ENDMDL
MODEL 7
REMARK VINA RESULT:      -6.0      0.768      1.178
REMARK  Name = 
REMARK  9 active torsions:
REMARK  status: ('A' for Active; 'I' for Inactive)
REMARK    1  A    between atoms: N_1  and  C_2
REMARK    2  A    between atoms: C_2  and  C_3
REMARK    3  A    between atoms: C_2  and  C_15
REMARK    4  A    between atoms: C_3  and  C_4
REMARK    5  A    between atoms: C_4  and  N_5
REMARK    6  A    between atoms: N_5  and  C_6
REMARK    7  A    between atoms: C_6  and  C_7
REMARK    8  A    between atoms: C_7  and  C_8
REMARK    9  A    between atoms: C_8  and  C_9
REMARK                            x       y       z     vdW  Elec       q    Type
REMARK                         _______ _______ _______ _____ _____    ______ ____
ROOT
ATOM      1  C   UNL     1       2.519   3.375  17.372  0.00  0.00    +0.000 C 
ENDROOT
BRANCH   1   2
ATOM      2  C   UNL     1       3.864   2.638  17.515  0.00  0.00    +0.000 C 
BRANCH   2   3
ATOM      3  C   UNL     1       4.934   3.451  18.298  0.00  0.00    +0.000 C 
ATOM      4  O   UNL     1       4.952   3.458  19.531  0.00  0.00    +0.000 OA
ATOM      5  N   UNL     1       5.893   4.143  17.565  0.00  0.00    +0.000 N 
ATOM      6  C   UNL     1       7.049   4.707  18.256  0.00  0.00    +0.000 C 
ATOM      7  C   UNL     1       7.076   6.224  18.120  0.00  0.00    +0.000 C 
ATOM      8  C   UNL     1       7.004   6.638  16.651  0.00  0.00    +0.000 C 
ATOM      9  C   UNL     1       5.802   5.996  15.959  0.00  0.00    +0.000 C 
ATOM     10  C   UNL     1       5.795   4.477  16.144  0.00  0.00    +0.000 C 
ENDBRANCH   2   3
BRANCH   2  11
ATOM     11  N   UNL     1       3.688   1.303  18.132  0.00  0.00    +0.000 NA
ATOM     12  H   UNL     1       4.491   1.095  18.722  0.00  0.00    +0.000 HD
ATOM     13  H   UNL     1       3.679   0.598  17.394  0.00  0.00    +0.000 HD
ENDBRANCH   2  11
ENDBRANCH   1   2
BRANCH   1  14
ATOM     14  C   UNL     1       1.418   2.953  18.352  0.00  0.00    +0.000 C 
BRANCH  14  15
ATOM     15  N   UNL     1       1.948   3.023  19.716  0.00  0.00    +0.000 NA
ATOM     16  H   UNL     1       2.933   3.289  19.699  0.00  0.00    +0.000 HD
BRANCH  15  17
ATOM     17  C   UNL     1       1.190   3.967  20.531  0.00  0.00    +0.000 C 
BRANCH  17  18
ATOM     18  C   UNL     1       2.135   5.034  21.083  0.00  0.00    +0.000 C 
BRANCH  18  19
ATOM     19  C   UNL     1       1.476   6.412  21.033  0.00  0.00    +0.000 C 
BRANCH  19  20
ATOM     20  C   UNL     1       1.913   7.199  19.824  0.00  0.00    +0.000 A 
ATOM     21  C   UNL     1       1.365   8.460  19.559  0.00  0.00    +0.000 A 
ATOM     22  C   UNL     1       1.764   9.178  18.431  0.00  0.00    +0.000 A 
ATOM     23  C   UNL     1       2.709   8.641  17.558  0.00  0.00    +0.000 A 
ATOM     24  C   UNL     1       3.253   7.383  17.809  0.00  0.00    +0.000 A 
ATOM     25  C   UNL     1       2.855   6.662  18.936  0.00  0.00    +0.000 A 
ENDBRANCH  19  20
ENDBRANCH  18  19
ENDBRANCH  17  18
ENDBRANCH  15  17
ENDBRANCH  14  15
ENDBRANCH   1  14
TORSDOF 9
ENDMDL
MODEL 8
REMARK VINA RESULT:      -6.0      4.110      6.883
REMARK  Name = 
REMARK  9 active torsions:
REMARK  status: ('A' for Active; 'I' for Inactive)
REMARK    1  A    between atoms: N_1  and  C_2
REMARK    2  A    between atoms: C_2  and  C_3
REMARK    3  A    between atoms: C_2  and  C_15
REMARK    4  A    between atoms: C_3  and  C_4
REMARK    5  A    between atoms: C_4  and  N_5
REMARK    6  A    between atoms: N_5  and  C_6
REMARK    7  A    between atoms: C_6  and  C_7
REMARK    8  A    between atoms: C_7  and  C_8
REMARK    9  A    between atoms: C_8  and  C_9
REMARK                            x       y       z     vdW  Elec       q    Type
REMARK                         _______ _______ _______ _____ _____    ______ ____
ROOT
ATOM      1  C   UNL     1       5.170   5.621  18.266  0.00  0.00    +0.000 C 
ENDROOT
BRANCH   1   2
ATOM      2  C   UNL     1       5.123   4.122  17.913  0.00  0.00    +0.000 C 
BRANCH   2   3
ATOM      3  C   UNL     1       3.678   3.565  17.775  0.00  0.00    +0.000 C 
ATOM      4  O   UNL     1       3.057   3.662  16.714  0.00  0.00    +0.000 OA
ATOM      5  N   UNL     1       3.119   2.922  18.874  0.00  0.00    +0.000 N 
ATOM      6  C   UNL     1       1.876   2.174  18.708  0.00  0.00    +0.000 C 
ATOM      7  C   UNL     1       0.764   2.772  19.560  0.00  0.00    +0.000 C 
ATOM      8  C   UNL     1       1.199   2.879  21.022  0.00  0.00    +0.000 C 
ATOM      9  C   UNL     1       2.522   3.635  21.145  0.00  0.00    +0.000 C 
ATOM     10  C   UNL     1       3.602   3.023  20.251  0.00  0.00    +0.000 C 
ENDBRANCH   2   3
BRANCH   2  11
ATOM     11  N   UNL     1       5.900   3.829  16.686  0.00  0.00    +0.000 NA
ATOM     12  H   UNL     1       5.495   4.333  15.900  0.00  0.00    +0.000 HD
ATOM     13  H   UNL     1       5.812   2.835  16.471  0.00  0.00    +0.000 HD
ENDBRANCH   2  11
ENDBRANCH   1   2
BRANCH   1  14
ATOM     14  C   UNL     1       6.570   6.230  18.408  0.00  0.00    +0.000 C 
BRANCH  14  15
ATOM     15  N   UNL     1       6.840   7.067  17.236  0.00  0.00    +0.000 NA
ATOM     16  H   UNL     1       6.082   7.736  17.097  0.00  0.00    +0.000 HD
BRANCH  15  17
ATOM     17  C   UNL     1       8.110   7.775  17.372  0.00  0.00    +0.000 C 
BRANCH  17  18
ATOM     18  C   UNL     1       7.847   9.207  17.831  0.00  0.00    +0.000 C 
BRANCH  18  19
ATOM     19  C   UNL     1       8.951   9.681  18.776  0.00  0.00    +0.000 C 
BRANCH  19  20
ATOM     20  C   UNL     1       9.543  10.994  18.333  0.00  0.00    +0.000 A 
ATOM     21  C   UNL     1       8.714  12.045  17.920  0.00  0.00    +0.000 A 
ATOM     22  C   UNL     1       9.268  13.254  17.497  0.00  0.00    +0.000 A 
ATOM     23  C   UNL     1      10.652  13.421  17.480  0.00  0.00    +0.000 A 
ATOM     24  C   UNL     1      11.484  12.377  17.880  0.00  0.00    +0.000 A 
ATOM     25  C   UNL     1      10.933  11.167  18.302  0.00  0.00    +0.000 A 
ENDBRANCH  19  20
ENDBRANCH  18  19
ENDBRANCH  17  18
ENDBRANCH  15  17
ENDBRANCH  14  15
ENDBRANCH   1  14
TORSDOF 9
ENDMDL
MODEL 9
REMARK VINA RESULT:      -5.9      5.444      7.853
REMARK  Name = 
REMARK  9 active torsions:
REMARK  status: ('A' for Active; 'I' for Inactive)
REMARK    1  A    between atoms: N_1  and  C_2
REMARK    2  A    between atoms: C_2  and  C_3
REMARK    3  A    between atoms: C_2  and  C_15
REMARK    4  A    between atoms: C_3  and  C_4
REMARK    5  A    between atoms: C_4  and  N_5
REMARK    6  A    between atoms: N_5  and  C_6
REMARK    7  A    between atoms: C_6  and  C_7
REMARK    8  A    between atoms: C_7  and  C_8
REMARK    9  A    between atoms: C_8  and  C_9
REMARK                            x       y       z     vdW  Elec       q    Type
REMARK                         _______ _______ _______ _____ _____    ______ ____
ROOT
ATOM      1  C   UNL     1       8.189   7.033  18.677  0.00  0.00    +0.000 C 
ENDROOT
BRANCH   1   2
ATOM      2  C   UNL     1       7.374   5.965  19.431  0.00  0.00    +0.000 C 
BRANCH   2   3
ATOM      3  C   UNL     1       6.697   4.927  18.491  0.00  0.00    +0.000 C 
ATOM      4  O   UNL     1       7.343   4.342  17.619  0.00  0.00    +0.000 OA
ATOM      5  N   UNL     1       5.348   4.652  18.687  0.00  0.00    +0.000 N 
ATOM      6  C   UNL     1       4.743   3.515  17.999  0.00  0.00    +0.000 C 
ATOM      7  C   UNL     1       3.641   3.977  17.053  0.00  0.00    +0.000 C 
ATOM      8  C   UNL     1       2.615   4.834  17.793  0.00  0.00    +0.000 C 
ATOM      9  C   UNL     1       3.295   5.988  18.530  0.00  0.00    +0.000 C 
ATOM     10  C   UNL     1       4.415   5.486  19.445  0.00  0.00    +0.000 C 
ENDBRANCH   2   3
BRANCH   2  11
ATOM     11  N   UNL     1       8.198   5.269  20.446  0.00  0.00    +0.000 NA
ATOM     12  H   UNL     1       9.096   5.018  20.039  0.00  0.00    +0.000 HD
ATOM     13  H   UNL     1       7.739   4.393  20.699  0.00  0.00    +0.000 HD
ENDBRANCH   2  11
ENDBRANCH   1   2
BRANCH   1  14
ATOM     14  C   UNL     1       7.491   7.682  17.477  0.00  0.00    +0.000 C 
BRANCH  14  15
ATOM     15  N   UNL     1       7.577   9.139  17.614  0.00  0.00    +0.000 NA
ATOM     16  H   UNL     1       6.730   9.504  18.052  0.00  0.00    +0.000 HD
BRANCH  15  17
ATOM     17  C   UNL     1       8.749   9.530  18.391  0.00  0.00    +0.000 C 
BRANCH  17  18
ATOM     18  C   UNL     1       9.018  11.020  18.189  0.00  0.00    +0.000 C 
BRANCH  18  19
ATOM     19  C   UNL     1      10.492  11.261  17.864  0.00  0.00    +0.000 C 
BRANCH  19  20
ATOM     20  C   UNL     1      10.790  12.726  17.669  0.00  0.00    +0.000 A 
ATOM     21  C   UNL     1      12.058  13.144  17.245  0.00  0.00    +0.000 A 
ATOM     22  C   UNL     1      12.333  14.501  17.079  0.00  0.00    +0.000 A 
ATOM     23  C   UNL     1      11.346  15.452  17.339  0.00  0.00    +0.000 A 
ATOM     24  C   UNL     1      10.085  15.045  17.770  0.00  0.00    +0.000 A 
ATOM     25  C   UNL     1       9.808  13.688  17.938  0.00  0.00    +0.000 A 
ENDBRANCH  19  20
ENDBRANCH  18  19
ENDBRANCH  17  18
ENDBRANCH  15  17
ENDBRANCH  14  15
ENDBRANCH   1  14
TORSDOF 9
ENDMDL
