MODEL 1
REMARK VINA RESULT:      -7.1      0.000      0.000
REMARK  Name = 
REMARK  12 active torsions:
REMARK  status: ('A' for Active; 'I' for Inactive)
REMARK    1  A    between atoms: C_1  and  O_2
REMARK    2  A    between atoms: O_2  and  C_3
REMARK    3  A    between atoms: C_3  and  C_4
REMARK    4  A    between atoms: C_3  and  C_13
REMARK    5  A    between atoms: C_5  and  C_6
REMARK    6  A    between atoms: C_9  and  O_10
REMARK    7  A    between atoms: C_13  and  C_14
REMARK    8  A    between atoms: C_14  and  O_15
REMARK    9  A    between atoms: C_14  and  C_16
REMARK   10  A    between atoms: C_16  and  C_17
REMARK   11  A    between atoms: C_17  and  C_18
REMARK   12  A    between atoms: C_21  and  O_22
REMARK                            x       y       z     vdW  Elec       q    Type
REMARK                         _______ _______ _______ _____ _____    ______ ____
ROOT
ATOM      1  C   UNL     1       5.128   5.759  15.760  0.00  0.00    +0.000 C 
ENDROOT
BRANCH   1   2
ATOM      2  C   UNL     1       5.742   6.425  17.004  0.00  0.00    +0.000 C 
BRANCH   2   4
ATOM      3  C   UNL     1       7.694   7.712  17.611  0.00  0.00    +0.000 C 
ATOM      4  O   UNL     1       6.815   7.286  16.579  0.00  0.00    +0.000 OA
ENDBRANCH   2   4
BRANCH   2   5
ATOM      5  C   UNL     1       4.736   7.258  17.762  0.00  0.00    +0.000 C 
ATOM      6  C   UNL     1       3.399   7.135  17.710  0.00  0.00    +0.000 C 
BRANCH   6   7
ATOM      7  C   UNL     1       2.464   7.912  18.537  0.00  0.00    +0.000 A 
ATOM      8  C   UNL     1       1.795   9.005  17.971  0.00  0.00    +0.000 A 
ATOM      9  C   UNL     1       0.853   9.728  18.703  0.00  0.00    +0.000 A 
ATOM     10  C   UNL     1       0.566   9.343  20.009  0.00  0.00    +0.000 A 
ATOM     11  C   UNL     1       1.209   8.258  20.590  0.00  0.00    +0.000 A 
ATOM     12  C   UNL     1       2.154   7.540  19.853  0.00  0.00    +0.000 A 
BRANCH  10  13
ATOM     13  O   UNL     1      -0.358  10.009  20.758  0.00  0.00    +0.000 OA
ATOM     14  H   UNL     1      -1.224   9.593  20.623  0.00  0.00    +0.000 HD
ENDBRANCH  10  13
ENDBRANCH   6   7
ENDBRANCH   2   5
ENDBRANCH   1   2
BRANCH   1  15
ATOM     15  C   UNL     1       5.238   4.235  15.624  0.00  0.00    +0.000 C 
BRANCH  15  16
ATOM     16  O   UNL     1       6.597   3.825  15.494  0.00  0.00    +0.000 OA
ATOM     17  H   UNL     1       7.163   4.598  15.663  0.00  0.00    +0.000 HD
ENDBRANCH  15  16
BRANCH  15  18
ATOM     18  C   UNL     1       4.663   3.519  16.859  0.00  0.00    +0.000 C 
BRANCH  18  19
ATOM     19  C   UNL     1       3.151   3.703  17.025  0.00  0.00    +0.000 C 
BRANCH  19  20
ATOM     20  C   UNL     1       2.706   3.479  18.446  0.00  0.00    +0.000 A 
ATOM     21  C   UNL     1       1.451   3.935  18.876  0.00  0.00    +0.000 A 
ATOM     22  C   UNL     1       1.031   3.719  20.188  0.00  0.00    +0.000 A 
ATOM     23  C   UNL     1       1.873   3.052  21.071  0.00  0.00    +0.000 A 
ATOM     24  C   UNL     1       3.124   2.603  20.663  0.00  0.00    +0.000 A 
ATOM     25  C   UNL     1       3.543   2.818  19.352  0.00  0.00    +0.000 A 
BRANCH  23  26
ATOM     26  O   UNL     1       1.503   2.814  22.362  0.00  0.00    +0.000 OA
ATOM     27  H   UNL     1       1.396   1.857  22.478  0.00  0.00    +0.000 HD
ENDBRANCH  23  26
ENDBRANCH  19  20
ENDBRANCH  18  19
ENDBRANCH  15  18
ENDBRANCH   1  15
TORSDOF 11
ENDMDL
MODEL 2
REMARK VINA RESULT:      -7.1      0.380      1.435
REMARK  Name = 
REMARK  12 active torsions:
REMARK  status: ('A' for Active; 'I' for Inactive)
REMARK    1  A    between atoms: C_1  and  O_2
REMARK    2  A    between atoms: O_2  and  C_3
REMARK    3  A    between atoms: C_3  and  C_4
REMARK    4  A    between atoms: C_3  and  C_13
REMARK    5  A    between atoms: C_5  and  C_6
REMARK    6  A    between atoms: C_9  and  O_10
REMARK    7  A    between atoms: C_13  and  C_14
REMARK    8  A    between atoms: C_14  and  O_15
REMARK    9  A    between atoms: C_14  and  C_16
REMARK   10  A    between atoms: C_16  and  C_17
REMARK   11  A    between atoms: C_17  and  C_18
REMARK   12  A    between atoms: C_21  and  O_22
REMARK                            x       y       z     vdW  Elec       q    Type
REMARK                         _______ _______ _______ _____ _____    ______ ____
ROOT
ATOM      1  C   UNL     1       5.083   5.690  15.755  0.00  0.00    +0.000 C 
ENDROOT
BRANCH   1   2
ATOM      2  C   UNL     1       5.433   6.506  17.012  0.00  0.00    +0.000 C 
BRANCH   2   4
ATOM      3  C   UNL     1       7.620   7.303  17.659  0.00  0.00    +0.000 C 
ATOM      4  O   UNL     1       6.562   7.348  16.711  0.00  0.00    +0.000 OA
ENDBRANCH   2   4
BRANCH   2   5
ATOM      5  C   UNL     1       4.291   7.386  17.461  0.00  0.00    +0.000 C 
ATOM      6  C   UNL     1       3.270   7.022  18.255  0.00  0.00    +0.000 C 
BRANCH   6   7
ATOM      7  C   UNL     1       2.228   7.942  18.736  0.00  0.00    +0.000 A 
ATOM      8  C   UNL     1       1.851   7.904  20.085  0.00  0.00    +0.000 A 
ATOM      9  C   UNL     1       0.913   8.803  20.594  0.00  0.00    +0.000 A 
ATOM     10  C   UNL     1       0.359   9.759  19.748  0.00  0.00    +0.000 A 
ATOM     11  C   UNL     1       0.723   9.823  18.410  0.00  0.00    +0.000 A 
ATOM     12  C   UNL     1       1.661   8.919  17.905  0.00  0.00    +0.000 A 
BRANCH  10  13
ATOM     13  O   UNL     1      -0.549  10.668  20.203  0.00  0.00    +0.000 OA
ATOM     14  H   UNL     1      -1.398  10.217  20.335  0.00  0.00    +0.000 HD
ENDBRANCH  10  13
ENDBRANCH   6   7
ENDBRANCH   2   5
ENDBRANCH   1   2
BRANCH   1  15
ATOM     15  C   UNL     1       5.437   4.198  15.736  0.00  0.00    +0.000 C 
BRANCH  15  16
ATOM     16  O   UNL     1       6.846   4.001  15.822  0.00  0.00    +0.000 OA
ATOM     17  H   UNL     1       7.010   3.244  16.412  0.00  0.00    +0.000 HD
ENDBRANCH  15  16
BRANCH  15  18
ATOM     18  C   UNL     1       4.800   3.456  16.924  0.00  0.00    +0.000 C 
BRANCH  18  19
ATOM     19  C   UNL     1       3.283   3.640  17.019  0.00  0.00    +0.000 C 
BRANCH  19  20
ATOM     20  C   UNL     1       2.768   3.393  18.412  0.00  0.00    +0.000 A 
ATOM     21  C   UNL     1       3.599   2.810  19.381  0.00  0.00    +0.000 A 
ATOM     22  C   UNL     1       3.129   2.590  20.676  0.00  0.00    +0.000 A 
ATOM     23  C   UNL     1       1.825   2.949  20.997  0.00  0.00    +0.000 A 
ATOM     24  C   UNL     1       0.987   3.518  20.045  0.00  0.00    +0.000 A 
ATOM     25  C   UNL     1       1.456   3.739  18.753  0.00  0.00    +0.000 A 
BRANCH  23  26
ATOM     26  O   UNL     1       1.325   2.757  22.251  0.00  0.00    +0.000 OA
ATOM     27  H   UNL     1       2.069   2.645  22.864  0.00  0.00    +0.000 HD
ENDBRANCH  23  26
ENDBRANCH  19  20
ENDBRANCH  18  19
ENDBRANCH  15  18
ENDBRANCH   1  15
TORSDOF 11
ENDMDL
MODEL 3
REMARK VINA RESULT:      -6.9      1.538      4.806
REMARK  Name = 
REMARK  12 active torsions:
REMARK  status: ('A' for Active; 'I' for Inactive)
REMARK    1  A    between atoms: C_1  and  O_2
REMARK    2  A    between atoms: O_2  and  C_3
REMARK    3  A    between atoms: C_3  and  C_4
REMARK    4  A    between atoms: C_3  and  C_13
REMARK    5  A    between atoms: C_5  and  C_6
REMARK    6  A    between atoms: C_9  and  O_10
REMARK    7  A    between atoms: C_13  and  C_14
REMARK    8  A    between atoms: C_14  and  O_15
REMARK    9  A    between atoms: C_14  and  C_16
REMARK   10  A    between atoms: C_16  and  C_17
REMARK   11  A    between atoms: C_17  and  C_18
REMARK   12  A    between atoms: C_21  and  O_22
REMARK                            x       y       z     vdW  Elec       q    Type
REMARK                         _______ _______ _______ _____ _____    ______ ____
ROOT
ATOM      1  C   UNL     1       3.384   3.651  20.259  0.00  0.00    +0.000 C 
ENDROOT
BRANCH   1   2
ATOM      2  C   UNL     1       1.921   3.876  19.838  0.00  0.00    +0.000 C 
BRANCH   2   4
ATOM      3  C   UNL     1       1.544   2.477  21.771  0.00  0.00    +0.000 C 
ATOM      4  O   UNL     1       1.069   3.533  20.947  0.00  0.00    +0.000 OA
ENDBRANCH   2   4
BRANCH   2   5
ATOM      5  C   UNL     1       1.648   5.312  19.457  0.00  0.00    +0.000 C 
ATOM      6  C   UNL     1       2.020   6.403  20.148  0.00  0.00    +0.000 C 
BRANCH   6   7
ATOM      7  C   UNL     1       1.808   7.784  19.690  0.00  0.00    +0.000 A 
ATOM      8  C   UNL     1       2.139   8.126  18.372  0.00  0.00    +0.000 A 
ATOM      9  C   UNL     1       1.894   9.409  17.881  0.00  0.00    +0.000 A 
ATOM     10  C   UNL     1       1.297  10.353  18.710  0.00  0.00    +0.000 A 
ATOM     11  C   UNL     1       0.952  10.035  20.017  0.00  0.00    +0.000 A 
ATOM     12  C   UNL     1       1.202   8.750  20.505  0.00  0.00    +0.000 A 
BRANCH  10  13
ATOM     13  O   UNL     1       1.024  11.613  18.270  0.00  0.00    +0.000 OA
ATOM     14  H   UNL     1       0.532  11.550  17.436  0.00  0.00    +0.000 HD
ENDBRANCH  10  13
ENDBRANCH   6   7
ENDBRANCH   2   5
ENDBRANCH   1   2
BRANCH   1  15
ATOM     15  C   UNL     1       4.366   3.112  19.211  0.00  0.00    +0.000 C 
BRANCH  15  16
ATOM     16  O   UNL     1       5.184   2.078  19.754  0.00  0.00    +0.000 OA
ATOM     17  H   UNL     1       4.700   1.666  20.491  0.00  0.00    +0.000 HD
ENDBRANCH  15  16
BRANCH  15  18
ATOM     18  C   UNL     1       3.623   2.516  18.001  0.00  0.00    +0.000 C 
BRANCH  18  19
ATOM     19  C   UNL     1       3.536   3.469  16.806  0.00  0.00    +0.000 C 
BRANCH  19  20
ATOM     20  C   UNL     1       4.662   4.470  16.797  0.00  0.00    +0.000 A 
ATOM     21  C   UNL     1       4.409   5.824  17.061  0.00  0.00    +0.000 A 
ATOM     22  C   UNL     1       5.451   6.751  17.065  0.00  0.00    +0.000 A 
ATOM     23  C   UNL     1       6.746   6.321  16.797  0.00  0.00    +0.000 A 
ATOM     24  C   UNL     1       7.011   4.984  16.524  0.00  0.00    +0.000 A 
ATOM     25  C   UNL     1       5.971   4.058  16.521  0.00  0.00    +0.000 A 
BRANCH  23  26
ATOM     26  O   UNL     1       7.796   7.191  16.795  0.00  0.00    +0.000 OA
ATOM     27  H   UNL     1       8.579   6.723  16.465  0.00  0.00    +0.000 HD
ENDBRANCH  23  26
ENDBRANCH  19  20
ENDBRANCH  18  19
ENDBRANCH  15  18
ENDBRANCH   1  15
TORSDOF 11
ENDMDL
MODEL 4
REMARK VINA RESULT:      -6.8      1.702      6.722
REMARK  Name = 
REMARK  12 active torsions:
REMARK  status: ('A' for Active; 'I' for Inactive)
REMARK    1  A    between atoms: C_1  and  O_2
REMARK    2  A    between atoms: O_2  and  C_3
REMARK    3  A    between atoms: C_3  and  C_4
REMARK    4  A    between atoms: C_3  and  C_13
REMARK    5  A    between atoms: C_5  and  C_6
REMARK    6  A    between atoms: C_9  and  O_10
REMARK    7  A    between atoms: C_13  and  C_14
REMARK    8  A    between atoms: C_14  and  O_15
REMARK    9  A    between atoms: C_14  and  C_16
REMARK   10  A    between atoms: C_16  and  C_17
REMARK   11  A    between atoms: C_17  and  C_18
REMARK   12  A    between atoms: C_21  and  O_22
REMARK                            x       y       z     vdW  Elec       q    Type
REMARK                         _______ _______ _______ _____ _____    ______ ____
ROOT
ATOM      1  C   UNL     1       2.819   2.741  19.982  0.00  0.00    +0.000 C 
ENDROOT
BRANCH   1   2
ATOM      2  C   UNL     1       2.481   2.278  18.554  0.00  0.00    +0.000 C 
BRANCH   2   4
ATOM      3  C   UNL     1       1.009   3.842  17.448  0.00  0.00    +0.000 C 
ATOM      4  O   UNL     1       1.130   2.677  18.252  0.00  0.00    +0.000 OA
ENDBRANCH   2   4
BRANCH   2   5
ATOM      5  C   UNL     1       3.398   2.889  17.521  0.00  0.00    +0.000 C 
ATOM      6  C   UNL     1       4.385   3.770  17.755  0.00  0.00    +0.000 C 
BRANCH   6   7
ATOM      7  C   UNL     1       5.311   4.268  16.727  0.00  0.00    +0.000 A 
ATOM      8  C   UNL     1       6.395   5.067  17.110  0.00  0.00    +0.000 A 
ATOM      9  C   UNL     1       7.330   5.506  16.172  0.00  0.00    +0.000 A 
ATOM     10  C   UNL     1       7.188   5.127  14.841  0.00  0.00    +0.000 A 
ATOM     11  C   UNL     1       6.126   4.328  14.438  0.00  0.00    +0.000 A 
ATOM     12  C   UNL     1       5.191   3.894  15.380  0.00  0.00    +0.000 A 
BRANCH  10  13
ATOM     13  O   UNL     1       8.084   5.518  13.892  0.00  0.00    +0.000 OA
ATOM     14  H   UNL     1       8.862   5.893  14.337  0.00  0.00    +0.000 HD
ENDBRANCH  10  13
ENDBRANCH   6   7
ENDBRANCH   2   5
ENDBRANCH   1   2
BRANCH   1  15
ATOM     15  C   UNL     1       1.670   3.199  20.888  0.00  0.00    +0.000 C 
BRANCH  15  16
ATOM     16  O   UNL     1       1.886   2.800  22.239  0.00  0.00    +0.000 OA
ATOM     17  H   UNL     1       2.783   2.427  22.304  0.00  0.00    +0.000 HD
ENDBRANCH  15  16
BRANCH  15  18
ATOM     18  C   UNL     1       1.529   4.732  20.883  0.00  0.00    +0.000 C 
BRANCH  18  19
ATOM     19  C   UNL     1       2.783   5.460  20.391  0.00  0.00    +0.000 C 
BRANCH  19  20
ATOM     20  C   UNL     1       2.449   6.738  19.667  0.00  0.00    +0.000 A 
ATOM     21  C   UNL     1       2.891   6.944  18.352  0.00  0.00    +0.000 A 
ATOM     22  C   UNL     1       2.574   8.121  17.675  0.00  0.00    +0.000 A 
ATOM     23  C   UNL     1       1.819   9.095  18.319  0.00  0.00    +0.000 A 
ATOM     24  C   UNL     1       1.382   8.909  19.626  0.00  0.00    +0.000 A 
ATOM     25  C   UNL     1       1.698   7.734  20.302  0.00  0.00    +0.000 A 
BRANCH  23  26
ATOM     26  O   UNL     1       1.480  10.259  17.696  0.00  0.00    +0.000 OA
ATOM     27  H   UNL     1       1.331  10.938  18.374  0.00  0.00    +0.000 HD
ENDBRANCH  23  26
ENDBRANCH  19  20
ENDBRANCH  18  19
ENDBRANCH  15  18
ENDBRANCH   1  15
TORSDOF 11
ENDMDL
MODEL 5
REMARK VINA RESULT:      -6.8      1.566      4.957
REMARK  Name = 
REMARK  12 active torsions:
REMARK  status: ('A' for Active; 'I' for Inactive)
REMARK    1  A    between atoms: C_1  and  O_2
REMARK    2  A    between atoms: O_2  and  C_3
REMARK    3  A    between atoms: C_3  and  C_4
REMARK    4  A    between atoms: C_3  and  C_13
REMARK    5  A    between atoms: C_5  and  C_6
REMARK    6  A    between atoms: C_9  and  O_10
REMARK    7  A    between atoms: C_13  and  C_14
REMARK    8  A    between atoms: C_14  and  O_15
REMARK    9  A    between atoms: C_14  and  C_16
REMARK   10  A    between atoms: C_16  and  C_17
REMARK   11  A    between atoms: C_17  and  C_18
REMARK   12  A    between atoms: C_21  and  O_22
REMARK                            x       y       z     vdW  Elec       q    Type
REMARK                         _______ _______ _______ _____ _____    ______ ____
ROOT
ATOM      1  C   UNL     1       3.333   3.646  20.276  0.00  0.00    +0.000 C 
ENDROOT
BRANCH   1   2
ATOM      2  C   UNL     1       1.883   3.833  19.795  0.00  0.00    +0.000 C 
BRANCH   2   4
ATOM      3  C   UNL     1       1.620   2.543  21.821  0.00  0.00    +0.000 C 
ATOM      4  O   UNL     1       0.996   3.316  20.805  0.00  0.00    +0.000 OA
ENDBRANCH   2   4
BRANCH   2   5
ATOM      5  C   UNL     1       1.541   5.285  19.560  0.00  0.00    +0.000 C 
ATOM      6  C   UNL     1       2.344   6.339  19.783  0.00  0.00    +0.000 C 
BRANCH   6   7
ATOM      7  C   UNL     1       1.996   7.729  19.453  0.00  0.00    +0.000 A 
ATOM      8  C   UNL     1       2.288   8.223  18.176  0.00  0.00    +0.000 A 
ATOM      9  C   UNL     1       1.915   9.516  17.804  0.00  0.00    +0.000 A 
ATOM     10  C   UNL     1       1.230  10.314  18.714  0.00  0.00    +0.000 A 
ATOM     11  C   UNL     1       0.921   9.844  19.984  0.00  0.00    +0.000 A 
ATOM     12  C   UNL     1       1.299   8.550  20.351  0.00  0.00    +0.000 A 
BRANCH  10  13
ATOM     13  O   UNL     1       0.832  11.577  18.391  0.00  0.00    +0.000 OA
ATOM     14  H   UNL     1       1.197  11.804  17.521  0.00  0.00    +0.000 HD
ENDBRANCH  10  13
ENDBRANCH   6   7
ENDBRANCH   2   5
ENDBRANCH   1   2
BRANCH   1  15
ATOM     15  C   UNL     1       4.393   3.240  19.246  0.00  0.00    +0.000 C 
BRANCH  15  16
ATOM     16  O   UNL     1       5.047   2.031  19.626  0.00  0.00    +0.000 OA
ATOM     17  H   UNL     1       5.423   2.158  20.515  0.00  0.00    +0.000 HD
ENDBRANCH  15  16
BRANCH  15  18
ATOM     18  C   UNL     1       3.766   3.003  17.860  0.00  0.00    +0.000 C 
BRANCH  18  19
ATOM     19  C   UNL     1       4.711   3.322  16.698  0.00  0.00    +0.000 C 
BRANCH  19  20
ATOM     20  C   UNL     1       5.434   4.627  16.899  0.00  0.00    +0.000 A 
ATOM     21  C   UNL     1       6.789   4.638  17.262  0.00  0.00    +0.000 A 
ATOM     22  C   UNL     1       7.465   5.845  17.438  0.00  0.00    +0.000 A 
ATOM     23  C   UNL     1       6.780   7.042  17.256  0.00  0.00    +0.000 A 
ATOM     24  C   UNL     1       5.435   7.047  16.907  0.00  0.00    +0.000 A 
ATOM     25  C   UNL     1       4.760   5.842  16.730  0.00  0.00    +0.000 A 
BRANCH  23  26
ATOM     26  O   UNL     1       7.401   8.245  17.413  0.00  0.00    +0.000 OA
ATOM     27  H   UNL     1       6.978   8.888  16.821  0.00  0.00    +0.000 HD
ENDBRANCH  23  26
ENDBRANCH  19  20
ENDBRANCH  18  19
ENDBRANCH  15  18
ENDBRANCH   1  15
TORSDOF 11
ENDMDL
MODEL 6
REMARK VINA RESULT:      -6.7      2.918      5.312
REMARK  Name = 
REMARK  12 active torsions:
REMARK  status: ('A' for Active; 'I' for Inactive)
REMARK    1  A    between atoms: C_1  and  O_2
REMARK    2  A    between atoms: O_2  and  C_3
REMARK    3  A    between atoms: C_3  and  C_4
REMARK    4  A    between atoms: C_3  and  C_13
REMARK    5  A    between atoms: C_5  and  C_6
REMARK    6  A    between atoms: C_9  and  O_10
REMARK    7  A    between atoms: C_13  and  C_14
REMARK    8  A    between atoms: C_14  and  O_15
REMARK    9  A    between atoms: C_14  and  C_16
REMARK   10  A    between atoms: C_16  and  C_17
REMARK   11  A    between atoms: C_17  and  C_18
REMARK   12  A    between atoms: C_21  and  O_22
REMARK                            x       y       z     vdW  Elec       q    Type
REMARK                         _______ _______ _______ _____ _____    ______ ____
ROOT
ATOM      1  C   UNL     1       5.647   6.955  17.059  0.00  0.00    +0.000 C 
ENDROOT
BRANCH   1   2
ATOM      2  C   UNL     1       7.123   6.594  17.305  0.00  0.00    +0.000 C 
BRANCH   2   4
ATOM      3  C   UNL     1       7.175   5.078  15.425  0.00  0.00    +0.000 C 
ATOM      4  O   UNL     1       7.722   6.233  16.047  0.00  0.00    +0.000 OA
ENDBRANCH   2   4
BRANCH   2   5
ATOM      5  C   UNL     1       7.904   7.747  17.890  0.00  0.00    +0.000 C 
ATOM      6  C   UNL     1       7.770   9.044  17.567  0.00  0.00    +0.000 C 
BRANCH   6   7
ATOM      7  C   UNL     1       8.493  10.141  18.229  0.00  0.00    +0.000 A 
ATOM      8  C   UNL     1       9.228   9.872  19.390  0.00  0.00    +0.000 A 
ATOM      9  C   UNL     1       9.979  10.872  20.011  0.00  0.00    +0.000 A 
ATOM     10  C   UNL     1      10.006  12.147  19.455  0.00  0.00    +0.000 A 
ATOM     11  C   UNL     1       9.291  12.435  18.300  0.00  0.00    +0.000 A 
ATOM     12  C   UNL     1       8.540  11.432  17.684  0.00  0.00    +0.000 A 
BRANCH  10  13
ATOM     13  O   UNL     1      10.736  13.151  20.017  0.00  0.00    +0.000 OA
ATOM     14  H   UNL     1      11.069  12.847  20.877  0.00  0.00    +0.000 HD
ENDBRANCH  10  13
ENDBRANCH   6   7
ENDBRANCH   2   5
ENDBRANCH   1   2
BRANCH   1  15
ATOM     15  C   UNL     1       4.577   5.917  17.417  0.00  0.00    +0.000 C 
BRANCH  15  16
ATOM     16  O   UNL     1       5.098   4.917  18.290  0.00  0.00    +0.000 OA
ATOM     17  H   UNL     1       4.705   5.051  19.171  0.00  0.00    +0.000 HD
ENDBRANCH  15  16
BRANCH  15  18
ATOM     18  C   UNL     1       3.381   6.569  18.134  0.00  0.00    +0.000 C 
BRANCH  18  19
ATOM     19  C   UNL     1       2.084   5.763  18.017  0.00  0.00    +0.000 C 
BRANCH  19  20
ATOM     20  C   UNL     1       1.905   4.808  19.167  0.00  0.00    +0.000 A 
ATOM     21  C   UNL     1       2.431   5.114  20.431  0.00  0.00    +0.000 A 
ATOM     22  C   UNL     1       2.258   4.237  21.501  0.00  0.00    +0.000 A 
ATOM     23  C   UNL     1       1.564   3.049  21.302  0.00  0.00    +0.000 A 
ATOM     24  C   UNL     1       1.047   2.726  20.052  0.00  0.00    +0.000 A 
ATOM     25  C   UNL     1       1.219   3.602  18.984  0.00  0.00    +0.000 A 
BRANCH  23  26
ATOM     26  O   UNL     1       1.367   2.163  22.319  0.00  0.00    +0.000 OA
ATOM     27  H   UNL     1       0.846   1.418  21.980  0.00  0.00    +0.000 HD
ENDBRANCH  23  26
ENDBRANCH  19  20
ENDBRANCH  18  19
ENDBRANCH  15  18
ENDBRANCH   1  15
TORSDOF 11
ENDMDL
MODEL 7
REMARK VINA RESULT:      -6.6      1.692      4.822
REMARK  Name = 
REMARK  12 active torsions:
REMARK  status: ('A' for Active; 'I' for Inactive)
REMARK    1  A    between atoms: C_1  and  O_2
REMARK    2  A    between atoms: O_2  and  C_3
REMARK    3  A    between atoms: C_3  and  C_4
REMARK    4  A    between atoms: C_3  and  C_13
REMARK    5  A    between atoms: C_5  and  C_6
REMARK    6  A    between atoms: C_9  and  O_10
REMARK    7  A    between atoms: C_13  and  C_14
REMARK    8  A    between atoms: C_14  and  O_15
REMARK    9  A    between atoms: C_14  and  C_16
REMARK   10  A    between atoms: C_16  and  C_17
REMARK   11  A    between atoms: C_17  and  C_18
REMARK   12  A    between atoms: C_21  and  O_22
REMARK                            x       y       z     vdW  Elec       q    Type
REMARK                         _______ _______ _______ _____ _____    ______ ____
ROOT
ATOM      1  C   UNL     1       2.442   2.764  18.242  0.00  0.00    +0.000 C 
ENDROOT
BRANCH   1   2
ATOM      2  C   UNL     1       1.850   3.481  19.468  0.00  0.00    +0.000 C 
BRANCH   2   4
ATOM      3  C   UNL     1       2.291   2.686  21.706  0.00  0.00    +0.000 C 
ATOM      4  O   UNL     1       2.782   3.367  20.560  0.00  0.00    +0.000 OA
ENDBRANCH   2   4
BRANCH   2   5
ATOM      5  C   UNL     1       1.601   4.948  19.209  0.00  0.00    +0.000 C 
ATOM      6  C   UNL     1       2.255   5.979  19.772  0.00  0.00    +0.000 C 
BRANCH   6   7
ATOM      7  C   UNL     1       2.037   7.389  19.419  0.00  0.00    +0.000 A 
ATOM      8  C   UNL     1       2.365   7.831  18.131  0.00  0.00    +0.000 A 
ATOM      9  C   UNL     1       2.113   9.147  17.738  0.00  0.00    +0.000 A 
ATOM     10  C   UNL     1       1.513  10.022  18.638  0.00  0.00    +0.000 A 
ATOM     11  C   UNL     1       1.171   9.605  19.917  0.00  0.00    +0.000 A 
ATOM     12  C   UNL     1       1.428   8.288  20.306  0.00  0.00    +0.000 A 
BRANCH  10  13
ATOM     13  O   UNL     1       1.234  11.311  18.294  0.00  0.00    +0.000 OA
ATOM     14  H   UNL     1       0.502  11.627  18.849  0.00  0.00    +0.000 HD
ENDBRANCH  10  13
ENDBRANCH   6   7
ENDBRANCH   2   5
ENDBRANCH   1   2
BRANCH   1  15
ATOM     15  C   UNL     1       3.956   2.521  18.205  0.00  0.00    +0.000 C 
BRANCH  15  16
ATOM     16  O   UNL     1       4.253   1.132  18.077  0.00  0.00    +0.000 OA
ATOM     17  H   UNL     1       4.099   0.875  17.151  0.00  0.00    +0.000 HD
ENDBRANCH  15  16
BRANCH  15  18
ATOM     18  C   UNL     1       4.610   3.238  17.011  0.00  0.00    +0.000 C 
BRANCH  18  19
ATOM     19  C   UNL     1       4.353   4.748  16.987  0.00  0.00    +0.000 C 
BRANCH  19  20
ATOM     20  C   UNL     1       5.532   5.530  17.503  0.00  0.00    +0.000 A 
ATOM     21  C   UNL     1       6.437   4.941  18.399  0.00  0.00    +0.000 A 
ATOM     22  C   UNL     1       7.535   5.659  18.870  0.00  0.00    +0.000 A 
ATOM     23  C   UNL     1       7.724   6.970  18.447  0.00  0.00    +0.000 A 
ATOM     24  C   UNL     1       6.830   7.571  17.568  0.00  0.00    +0.000 A 
ATOM     25  C   UNL     1       5.733   6.854  17.097  0.00  0.00    +0.000 A 
BRANCH  23  26
ATOM     26  O   UNL     1       8.786   7.709  18.877  0.00  0.00    +0.000 OA
ATOM     27  H   UNL     1       9.399   7.825  18.134  0.00  0.00    +0.000 HD
ENDBRANCH  23  26
ENDBRANCH  19  20
ENDBRANCH  18  19
ENDBRANCH  15  18
ENDBRANCH   1  15
TORSDOF 11
ENDMDL
MODEL 8
REMARK VINA RESULT:      -6.6      3.295      5.707
REMARK  Name = 
REMARK  12 active torsions:
REMARK  status: ('A' for Active; 'I' for Inactive)
REMARK    1  A    between atoms: C_1  and  O_2
REMARK    2  A    between atoms: O_2  and  C_3
REMARK    3  A    between atoms: C_3  and  C_4
REMARK    4  A    between atoms: C_3  and  C_13
REMARK    5  A    between atoms: C_5  and  C_6
REMARK    6  A    between atoms: C_9  and  O_10
REMARK    7  A    between atoms: C_13  and  C_14
REMARK    8  A    between atoms: C_14  and  O_15
REMARK    9  A    between atoms: C_14  and  C_16
REMARK   10  A    between atoms: C_16  and  C_17
REMARK   11  A    between atoms: C_17  and  C_18
REMARK   12  A    between atoms: C_21  and  O_22
REMARK                            x       y       z     vdW  Elec       q    Type
REMARK                         _______ _______ _______ _____ _____    ______ ____
ROOT
ATOM      1  C   UNL     1       7.696   6.308  18.072  0.00  0.00    +0.000 C 
ENDROOT
BRANCH   1   2
ATOM      2  C   UNL     1       7.172   7.492  17.239  0.00  0.00    +0.000 C 
BRANCH   2   4
ATOM      3  C   UNL     1       5.022   7.102  16.209  0.00  0.00    +0.000 C 
ATOM      4  O   UNL     1       5.738   7.536  17.358  0.00  0.00    +0.000 OA
ENDBRANCH   2   4
BRANCH   2   5
ATOM      5  C   UNL     1       7.728   8.815  17.712  0.00  0.00    +0.000 C 
ATOM      6  C   UNL     1       8.726   8.989  18.595  0.00  0.00    +0.000 C 
BRANCH   6   7
ATOM      7  C   UNL     1       9.292  10.297  18.955  0.00  0.00    +0.000 A 
ATOM      8  C   UNL     1       9.384  10.654  20.306  0.00  0.00    +0.000 A 
ATOM      9  C   UNL     1       9.974  11.859  20.692  0.00  0.00    +0.000 A 
ATOM     10  C   UNL     1      10.489  12.707  19.717  0.00  0.00    +0.000 A 
ATOM     11  C   UNL     1      10.417  12.371  18.371  0.00  0.00    +0.000 A 
ATOM     12  C   UNL     1       9.824  11.165  17.991  0.00  0.00    +0.000 A 
BRANCH  10  13
ATOM     13  O   UNL     1      11.087  13.887  20.045  0.00  0.00    +0.000 OA
ATOM     14  H   UNL     1      10.425  14.595  19.990  0.00  0.00    +0.000 HD
ENDBRANCH  10  13
ENDBRANCH   6   7
ENDBRANCH   2   5
ENDBRANCH   1   2
BRANCH   1  15
ATOM     15  C   UNL     1       7.374   4.887  17.595  0.00  0.00    +0.000 C 
BRANCH  15  16
ATOM     16  O   UNL     1       8.471   4.005  17.823  0.00  0.00    +0.000 OA
ATOM     17  H   UNL     1       8.737   4.090  18.756  0.00  0.00    +0.000 HD
ENDBRANCH  15  16
BRANCH  15  18
ATOM     18  C   UNL     1       6.160   4.306  18.341  0.00  0.00    +0.000 C 
BRANCH  18  19
ATOM     19  C   UNL     1       5.046   3.816  17.411  0.00  0.00    +0.000 C 
BRANCH  19  20
ATOM     20  C   UNL     1       3.755   3.581  18.149  0.00  0.00    +0.000 A 
ATOM     21  C   UNL     1       3.762   2.983  19.418  0.00  0.00    +0.000 A 
ATOM     22  C   UNL     1       2.569   2.775  20.109  0.00  0.00    +0.000 A 
ATOM     23  C   UNL     1       1.368   3.159  19.525  0.00  0.00    +0.000 A 
ATOM     24  C   UNL     1       1.343   3.742  18.263  0.00  0.00    +0.000 A 
ATOM     25  C   UNL     1       2.534   3.952  17.573  0.00  0.00    +0.000 A 
BRANCH  23  26
ATOM     26  O   UNL     1       0.177   2.978  20.165  0.00  0.00    +0.000 OA
ATOM     27  H   UNL     1      -0.104   3.830  20.535  0.00  0.00    +0.000 HD
ENDBRANCH  23  26
ENDBRANCH  19  20
ENDBRANCH  18  19
ENDBRANCH  15  18
ENDBRANCH   1  15
TORSDOF 11
ENDMDL
MODEL 9
REMARK VINA RESULT:      -6.6      1.022      1.538
REMARK  Name = 
REMARK  12 active torsions:
REMARK  status: ('A' for Active; 'I' for Inactive)
REMARK    1  A    between atoms: C_1  and  O_2
REMARK    2  A    between atoms: O_2  and  C_3
REMARK    3  A    between atoms: C_3  and  C_4
REMARK    4  A    between atoms: C_3  and  C_13
REMARK    5  A    between atoms: C_5  and  C_6
REMARK    6  A    between atoms: C_9  and  O_10
REMARK    7  A    between atoms: C_13  and  C_14
REMARK    8  A    between atoms: C_14  and  O_15
REMARK    9  A    between atoms: C_14  and  C_16
REMARK   10  A    between atoms: C_16  and  C_17
REMARK   11  A    between atoms: C_17  and  C_18
REMARK   12  A    between atoms: C_21  and  O_22
REMARK                            x       y       z     vdW  Elec       q    Type
REMARK                         _______ _______ _______ _____ _____    ______ ____
ROOT
ATOM      1  C   UNL     1       5.321   6.205  15.395  0.00  0.00    +0.000 C 
ENDROOT
BRANCH   1   2
ATOM      2  C   UNL     1       5.387   6.648  16.867  0.00  0.00    +0.000 C 
BRANCH   2   4
ATOM      3  C   UNL     1       7.588   6.913  17.826  0.00  0.00    +0.000 C 
ATOM      4  O   UNL     1       6.548   7.481  17.042  0.00  0.00    +0.000 OA
ENDBRANCH   2   4
BRANCH   2   5
ATOM      5  C   UNL     1       4.169   7.439  17.282  0.00  0.00    +0.000 C 
ATOM      6  C   UNL     1       3.384   7.194  18.345  0.00  0.00    +0.000 C 
BRANCH   6   7
ATOM      7  C   UNL     1       2.261   8.048  18.758  0.00  0.00    +0.000 A 
ATOM      8  C   UNL     1       1.823   8.007  20.088  0.00  0.00    +0.000 A 
ATOM      9  C   UNL     1       0.802   8.849  20.534  0.00  0.00    +0.000 A 
ATOM     10  C   UNL     1       0.226   9.749  19.644  0.00  0.00    +0.000 A 
ATOM     11  C   UNL     1       0.649   9.814  18.323  0.00  0.00    +0.000 A 
ATOM     12  C   UNL     1       1.669   8.969  17.881  0.00  0.00    +0.000 A 
BRANCH  10  13
ATOM     13  O   UNL     1      -0.762  10.601  20.037  0.00  0.00    +0.000 OA
ATOM     14  H   UNL     1      -1.572  10.087  20.187  0.00  0.00    +0.000 HD
ENDBRANCH  10  13
ENDBRANCH   6   7
ENDBRANCH   2   5
ENDBRANCH   1   2
BRANCH   1  15
ATOM     15  C   UNL     1       5.545   4.722  15.073  0.00  0.00    +0.000 C 
BRANCH  15  16
ATOM     16  O   UNL     1       6.700   4.540  14.256  0.00  0.00    +0.000 OA
ATOM     17  H   UNL     1       6.452   4.736  13.335  0.00  0.00    +0.000 HD
ENDBRANCH  15  16
BRANCH  15  18
ATOM     18  C   UNL     1       5.759   3.897  16.354  0.00  0.00    +0.000 C 
BRANCH  18  19
ATOM     19  C   UNL     1       4.647   2.878  16.619  0.00  0.00    +0.000 C 
BRANCH  19  20
ATOM     20  C   UNL     1       3.685   3.353  17.675  0.00  0.00    +0.000 A 
ATOM     21  C   UNL     1       2.369   3.698  17.333  0.00  0.00    +0.000 A 
ATOM     22  C   UNL     1       1.473   4.127  18.311  0.00  0.00    +0.000 A 
ATOM     23  C   UNL     1       1.897   4.217  19.631  0.00  0.00    +0.000 A 
ATOM     24  C   UNL     1       3.201   3.888  19.985  0.00  0.00    +0.000 A 
ATOM     25  C   UNL     1       4.096   3.459  19.009  0.00  0.00    +0.000 A 
BRANCH  23  26
ATOM     26  O   UNL     1       1.054   4.627  20.622  0.00  0.00    +0.000 OA
ATOM     27  H   UNL     1       0.148   4.385  20.372  0.00  0.00    +0.000 HD
ENDBRANCH  23  26
ENDBRANCH  19  20
ENDBRANCH  18  19
ENDBRANCH  15  18
ENDBRANCH   1  15
TORSDOF 11
ENDMDL
