MODEL 1
REMARK VINA RESULT:      -8.9      0.000      0.000
REMARK  Name = 
REMARK  8 active torsions:
REMARK  status: ('A' for Active; 'I' for Inactive)
REMARK    1  A    between atoms: C_1  and  C_2
REMARK    2  A    between atoms: C_2  and  O_3
REMARK    3  A    between atoms: C_2  and  C_4
REMARK    4  A    between atoms: C_8  and  C_9
REMARK    5  A    between atoms: C_11  and  O_12
REMARK    6  A    between atoms: O_12  and  C_13
REMARK    7  A    between atoms: N_15  and  C_16
REMARK    8  A    between atoms: C_24  and  O_25
REMARK                            x       y       z     vdW  Elec       q    Type
REMARK                         _______ _______ _______ _____ _____    ______ ____
ROOT
ATOM      1  C   UNL     1       6.175   5.190  16.130  0.00  0.00    +0.000 A 
ATOM      2  C   UNL     1       5.004   5.912  16.462  0.00  0.00    +0.000 A 
ATOM      3  C   UNL     1       4.663   6.202  17.790  0.00  0.00    +0.000 A 
ATOM      4  C   UNL     1       5.489   5.799  18.832  0.00  0.00    +0.000 A 
ATOM      5  C   UNL     1       6.648   5.084  18.546  0.00  0.00    +0.000 A 
ATOM      6  C   UNL     1       6.992   4.802  17.219  0.00  0.00    +0.000 A 
ENDROOT
BRANCH   1  11
ATOM      7  C   UNL     1       6.021   3.548  12.661  0.00  0.00    +0.000 A 
ATOM      8  C   UNL     1       7.095   4.175  12.022  0.00  0.00    +0.000 A 
ATOM      9  C   UNL     1       7.856   5.116  12.707  0.00  0.00    +0.000 A 
ATOM     10  C   UNL     1       7.561   5.433  14.030  0.00  0.00    +0.000 A 
ATOM     11  C   UNL     1       6.475   4.850  14.713  0.00  0.00    +0.000 A 
ATOM     12  C   UNL     1       5.717   3.904  13.989  0.00  0.00    +0.000 A 
BRANCH   7  14
ATOM     13  C   UNL     1       4.172   3.087  10.996  0.00  0.00    +0.000 C 
ATOM     14  C   UNL     1       5.189   2.490  11.961  0.00  0.00    +0.000 C 
BRANCH  14  15
ATOM     15  O   UNL     1       6.020   1.586  11.230  0.00  0.00    +0.000 OA
ATOM     16  H   UNL     1       6.110   0.773  11.754  0.00  0.00    +0.000 HD
ENDBRANCH  14  15
ENDBRANCH   7  14
ENDBRANCH   1  11
BRANCH   6  17
ATOM     17  O   UNL     1       8.177   4.148  16.997  0.00  0.00    +0.000 OA
ATOM     18  H   UNL     1       8.915   4.729  17.243  0.00  0.00    +0.000 HD
ENDBRANCH   6  17
BRANCH   3  19
ATOM     19  O   UNL     1       3.469   6.946  17.958  0.00  0.00    +0.000 OA
BRANCH  19  20
ATOM     20  C   UNL     1       2.590   6.787  19.029  0.00  0.00    +0.000 C 
ATOM     21  O   UNL     1       2.336   7.638  19.889  0.00  0.00    +0.000 OA
ATOM     22  N   UNL     1       1.974   5.586  19.049  0.00  0.00    +0.000 N 
ATOM     23  H   UNL     1       1.194   5.579  19.703  0.00  0.00    +0.000 HD
BRANCH  22  24
ATOM     24  C   UNL     1       2.684   4.329  18.852  0.00  0.00    +0.000 C 
ATOM     25  C   UNL     1       3.048   3.649  20.189  0.00  0.00    +0.000 C 
ATOM     26  C   UNL     1       1.843   3.044  20.911  0.00  0.00    +0.000 C 
ATOM     27  C   UNL     1       1.067   2.094  20.008  0.00  0.00    +0.000 C 
ATOM     28  C   UNL     1       0.656   2.777  18.707  0.00  0.00    +0.000 C 
ATOM     29  C   UNL     1       1.859   3.381  17.973  0.00  0.00    +0.000 C 
ENDBRANCH  22  24
ENDBRANCH  19  20
ENDBRANCH   3  19
TORSDOF 7
ENDMDL
MODEL 2
REMARK VINA RESULT:      -8.9      4.231      6.702
REMARK  Name = 
REMARK  8 active torsions:
REMARK  status: ('A' for Active; 'I' for Inactive)
REMARK    1  A    between atoms: C_1  and  C_2
REMARK    2  A    between atoms: C_2  and  O_3
REMARK    3  A    between atoms: C_2  and  C_4
REMARK    4  A    between atoms: C_8  and  C_9
REMARK    5  A    between atoms: C_11  and  O_12
REMARK    6  A    between atoms: O_12  and  C_13
REMARK    7  A    between atoms: N_15  and  C_16
REMARK    8  A    between atoms: C_24  and  O_25
REMARK                            x       y       z     vdW  Elec       q    Type
REMARK                         _______ _______ _______ _____ _____    ______ ____
ROOT
ATOM      1  C   UNL     1       2.602   6.952  18.864  0.00  0.00    +0.000 A 
ATOM      2  C   UNL     1       2.194   8.144  18.221  0.00  0.00    +0.000 A 
ATOM      3  C   UNL     1       1.389   9.095  18.862  0.00  0.00    +0.000 A 
ATOM      4  C   UNL     1       0.980   8.898  20.176  0.00  0.00    +0.000 A 
ATOM      5  C   UNL     1       1.358   7.736  20.842  0.00  0.00    +0.000 A 
ATOM      6  C   UNL     1       2.169   6.791  20.202  0.00  0.00    +0.000 A 
ENDROOT
BRANCH   1  11
ATOM      7  C   UNL     1       5.507   5.229  17.034  0.00  0.00    +0.000 A 
ATOM      8  C   UNL     1       4.918   4.007  16.693  0.00  0.00    +0.000 A 
ATOM      9  C   UNL     1       3.600   3.748  17.052  0.00  0.00    +0.000 A 
ATOM     10  C   UNL     1       2.857   4.701  17.743  0.00  0.00    +0.000 A 
ATOM     11  C   UNL     1       3.409   5.938  18.133  0.00  0.00    +0.000 A 
ATOM     12  C   UNL     1       4.751   6.169  17.761  0.00  0.00    +0.000 A 
BRANCH   7  14
ATOM     13  C   UNL     1       7.471   6.794  17.351  0.00  0.00    +0.000 C 
ATOM     14  C   UNL     1       6.930   5.565  16.629  0.00  0.00    +0.000 C 
BRANCH  14  15
ATOM     15  O   UNL     1       7.809   4.470  16.893  0.00  0.00    +0.000 OA
ATOM     16  H   UNL     1       8.010   4.471  17.843  0.00  0.00    +0.000 HD
ENDBRANCH  14  15
ENDBRANCH   7  14
ENDBRANCH   1  11
BRANCH   6  17
ATOM     17  O   UNL     1       2.560   5.696  20.930  0.00  0.00    +0.000 OA
ATOM     18  H   UNL     1       3.492   5.795  21.184  0.00  0.00    +0.000 HD
ENDBRANCH   6  17
BRANCH   3  19
ATOM     19  O   UNL     1       1.079  10.242  18.091  0.00  0.00    +0.000 OA
BRANCH  19  20
ATOM     20  C   UNL     1       0.361  11.338  18.569  0.00  0.00    +0.000 C 
ATOM     21  O   UNL     1       0.776  12.181  19.374  0.00  0.00    +0.000 OA
ATOM     22  N   UNL     1      -0.878  11.445  18.043  0.00  0.00    +0.000 N 
ATOM     23  H   UNL     1      -1.290  12.354  18.241  0.00  0.00    +0.000 HD
BRANCH  22  24
ATOM     24  C   UNL     1      -1.791  10.314  17.933  0.00  0.00    +0.000 C 
ATOM     25  C   UNL     1      -3.178  10.624  18.534  0.00  0.00    +0.000 C 
ATOM     26  C   UNL     1      -4.008  11.588  17.684  0.00  0.00    +0.000 C 
ATOM     27  C   UNL     1      -4.131  11.100  16.245  0.00  0.00    +0.000 C 
ATOM     28  C   UNL     1      -2.761  10.844  15.626  0.00  0.00    +0.000 C 
ATOM     29  C   UNL     1      -1.924   9.875  16.470  0.00  0.00    +0.000 C 
ENDBRANCH  22  24
ENDBRANCH  19  20
ENDBRANCH   3  19
TORSDOF 7
ENDMDL
MODEL 3
REMARK VINA RESULT:      -8.5      2.256      3.818
REMARK  Name = 
REMARK  8 active torsions:
REMARK  status: ('A' for Active; 'I' for Inactive)
REMARK    1  A    between atoms: C_1  and  C_2
REMARK    2  A    between atoms: C_2  and  O_3
REMARK    3  A    between atoms: C_2  and  C_4
REMARK    4  A    between atoms: C_8  and  C_9
REMARK    5  A    between atoms: C_11  and  O_12
REMARK    6  A    between atoms: O_12  and  C_13
REMARK    7  A    between atoms: N_15  and  C_16
REMARK    8  A    between atoms: C_24  and  O_25
REMARK                            x       y       z     vdW  Elec       q    Type
REMARK                         _______ _______ _______ _____ _____    ______ ____
ROOT
ATOM      1  C   UNL     1       6.116   5.325  16.025  0.00  0.00    +0.000 A 
ATOM      2  C   UNL     1       5.016   6.178  16.279  0.00  0.00    +0.000 A 
ATOM      3  C   UNL     1       4.635   6.530  17.581  0.00  0.00    +0.000 A 
ATOM      4  C   UNL     1       5.352   6.058  18.674  0.00  0.00    +0.000 A 
ATOM      5  C   UNL     1       6.439   5.214  18.465  0.00  0.00    +0.000 A 
ATOM      6  C   UNL     1       6.822   4.870  17.164  0.00  0.00    +0.000 A 
ENDROOT
BRANCH   1  11
ATOM      7  C   UNL     1       6.051   3.548  12.620  0.00  0.00    +0.000 A 
ATOM      8  C   UNL     1       7.149   4.140  11.990  0.00  0.00    +0.000 A 
ATOM      9  C   UNL     1       7.899   5.101  12.660  0.00  0.00    +0.000 A 
ATOM     10  C   UNL     1       7.567   5.473  13.960  0.00  0.00    +0.000 A 
ATOM     11  C   UNL     1       6.456   4.926  14.632  0.00  0.00    +0.000 A 
ATOM     12  C   UNL     1       5.711   3.959  13.923  0.00  0.00    +0.000 A 
BRANCH   7  14
ATOM     13  C   UNL     1       4.175   3.043  10.997  0.00  0.00    +0.000 C 
ATOM     14  C   UNL     1       5.230   2.470  11.937  0.00  0.00    +0.000 C 
BRANCH  14  15
ATOM     15  O   UNL     1       6.067   1.590  11.184  0.00  0.00    +0.000 OA
ATOM     16  H   UNL     1       5.505   1.114  10.551  0.00  0.00    +0.000 HD
ENDBRANCH  14  15
ENDBRANCH   7  14
ENDBRANCH   1  11
BRANCH   6  17
ATOM     17  O   UNL     1       7.938   4.085  17.020  0.00  0.00    +0.000 OA
ATOM     18  H   UNL     1       7.974   3.440  17.745  0.00  0.00    +0.000 HD
ENDBRANCH   6  17
BRANCH   3  19
ATOM     19  O   UNL     1       3.525   7.404  17.669  0.00  0.00    +0.000 OA
BRANCH  19  20
ATOM     20  C   UNL     1       2.549   7.334  18.663  0.00  0.00    +0.000 C 
ATOM     21  O   UNL     1       2.222   6.317  19.287  0.00  0.00    +0.000 OA
ATOM     22  N   UNL     1       1.971   8.523  18.939  0.00  0.00    +0.000 N 
ATOM     23  H   UNL     1       1.429   8.482  19.799  0.00  0.00    +0.000 HD
BRANCH  22  24
ATOM     24  C   UNL     1       1.502   9.434  17.903  0.00  0.00    +0.000 C 
ATOM     25  C   UNL     1      -0.038   9.505  17.841  0.00  0.00    +0.000 C 
ATOM     26  C   UNL     1      -0.660  10.260  19.017  0.00  0.00    +0.000 C 
ATOM     27  C   UNL     1      -0.055  11.650  19.173  0.00  0.00    +0.000 C 
ATOM     28  C   UNL     1       1.465  11.583  19.290  0.00  0.00    +0.000 C 
ATOM     29  C   UNL     1       2.097  10.832  18.112  0.00  0.00    +0.000 C 
ENDBRANCH  22  24
ENDBRANCH  19  20
ENDBRANCH   3  19
TORSDOF 7
ENDMDL
MODEL 4
REMARK VINA RESULT:      -8.3      4.600      7.014
REMARK  Name = 
REMARK  8 active torsions:
REMARK  status: ('A' for Active; 'I' for Inactive)
REMARK    1  A    between atoms: C_1  and  C_2
REMARK    2  A    between atoms: C_2  and  O_3
REMARK    3  A    between atoms: C_2  and  C_4
REMARK    4  A    between atoms: C_8  and  C_9
REMARK    5  A    between atoms: C_11  and  O_12
REMARK    6  A    between atoms: O_12  and  C_13
REMARK    7  A    between atoms: N_15  and  C_16
REMARK    8  A    between atoms: C_24  and  O_25
REMARK                            x       y       z     vdW  Elec       q    Type
REMARK                         _______ _______ _______ _____ _____    ______ ____
ROOT
ATOM      1  C   UNL     1       2.168   7.494  18.960  0.00  0.00    +0.000 A 
ATOM      2  C   UNL     1       1.785   8.695  18.317  0.00  0.00    +0.000 A 
ATOM      3  C   UNL     1       1.069   9.698  18.984  0.00  0.00    +0.000 A 
ATOM      4  C   UNL     1       0.726   9.545  20.323  0.00  0.00    +0.000 A 
ATOM      5  C   UNL     1       1.082   8.376  20.989  0.00  0.00    +0.000 A 
ATOM      6  C   UNL     1       1.804   7.379  20.324  0.00  0.00    +0.000 A 
ENDROOT
BRANCH   1  11
ATOM      7  C   UNL     1       3.087   4.075  17.471  0.00  0.00    +0.000 A 
ATOM      8  C   UNL     1       4.271   4.388  16.797  0.00  0.00    +0.000 A 
ATOM      9  C   UNL     1       4.763   5.689  16.825  0.00  0.00    +0.000 A 
ATOM     10  C   UNL     1       4.087   6.682  17.529  0.00  0.00    +0.000 A 
ATOM     11  C   UNL     1       2.877   6.426  18.205  0.00  0.00    +0.000 A 
ATOM     12  C   UNL     1       2.400   5.099  18.151  0.00  0.00    +0.000 A 
BRANCH   7  14
ATOM     13  C   UNL     1       3.437   1.694  18.257  0.00  0.00    +0.000 C 
ATOM     14  C   UNL     1       2.538   2.661  17.495  0.00  0.00    +0.000 C 
BRANCH  14  15
ATOM     15  O   UNL     1       1.240   2.625  18.091  0.00  0.00    +0.000 OA
ATOM     16  H   UNL     1       0.909   1.714  18.032  0.00  0.00    +0.000 HD
ENDBRANCH  14  15
ENDBRANCH   7  14
ENDBRANCH   1  11
BRANCH   6  17
ATOM     17  O   UNL     1       2.179   6.277  21.050  0.00  0.00    +0.000 OA
ATOM     18  H   UNL     1       2.878   5.801  20.573  0.00  0.00    +0.000 HD
ENDBRANCH   6  17
BRANCH   3  19
ATOM     19  O   UNL     1       0.775  10.847  18.210  0.00  0.00    +0.000 OA
BRANCH  19  20
ATOM     20  C   UNL     1      -0.255  11.742  18.495  0.00  0.00    +0.000 C 
ATOM     21  O   UNL     1      -0.295  12.519  19.457  0.00  0.00    +0.000 OA
ATOM     22  N   UNL     1      -1.251  11.730  17.582  0.00  0.00    +0.000 N 
ATOM     23  H   UNL     1      -1.871  12.528  17.697  0.00  0.00    +0.000 HD
BRANCH  22  24
ATOM     24  C   UNL     1      -1.844  10.499  17.075  0.00  0.00    +0.000 C 
ATOM     25  C   UNL     1      -2.783   9.836  18.105  0.00  0.00    +0.000 C 
ATOM     26  C   UNL     1      -4.102  10.586  18.296  0.00  0.00    +0.000 C 
ATOM     27  C   UNL     1      -4.816  10.809  16.968  0.00  0.00    +0.000 C 
ATOM     28  C   UNL     1      -3.911  11.514  15.963  0.00  0.00    +0.000 C 
ATOM     29  C   UNL     1      -2.588  10.766  15.761  0.00  0.00    +0.000 C 
ENDBRANCH  22  24
ENDBRANCH  19  20
ENDBRANCH   3  19
TORSDOF 7
ENDMDL
MODEL 5
REMARK VINA RESULT:      -8.3      2.109      3.425
REMARK  Name = 
REMARK  8 active torsions:
REMARK  status: ('A' for Active; 'I' for Inactive)
REMARK    1  A    between atoms: C_1  and  C_2
REMARK    2  A    between atoms: C_2  and  O_3
REMARK    3  A    between atoms: C_2  and  C_4
REMARK    4  A    between atoms: C_8  and  C_9
REMARK    5  A    between atoms: C_11  and  O_12
REMARK    6  A    between atoms: O_12  and  C_13
REMARK    7  A    between atoms: N_15  and  C_16
REMARK    8  A    between atoms: C_24  and  O_25
REMARK                            x       y       z     vdW  Elec       q    Type
REMARK                         _______ _______ _______ _____ _____    ______ ____
ROOT
ATOM      1  C   UNL     1       6.232   5.288  16.109  0.00  0.00    +0.000 A 
ATOM      2  C   UNL     1       5.142   6.133  16.425  0.00  0.00    +0.000 A 
ATOM      3  C   UNL     1       4.811   6.454  17.748  0.00  0.00    +0.000 A 
ATOM      4  C   UNL     1       5.569   5.957  18.802  0.00  0.00    +0.000 A 
ATOM      5  C   UNL     1       6.647   5.119  18.533  0.00  0.00    +0.000 A 
ATOM      6  C   UNL     1       6.981   4.806  17.210  0.00  0.00    +0.000 A 
ENDROOT
BRANCH   1  11
ATOM      7  C   UNL     1       6.040   3.591  12.669  0.00  0.00    +0.000 A 
ATOM      8  C   UNL     1       7.112   4.201  12.011  0.00  0.00    +0.000 A 
ATOM      9  C   UNL     1       7.885   5.147  12.675  0.00  0.00    +0.000 A 
ATOM     10  C   UNL     1       7.603   5.488  13.995  0.00  0.00    +0.000 A 
ATOM     11  C   UNL     1       6.519   4.923  14.696  0.00  0.00    +0.000 A 
ATOM     12  C   UNL     1       5.749   3.971  13.993  0.00  0.00    +0.000 A 
BRANCH   7  14
ATOM     13  C   UNL     1       4.169   3.116  11.032  0.00  0.00    +0.000 C 
ATOM     14  C   UNL     1       5.195   2.527  11.993  0.00  0.00    +0.000 C 
BRANCH  14  15
ATOM     15  O   UNL     1       6.014   1.611  11.263  0.00  0.00    +0.000 OA
ATOM     16  H   UNL     1       6.403   2.090  10.514  0.00  0.00    +0.000 HD
ENDBRANCH  14  15
ENDBRANCH   7  14
ENDBRANCH   1  11
BRANCH   6  17
ATOM     17  O   UNL     1       8.091   4.026  17.005  0.00  0.00    +0.000 OA
ATOM     18  H   UNL     1       8.120   3.326  17.677  0.00  0.00    +0.000 HD
ENDBRANCH   6  17
BRANCH   3  19
ATOM     19  O   UNL     1       3.705   7.324  17.900  0.00  0.00    +0.000 OA
BRANCH  19  20
ATOM     20  C   UNL     1       2.441   6.919  18.327  0.00  0.00    +0.000 C 
ATOM     21  O   UNL     1       1.829   5.918  17.934  0.00  0.00    +0.000 OA
ATOM     22  N   UNL     1       1.908   7.718  19.277  0.00  0.00    +0.000 N 
ATOM     23  H   UNL     1       1.098   7.286  19.716  0.00  0.00    +0.000 HD
BRANCH  22  24
ATOM     24  C   UNL     1       1.913   9.172  19.181  0.00  0.00    +0.000 C 
ATOM     25  C   UNL     1       1.250   9.672  17.880  0.00  0.00    +0.000 C 
ATOM     26  C   UNL     1      -0.271   9.513  17.872  0.00  0.00    +0.000 C 
ATOM     27  C   UNL     1      -0.908  10.161  19.095  0.00  0.00    +0.000 C 
ATOM     28  C   UNL     1      -0.296   9.629  20.387  0.00  0.00    +0.000 C 
ATOM     29  C   UNL     1       1.229   9.790  20.406  0.00  0.00    +0.000 C 
ENDBRANCH  22  24
ENDBRANCH  19  20
ENDBRANCH   3  19
TORSDOF 7
ENDMDL
MODEL 6
REMARK VINA RESULT:      -8.2      4.899      7.528
REMARK  Name = 
REMARK  8 active torsions:
REMARK  status: ('A' for Active; 'I' for Inactive)
REMARK    1  A    between atoms: C_1  and  C_2
REMARK    2  A    between atoms: C_2  and  O_3
REMARK    3  A    between atoms: C_2  and  C_4
REMARK    4  A    between atoms: C_8  and  C_9
REMARK    5  A    between atoms: C_11  and  O_12
REMARK    6  A    between atoms: O_12  and  C_13
REMARK    7  A    between atoms: N_15  and  C_16
REMARK    8  A    between atoms: C_24  and  O_25
REMARK                            x       y       z     vdW  Elec       q    Type
REMARK                         _______ _______ _______ _____ _____    ______ ____
ROOT
ATOM      1  C   UNL     1       1.840   8.269  19.161  0.00  0.00    +0.000 A 
ATOM      2  C   UNL     1       1.442   9.426  18.449  0.00  0.00    +0.000 A 
ATOM      3  C   UNL     1       0.709  10.454  19.055  0.00  0.00    +0.000 A 
ATOM      4  C   UNL     1       0.362  10.372  20.399  0.00  0.00    +0.000 A 
ATOM      5  C   UNL     1       0.731   9.248  21.132  0.00  0.00    +0.000 A 
ATOM      6  C   UNL     1       1.471   8.226  20.527  0.00  0.00    +0.000 A 
ENDROOT
BRANCH   1  11
ATOM      7  C   UNL     1       2.901   4.770  17.985  0.00  0.00    +0.000 A 
ATOM      8  C   UNL     1       4.001   5.082  17.181  0.00  0.00    +0.000 A 
ATOM      9  C   UNL     1       4.392   6.407  17.024  0.00  0.00    +0.000 A 
ATOM     10  C   UNL     1       3.699   7.428  17.669  0.00  0.00    +0.000 A 
ATOM     11  C   UNL     1       2.568   7.171  18.469  0.00  0.00    +0.000 A 
ATOM     12  C   UNL     1       2.191   5.817  18.604  0.00  0.00    +0.000 A 
BRANCH   7  14
ATOM     13  C   UNL     1       1.127   3.234  18.936  0.00  0.00    +0.000 C 
ATOM     14  C   UNL     1       2.465   3.334  18.211  0.00  0.00    +0.000 C 
BRANCH  14  15
ATOM     15  O   UNL     1       2.354   2.631  16.972  0.00  0.00    +0.000 OA
ATOM     16  H   UNL     1       2.440   1.682  17.159  0.00  0.00    +0.000 HD
ENDBRANCH  14  15
ENDBRANCH   7  14
ENDBRANCH   1  11
BRANCH   6  17
ATOM     17  O   UNL     1       1.859   7.173  21.316  0.00  0.00    +0.000 OA
ATOM     18  H   UNL     1       1.458   7.266  22.195  0.00  0.00    +0.000 HD
ENDBRANCH   6  17
BRANCH   3  19
ATOM     19  O   UNL     1       0.401  11.553  18.216  0.00  0.00    +0.000 OA
BRANCH  19  20
ATOM     20  C   UNL     1      -0.536  12.538  18.525  0.00  0.00    +0.000 C 
ATOM     21  O   UNL     1      -0.328  13.548  19.208  0.00  0.00    +0.000 OA
ATOM     22  N   UNL     1      -1.749  12.323  17.971  0.00  0.00    +0.000 N 
ATOM     23  H   UNL     1      -2.339  13.150  18.033  0.00  0.00    +0.000 HD
BRANCH  22  24
ATOM     24  C   UNL     1      -2.418  11.028  18.009  0.00  0.00    +0.000 C 
ATOM     25  C   UNL     1      -3.949  11.167  18.140  0.00  0.00    +0.000 C 
ATOM     26  C   UNL     1      -4.627  11.664  16.862  0.00  0.00    +0.000 C 
ATOM     27  C   UNL     1      -4.256  10.802  15.661  0.00  0.00    +0.000 C 
ATOM     28  C   UNL     1      -2.743  10.706  15.492  0.00  0.00    +0.000 C 
ATOM     29  C   UNL     1      -2.056  10.204  16.768  0.00  0.00    +0.000 C 
ENDBRANCH  22  24
ENDBRANCH  19  20
ENDBRANCH   3  19
TORSDOF 7
ENDMDL
MODEL 7
REMARK VINA RESULT:      -8.1      2.931      7.874
REMARK  Name = 
REMARK  8 active torsions:
REMARK  status: ('A' for Active; 'I' for Inactive)
REMARK    1  A    between atoms: C_1  and  C_2
REMARK    2  A    between atoms: C_2  and  O_3
REMARK    3  A    between atoms: C_2  and  C_4
REMARK    4  A    between atoms: C_8  and  C_9
REMARK    5  A    between atoms: C_11  and  O_12
REMARK    6  A    between atoms: O_12  and  C_13
REMARK    7  A    between atoms: N_15  and  C_16
REMARK    8  A    between atoms: C_24  and  O_25
REMARK                            x       y       z     vdW  Elec       q    Type
REMARK                         _______ _______ _______ _____ _____    ______ ____
ROOT
ATOM      1  C   UNL     1       2.499   5.372  19.853  0.00  0.00    +0.000 A 
ATOM      2  C   UNL     1       3.842   5.000  19.606  0.00  0.00    +0.000 A 
ATOM      3  C   UNL     1       4.288   3.682  19.770  0.00  0.00    +0.000 A 
ATOM      4  C   UNL     1       3.405   2.685  20.168  0.00  0.00    +0.000 A 
ATOM      5  C   UNL     1       2.077   3.012  20.424  0.00  0.00    +0.000 A 
ATOM      6  C   UNL     1       1.631   4.328  20.252  0.00  0.00    +0.000 A 
ENDROOT
BRANCH   1  11
ATOM      7  C   UNL     1       1.186   8.879  20.710  0.00  0.00    +0.000 A 
ATOM      8  C   UNL     1       1.219   9.490  19.452  0.00  0.00    +0.000 A 
ATOM      9  C   UNL     1       1.660   8.774  18.345  0.00  0.00    +0.000 A 
ATOM     10  C   UNL     1       2.063   7.447  18.477  0.00  0.00    +0.000 A 
ATOM     11  C   UNL     1       2.074   6.792  19.725  0.00  0.00    +0.000 A 
ATOM     12  C   UNL     1       1.628   7.547  20.831  0.00  0.00    +0.000 A 
BRANCH   7  14
ATOM     13  C   UNL     1      -0.614   9.017  22.484  0.00  0.00    +0.000 C 
ATOM     14  C   UNL     1       0.678   9.614  21.936  0.00  0.00    +0.000 C 
BRANCH  14  15
ATOM     15  O   UNL     1       1.652   9.602  22.981  0.00  0.00    +0.000 OA
ATOM     16  H   UNL     1       1.226   9.258  23.782  0.00  0.00    +0.000 HD
ENDBRANCH  14  15
ENDBRANCH   7  14
ENDBRANCH   1  11
BRANCH   6  17
ATOM     17  O   UNL     1       0.298   4.577  20.460  0.00  0.00    +0.000 OA
ATOM     18  H   UNL     1      -0.204   3.754  20.347  0.00  0.00    +0.000 HD
ENDBRANCH   6  17
BRANCH   3  19
ATOM     19  O   UNL     1       5.655   3.465  19.467  0.00  0.00    +0.000 OA
BRANCH  19  20
ATOM     20  C   UNL     1       6.493   4.423  18.898  0.00  0.00    +0.000 C 
ATOM     21  O   UNL     1       7.048   5.350  19.499  0.00  0.00    +0.000 OA
ATOM     22  N   UNL     1       6.701   4.243  17.575  0.00  0.00    +0.000 N 
ATOM     23  H   UNL     1       7.471   4.815  17.238  0.00  0.00    +0.000 HD
BRANCH  22  24
ATOM     24  C   UNL     1       5.621   3.965  16.636  0.00  0.00    +0.000 C 
ATOM     25  C   UNL     1       4.609   5.126  16.551  0.00  0.00    +0.000 C 
ATOM     26  C   UNL     1       5.152   6.354  15.818  0.00  0.00    +0.000 C 
ATOM     27  C   UNL     1       5.685   5.991  14.437  0.00  0.00    +0.000 C 
ATOM     28  C   UNL     1       6.727   4.880  14.519  0.00  0.00    +0.000 C 
ATOM     29  C   UNL     1       6.190   3.643  15.249  0.00  0.00    +0.000 C 
ENDBRANCH  22  24
ENDBRANCH  19  20
ENDBRANCH   3  19
TORSDOF 7
ENDMDL
MODEL 8
REMARK VINA RESULT:      -8.1      3.417      5.839
REMARK  Name = 
REMARK  8 active torsions:
REMARK  status: ('A' for Active; 'I' for Inactive)
REMARK    1  A    between atoms: C_1  and  C_2
REMARK    2  A    between atoms: C_2  and  O_3
REMARK    3  A    between atoms: C_2  and  C_4
REMARK    4  A    between atoms: C_8  and  C_9
REMARK    5  A    between atoms: C_11  and  O_12
REMARK    6  A    between atoms: O_12  and  C_13
REMARK    7  A    between atoms: N_15  and  C_16
REMARK    8  A    between atoms: C_24  and  O_25
REMARK                            x       y       z     vdW  Elec       q    Type
REMARK                         _______ _______ _______ _____ _____    ______ ____
ROOT
ATOM      1  C   UNL     1       4.012   5.495  19.194  0.00  0.00    +0.000 A 
ATOM      2  C   UNL     1       3.437   6.787  19.160  0.00  0.00    +0.000 A 
ATOM      3  C   UNL     1       2.181   7.055  19.720  0.00  0.00    +0.000 A 
ATOM      4  C   UNL     1       1.463   6.046  20.351  0.00  0.00    +0.000 A 
ATOM      5  C   UNL     1       1.994   4.761  20.403  0.00  0.00    +0.000 A 
ATOM      6  C   UNL     1       3.252   4.497  19.850  0.00  0.00    +0.000 A 
ENDROOT
BRANCH   1  11
ATOM      7  C   UNL     1       6.662   4.668  16.539  0.00  0.00    +0.000 A 
ATOM      8  C   UNL     1       7.828   4.690  17.311  0.00  0.00    +0.000 A 
ATOM      9  C   UNL     1       7.754   4.969  18.672  0.00  0.00    +0.000 A 
ATOM     10  C   UNL     1       6.524   5.219  19.274  0.00  0.00    +0.000 A 
ATOM     11  C   UNL     1       5.322   5.235  18.538  0.00  0.00    +0.000 A 
ATOM     12  C   UNL     1       5.430   4.956  17.159  0.00  0.00    +0.000 A 
BRANCH   7  14
ATOM     13  C   UNL     1       5.313   4.359  14.420  0.00  0.00    +0.000 C 
ATOM     14  C   UNL     1       6.696   4.333  15.060  0.00  0.00    +0.000 C 
BRANCH  14  15
ATOM     15  O   UNL     1       7.534   5.245  14.347  0.00  0.00    +0.000 OA
ATOM     16  H   UNL     1       7.604   6.058  14.873  0.00  0.00    +0.000 HD
ENDBRANCH  14  15
ENDBRANCH   7  14
ENDBRANCH   1  11
BRANCH   6  17
ATOM     17  O   UNL     1       3.750   3.225  19.986  0.00  0.00    +0.000 OA
ATOM     18  H   UNL     1       4.712   3.268  20.109  0.00  0.00    +0.000 HD
ENDBRANCH   6  17
BRANCH   3  19
ATOM     19  O   UNL     1       1.749   8.400  19.619  0.00  0.00    +0.000 OA
BRANCH  19  20
ATOM     20  C   UNL     1       1.508   9.059  18.414  0.00  0.00    +0.000 C 
ATOM     21  O   UNL     1       2.231   9.023  17.411  0.00  0.00    +0.000 OA
ATOM     22  N   UNL     1       0.350   9.754  18.399  0.00  0.00    +0.000 N 
ATOM     23  H   UNL     1       0.099  10.040  17.456  0.00  0.00    +0.000 HD
BRANCH  22  24
ATOM     24  C   UNL     1      -0.061  10.631  19.488  0.00  0.00    +0.000 C 
ATOM     25  C   UNL     1       0.964  11.755  19.748  0.00  0.00    +0.000 C 
ATOM     26  C   UNL     1       0.971  12.834  18.664  0.00  0.00    +0.000 C 
ATOM     27  C   UNL     1      -0.422  13.406  18.433  0.00  0.00    +0.000 C 
ATOM     28  C   UNL     1      -1.430  12.303  18.121  0.00  0.00    +0.000 C 
ATOM     29  C   UNL     1      -1.448  11.220  19.206  0.00  0.00    +0.000 C 
ENDBRANCH  22  24
ENDBRANCH  19  20
ENDBRANCH   3  19
TORSDOF 7
ENDMDL
MODEL 9
REMARK VINA RESULT:      -8.1      4.493      7.526
REMARK  Name = 
REMARK  8 active torsions:
REMARK  status: ('A' for Active; 'I' for Inactive)
REMARK    1  A    between atoms: C_1  and  C_2
REMARK    2  A    between atoms: C_2  and  O_3
REMARK    3  A    between atoms: C_2  and  C_4
REMARK    4  A    between atoms: C_8  and  C_9
REMARK    5  A    between atoms: C_11  and  O_12
REMARK    6  A    between atoms: O_12  and  C_13
REMARK    7  A    between atoms: N_15  and  C_16
REMARK    8  A    between atoms: C_24  and  O_25
REMARK                            x       y       z     vdW  Elec       q    Type
REMARK                         _______ _______ _______ _____ _____    ______ ____
ROOT
ATOM      1  C   UNL     1       2.521   6.915  19.083  0.00  0.00    +0.000 A 
ATOM      2  C   UNL     1       2.244   8.165  18.481  0.00  0.00    +0.000 A 
ATOM      3  C   UNL     1       1.498   9.154  19.135  0.00  0.00    +0.000 A 
ATOM      4  C   UNL     1       1.017   8.936  20.421  0.00  0.00    +0.000 A 
ATOM      5  C   UNL     1       1.265   7.717  21.046  0.00  0.00    +0.000 A 
ATOM      6  C   UNL     1       2.018   6.734  20.394  0.00  0.00    +0.000 A 
ENDROOT
BRANCH   1  11
ATOM      7  C   UNL     1       5.365   4.982  17.370  0.00  0.00    +0.000 A 
ATOM      8  C   UNL     1       4.670   3.880  16.864  0.00  0.00    +0.000 A 
ATOM      9  C   UNL     1       3.300   3.766  17.076  0.00  0.00    +0.000 A 
ATOM     10  C   UNL     1       2.612   4.749  17.783  0.00  0.00    +0.000 A 
ATOM     11  C   UNL     1       3.268   5.867  18.336  0.00  0.00    +0.000 A 
ATOM     12  C   UNL     1       4.659   5.950  18.111  0.00  0.00    +0.000 A 
BRANCH   7  14
ATOM     13  C   UNL     1       7.337   6.566  17.471  0.00  0.00    +0.000 C 
ATOM     14  C   UNL     1       6.852   5.162  17.130  0.00  0.00    +0.000 C 
BRANCH  14  15
ATOM     15  O   UNL     1       7.611   4.229  17.901  0.00  0.00    +0.000 OA
ATOM     16  H   UNL     1       8.051   4.720  18.614  0.00  0.00    +0.000 HD
ENDBRANCH  14  15
ENDBRANCH   7  14
ENDBRANCH   1  11
BRANCH   6  17
ATOM     17  O   UNL     1       2.282   5.578  21.084  0.00  0.00    +0.000 OA
ATOM     18  H   UNL     1       1.475   5.041  21.131  0.00  0.00    +0.000 HD
ENDBRANCH   6  17
BRANCH   3  19
ATOM     19  O   UNL     1       1.321  10.357  18.409  0.00  0.00    +0.000 OA
BRANCH  19  20
ATOM     20  C   UNL     1       0.363  11.324  18.714  0.00  0.00    +0.000 C 
ATOM     21  O   UNL     1      -0.806  11.339  18.310  0.00  0.00    +0.000 OA
ATOM     22  N   UNL     1       0.811  12.282  19.554  0.00  0.00    +0.000 N 
ATOM     23  H   UNL     1       0.045  12.841  19.923  0.00  0.00    +0.000 HD
BRANCH  22  24
ATOM     24  C   UNL     1       2.095  12.950  19.380  0.00  0.00    +0.000 C 
ATOM     25  C   UNL     1       2.022  14.094  18.347  0.00  0.00    +0.000 C 
ATOM     26  C   UNL     1       1.265  15.323  18.853  0.00  0.00    +0.000 C 
ATOM     27  C   UNL     1       1.828  15.819  20.180  0.00  0.00    +0.000 C 
ATOM     28  C   UNL     1       1.851  14.706  21.224  0.00  0.00    +0.000 C 
ATOM     29  C   UNL     1       2.612  13.471  20.726  0.00  0.00    +0.000 C 
ENDBRANCH  22  24
ENDBRANCH  19  20
ENDBRANCH   3  19
TORSDOF 7
ENDMDL
