MODEL 1
REMARK VINA RESULT:      -6.8      0.000      0.000
REMARK  Name = 
REMARK  8 active torsions:
REMARK  status: ('A' for Active; 'I' for Inactive)
REMARK    1  A    between atoms: C_1  and  C_2
REMARK    2  A    between atoms: N_4  and  C_5
REMARK    3  A    between atoms: C_6  and  C_7
REMARK    4  A    between atoms: C_7  and  O_8
REMARK    5  A    between atoms: C_7  and  C_9
REMARK    6  A    between atoms: C_9  and  O_10
REMARK    7  A    between atoms: C_9  and  C_11
REMARK    8  A    between atoms: C_11  and  O_12
REMARK                            x       y       z     vdW  Elec       q    Type
REMARK                         _______ _______ _______ _____ _____    ______ ____
ROOT
ATOM      1  C   UNL     1       4.586   4.531  17.234  0.00  0.00    +0.000 C 
ATOM      2  C   UNL     1       3.533   3.697  17.209  0.00  0.00    +0.000 C 
ENDROOT
BRANCH   1   6
ATOM      3  C   UNL     1       6.186   3.575  12.714  0.00  0.00    +0.000 C 
ATOM      4  C   UNL     1       6.308   4.253  14.040  0.00  0.00    +0.000 A 
ATOM      5  C   UNL     1       5.475   4.039  15.064  0.00  0.00    +0.000 A 
ATOM      6  N   UNL     1       5.568   4.722  16.265  0.00  0.00    +0.000 N 
ATOM      7  C   UNL     1       6.595   5.652  16.486  0.00  0.00    +0.000 A 
ATOM      8  O   UNL     1       6.726   6.329  17.507  0.00  0.00    +0.000 OA
ATOM      9  N   UNL     1       7.490   5.800  15.457  0.00  0.00    +0.000 N 
ATOM     10  C   UNL     1       7.395   5.235  14.219  0.00  0.00    +0.000 A 
ATOM     11  O   UNL     1       8.156   5.535  13.306  0.00  0.00    +0.000 OA
ATOM     12  H   UNL     1       8.212   6.491  15.591  0.00  0.00    +0.000 HD
ENDBRANCH   1   6
BRANCH   2  13
ATOM     13  C   UNL     1       2.465   3.580  18.272  0.00  0.00    +0.000 C 
BRANCH  13  14
ATOM     14  O   UNL     1       1.172   3.557  17.678  0.00  0.00    +0.000 OA
ATOM     15  H   UNL     1       0.645   2.878  18.137  0.00  0.00    +0.000 HD
ENDBRANCH  13  14
BRANCH  13  16
ATOM     16  C   UNL     1       2.674   2.318  19.146  0.00  0.00    +0.000 C 
BRANCH  16  17
ATOM     17  O   UNL     1       3.105   1.213  18.333  0.00  0.00    +0.000 OA
ATOM     18  H   UNL     1       3.122   0.418  18.897  0.00  0.00    +0.000 HD
ENDBRANCH  16  17
BRANCH  16  19
ATOM     19  C   UNL     1       3.697   2.572  20.266  0.00  0.00    +0.000 C 
BRANCH  19  20
ATOM     20  O   UNL     1       4.971   2.022  19.931  0.00  0.00    +0.000 OA
ATOM     21  H   UNL     1       5.573   2.181  20.680  0.00  0.00    +0.000 HD
ENDBRANCH  19  20
ENDBRANCH  16  19
ENDBRANCH  13  16
ENDBRANCH   2  13
TORSDOF 7
ENDMDL
MODEL 2
REMARK VINA RESULT:      -6.6      1.644      1.908
REMARK  Name = 
REMARK  8 active torsions:
REMARK  status: ('A' for Active; 'I' for Inactive)
REMARK    1  A    between atoms: C_1  and  C_2
REMARK    2  A    between atoms: N_4  and  C_5
REMARK    3  A    between atoms: C_6  and  C_7
REMARK    4  A    between atoms: C_7  and  O_8
REMARK    5  A    between atoms: C_7  and  C_9
REMARK    6  A    between atoms: C_9  and  O_10
REMARK    7  A    between atoms: C_9  and  C_11
REMARK    8  A    between atoms: C_11  and  O_12
REMARK                            x       y       z     vdW  Elec       q    Type
REMARK                         _______ _______ _______ _____ _____    ______ ____
ROOT
ATOM      1  C   UNL     1       3.998   3.937  17.962  0.00  0.00    +0.000 C 
ATOM      2  C   UNL     1       2.994   3.070  17.753  0.00  0.00    +0.000 C 
ENDROOT
BRANCH   1   6
ATOM      3  C   UNL     1       5.900   3.822  13.459  0.00  0.00    +0.000 C 
ATOM      4  C   UNL     1       5.954   4.200  14.904  0.00  0.00    +0.000 A 
ATOM      5  C   UNL     1       5.030   3.841  15.801  0.00  0.00    +0.000 A 
ATOM      6  N   UNL     1       5.066   4.251  17.123  0.00  0.00    +0.000 N 
ATOM      7  C   UNL     1       6.124   5.037  17.604  0.00  0.00    +0.000 A 
ATOM      8  O   UNL     1       6.211   5.477  18.751  0.00  0.00    +0.000 OA
ATOM      9  N   UNL     1       7.106   5.328  16.692  0.00  0.00    +0.000 N 
ATOM     10  C   UNL     1       7.078   5.041  15.358  0.00  0.00    +0.000 A 
ATOM     11  O   UNL     1       7.927   5.466  14.583  0.00  0.00    +0.000 OA
ATOM     12  H   UNL     1       7.854   5.921  17.017  0.00  0.00    +0.000 HD
ENDBRANCH   1   6
BRANCH   2  13
ATOM     13  C   UNL     1       1.829   2.817  18.682  0.00  0.00    +0.000 C 
BRANCH  13  14
ATOM     14  O   UNL     1       1.735   1.433  18.996  0.00  0.00    +0.000 OA
ATOM     15  H   UNL     1       0.825   1.257  19.296  0.00  0.00    +0.000 HD
ENDBRANCH  13  14
BRANCH  13  16
ATOM     16  C   UNL     1       1.952   3.654  19.981  0.00  0.00    +0.000 C 
BRANCH  16  17
ATOM     17  O   UNL     1       0.654   4.100  20.411  0.00  0.00    +0.000 OA
ATOM     18  H   UNL     1      -0.002   3.765  19.774  0.00  0.00    +0.000 HD
ENDBRANCH  16  17
BRANCH  16  19
ATOM     19  C   UNL     1       2.629   2.853  21.105  0.00  0.00    +0.000 C 
BRANCH  19  20
ATOM     20  O   UNL     1       1.663   2.340  22.022  0.00  0.00    +0.000 OA
ATOM     21  H   UNL     1       2.105   1.683  22.588  0.00  0.00    +0.000 HD
ENDBRANCH  19  20
ENDBRANCH  16  19
ENDBRANCH  13  16
ENDBRANCH   2  13
TORSDOF 7
ENDMDL
MODEL 3
REMARK VINA RESULT:      -6.6      0.911      1.267
REMARK  Name = 
REMARK  8 active torsions:
REMARK  status: ('A' for Active; 'I' for Inactive)
REMARK    1  A    between atoms: C_1  and  C_2
REMARK    2  A    between atoms: N_4  and  C_5
REMARK    3  A    between atoms: C_6  and  C_7
REMARK    4  A    between atoms: C_7  and  O_8
REMARK    5  A    between atoms: C_7  and  C_9
REMARK    6  A    between atoms: C_9  and  O_10
REMARK    7  A    between atoms: C_9  and  C_11
REMARK    8  A    between atoms: C_11  and  O_12
REMARK                            x       y       z     vdW  Elec       q    Type
REMARK                         _______ _______ _______ _____ _____    ______ ____
ROOT
ATOM      1  C   UNL     1       4.138   4.851  16.994  0.00  0.00    +0.000 C 
ATOM      2  C   UNL     1       3.342   3.790  17.210  0.00  0.00    +0.000 C 
ENDROOT
BRANCH   1   6
ATOM      3  C   UNL     1       6.298   3.650  12.775  0.00  0.00    +0.000 C 
ATOM      4  C   UNL     1       6.278   4.357  14.091  0.00  0.00    +0.000 A 
ATOM      5  C   UNL     1       5.292   4.233  14.987  0.00  0.00    +0.000 A 
ATOM      6  N   UNL     1       5.262   4.943  16.174  0.00  0.00    +0.000 N 
ATOM      7  C   UNL     1       6.311   5.807  16.524  0.00  0.00    +0.000 A 
ATOM      8  O   UNL     1       6.343   6.504  17.539  0.00  0.00    +0.000 OA
ATOM      9  N   UNL     1       7.353   5.861  15.634  0.00  0.00    +0.000 N 
ATOM     10  C   UNL     1       7.396   5.267  14.406  0.00  0.00    +0.000 A 
ATOM     11  O   UNL     1       8.300   5.485  13.608  0.00  0.00    +0.000 OA
ATOM     12  H   UNL     1       8.097   6.504  15.857  0.00  0.00    +0.000 HD
ENDBRANCH   1   6
BRANCH   2  13
ATOM     13  C   UNL     1       2.099   3.772  18.069  0.00  0.00    +0.000 C 
BRANCH  13  14
ATOM     14  O   UNL     1       0.967   4.189  17.315  0.00  0.00    +0.000 OA
ATOM     15  H   UNL     1       0.956   3.678  16.486  0.00  0.00    +0.000 HD
ENDBRANCH  13  14
BRANCH  13  16
ATOM     16  C   UNL     1       1.851   2.367  18.674  0.00  0.00    +0.000 C 
BRANCH  16  17
ATOM     17  O   UNL     1       2.888   1.458  18.266  0.00  0.00    +0.000 OA
ATOM     18  H   UNL     1       2.772   0.631  18.768  0.00  0.00    +0.000 HD
ENDBRANCH  16  17
BRANCH  16  19
ATOM     19  C   UNL     1       1.774   2.420  20.208  0.00  0.00    +0.000 C 
BRANCH  19  20
ATOM     20  O   UNL     1       0.637   3.167  20.639  0.00  0.00    +0.000 OA
ATOM     21  H   UNL     1       0.460   3.855  19.973  0.00  0.00    +0.000 HD
ENDBRANCH  19  20
ENDBRANCH  16  19
ENDBRANCH  13  16
ENDBRANCH   2  13
TORSDOF 7
ENDMDL
MODEL 4
REMARK VINA RESULT:      -6.6      2.063      2.492
REMARK  Name = 
REMARK  8 active torsions:
REMARK  status: ('A' for Active; 'I' for Inactive)
REMARK    1  A    between atoms: C_1  and  C_2
REMARK    2  A    between atoms: N_4  and  C_5
REMARK    3  A    between atoms: C_6  and  C_7
REMARK    4  A    between atoms: C_7  and  O_8
REMARK    5  A    between atoms: C_7  and  C_9
REMARK    6  A    between atoms: C_9  and  O_10
REMARK    7  A    between atoms: C_9  and  C_11
REMARK    8  A    between atoms: C_11  and  O_12
REMARK                            x       y       z     vdW  Elec       q    Type
REMARK                         _______ _______ _______ _____ _____    ______ ____
ROOT
ATOM      1  C   UNL     1       3.623   3.380  18.171  0.00  0.00    +0.000 C 
ATOM      2  C   UNL     1       2.324   3.723  18.155  0.00  0.00    +0.000 C 
ENDROOT
BRANCH   1   6
ATOM      3  C   UNL     1       6.504   4.349  14.341  0.00  0.00    +0.000 C 
ATOM      4  C   UNL     1       6.087   4.550  15.762  0.00  0.00    +0.000 A 
ATOM      5  C   UNL     1       5.127   3.839  16.363  0.00  0.00    +0.000 A 
ATOM      6  N   UNL     1       4.714   4.081  17.662  0.00  0.00    +0.000 N 
ATOM      7  C   UNL     1       5.331   5.072  18.441  0.00  0.00    +0.000 A 
ATOM      8  O   UNL     1       4.998   5.378  19.587  0.00  0.00    +0.000 OA
ATOM      9  N   UNL     1       6.369   5.737  17.838  0.00  0.00    +0.000 N 
ATOM     10  C   UNL     1       6.755   5.615  16.535  0.00  0.00    +0.000 A 
ATOM     11  O   UNL     1       7.595   6.353  16.033  0.00  0.00    +0.000 OA
ATOM     12  H   UNL     1       6.797   6.474  18.375  0.00  0.00    +0.000 HD
ENDBRANCH   1   6
BRANCH   2  13
ATOM     13  C   UNL     1       1.190   2.942  18.780  0.00  0.00    +0.000 C 
BRANCH  13  14
ATOM     14  O   UNL     1       1.514   1.558  18.839  0.00  0.00    +0.000 OA
ATOM     15  H   UNL     1       1.124   1.127  18.058  0.00  0.00    +0.000 HD
ENDBRANCH  13  14
BRANCH  13  16
ATOM     16  C   UNL     1       0.851   3.473  20.196  0.00  0.00    +0.000 C 
BRANCH  16  17
ATOM     17  O   UNL     1       1.360   2.578  21.200  0.00  0.00    +0.000 OA
ATOM     18  H   UNL     1       1.037   1.683  20.991  0.00  0.00    +0.000 HD
ENDBRANCH  16  17
BRANCH  16  19
ATOM     19  C   UNL     1       1.418   4.885  20.418  0.00  0.00    +0.000 C 
BRANCH  19  20
ATOM     20  O   UNL     1       2.492   4.863  21.358  0.00  0.00    +0.000 OA
ATOM     21  H   UNL     1       2.278   5.489  22.073  0.00  0.00    +0.000 HD
ENDBRANCH  19  20
ENDBRANCH  16  19
ENDBRANCH  13  16
ENDBRANCH   2  13
TORSDOF 7
ENDMDL
MODEL 5
REMARK VINA RESULT:      -6.6      1.959      2.402
REMARK  Name = 
REMARK  8 active torsions:
REMARK  status: ('A' for Active; 'I' for Inactive)
REMARK    1  A    between atoms: C_1  and  C_2
REMARK    2  A    between atoms: N_4  and  C_5
REMARK    3  A    between atoms: C_6  and  C_7
REMARK    4  A    between atoms: C_7  and  O_8
REMARK    5  A    between atoms: C_7  and  C_9
REMARK    6  A    between atoms: C_9  and  O_10
REMARK    7  A    between atoms: C_9  and  C_11
REMARK    8  A    between atoms: C_11  and  O_12
REMARK                            x       y       z     vdW  Elec       q    Type
REMARK                         _______ _______ _______ _____ _____    ______ ____
ROOT
ATOM      1  C   UNL     1       4.661   3.935  18.921  0.00  0.00    +0.000 C 
ATOM      2  C   UNL     1       3.536   4.577  19.277  0.00  0.00    +0.000 C 
ENDROOT
BRANCH   1   6
ATOM      3  C   UNL     1       5.387   4.122  14.089  0.00  0.00    +0.000 C 
ATOM      4  C   UNL     1       5.840   4.322  15.499  0.00  0.00    +0.000 A 
ATOM      5  C   UNL     1       5.118   3.970  16.569  0.00  0.00    +0.000 A 
ATOM      6  N   UNL     1       5.528   4.218  17.867  0.00  0.00    +0.000 N 
ATOM      7  C   UNL     1       6.770   4.817  18.128  0.00  0.00    +0.000 A 
ATOM      8  O   UNL     1       7.191   5.109  19.248  0.00  0.00    +0.000 OA
ATOM      9  N   UNL     1       7.534   5.097  17.024  0.00  0.00    +0.000 N 
ATOM     10  C   UNL     1       7.146   4.970  15.722  0.00  0.00    +0.000 A 
ATOM     11  O   UNL     1       7.834   5.382  14.795  0.00  0.00    +0.000 OA
ATOM     12  H   UNL     1       8.413   5.559  17.197  0.00  0.00    +0.000 HD
ENDBRANCH   1   6
BRANCH   2  13
ATOM     13  C   UNL     1       2.667   4.253  20.472  0.00  0.00    +0.000 C 
BRANCH  13  14
ATOM     14  O   UNL     1       1.830   5.357  20.791  0.00  0.00    +0.000 OA
ATOM     15  H   UNL     1       1.004   5.261  20.284  0.00  0.00    +0.000 HD
ENDBRANCH  13  14
BRANCH  13  16
ATOM     16  C   UNL     1       1.811   2.986  20.220  0.00  0.00    +0.000 C 
BRANCH  16  17
ATOM     17  O   UNL     1       0.827   2.835  21.258  0.00  0.00    +0.000 OA
ATOM     18  H   UNL     1      -0.049   2.799  20.833  0.00  0.00    +0.000 HD
ENDBRANCH  16  17
BRANCH  16  19
ATOM     19  C   UNL     1       1.120   3.037  18.848  0.00  0.00    +0.000 C 
BRANCH  19  20
ATOM     20  O   UNL     1       1.204   1.775  18.185  0.00  0.00    +0.000 OA
ATOM     21  H   UNL     1       2.022   1.337  18.477  0.00  0.00    +0.000 HD
ENDBRANCH  19  20
ENDBRANCH  16  19
ENDBRANCH  13  16
ENDBRANCH   2  13
TORSDOF 7
ENDMDL
MODEL 6
REMARK VINA RESULT:      -6.6      1.008      1.282
REMARK  Name = 
REMARK  8 active torsions:
REMARK  status: ('A' for Active; 'I' for Inactive)
REMARK    1  A    between atoms: C_1  and  C_2
REMARK    2  A    between atoms: N_4  and  C_5
REMARK    3  A    between atoms: C_6  and  C_7
REMARK    4  A    between atoms: C_7  and  O_8
REMARK    5  A    between atoms: C_7  and  C_9
REMARK    6  A    between atoms: C_9  and  O_10
REMARK    7  A    between atoms: C_9  and  C_11
REMARK    8  A    between atoms: C_11  and  O_12
REMARK                            x       y       z     vdW  Elec       q    Type
REMARK                         _______ _______ _______ _____ _____    ______ ____
ROOT
ATOM      1  C   UNL     1       4.516   4.198  17.076  0.00  0.00    +0.000 C 
ATOM      2  C   UNL     1       4.080   2.993  17.483  0.00  0.00    +0.000 C 
ENDROOT
BRANCH   1   6
ATOM      3  C   UNL     1       6.323   3.599  12.571  0.00  0.00    +0.000 C 
ATOM      4  C   UNL     1       6.364   4.198  13.940  0.00  0.00    +0.000 A 
ATOM      5  C   UNL     1       5.506   3.883  14.916  0.00  0.00    +0.000 A 
ATOM      6  N   UNL     1       5.523   4.494  16.158  0.00  0.00    +0.000 N 
ATOM      7  C   UNL     1       6.493   5.456  16.474  0.00  0.00    +0.000 A 
ATOM      8  O   UNL     1       6.554   6.075  17.538  0.00  0.00    +0.000 OA
ATOM      9  N   UNL     1       7.416   5.709  15.491  0.00  0.00    +0.000 N 
ATOM     10  C   UNL     1       7.393   5.218  14.218  0.00  0.00    +0.000 A 
ATOM     11  O   UNL     1       8.170   5.610  13.355  0.00  0.00    +0.000 OA
ATOM     12  H   UNL     1       8.097   6.424  15.694  0.00  0.00    +0.000 HD
ENDBRANCH   1   6
BRANCH   2  13
ATOM     13  C   UNL     1       2.940   2.739  18.442  0.00  0.00    +0.000 C 
BRANCH  13  14
ATOM     14  O   UNL     1       2.085   1.720  17.937  0.00  0.00    +0.000 OA
ATOM     15  H   UNL     1       2.584   0.883  17.941  0.00  0.00    +0.000 HD
ENDBRANCH  13  14
BRANCH  13  16
ATOM     16  C   UNL     1       3.461   2.352  19.849  0.00  0.00    +0.000 C 
BRANCH  16  17
ATOM     17  O   UNL     1       4.898   2.384  19.876  0.00  0.00    +0.000 OA
ATOM     18  H   UNL     1       5.216   1.463  19.844  0.00  0.00    +0.000 HD
ENDBRANCH  16  17
BRANCH  16  19
ATOM     19  C   UNL     1       2.897   3.284  20.934  0.00  0.00    +0.000 C 
BRANCH  19  20
ATOM     20  O   UNL     1       2.282   2.537  21.983  0.00  0.00    +0.000 OA
ATOM     21  H   UNL     1       1.796   3.160  22.551  0.00  0.00    +0.000 HD
ENDBRANCH  19  20
ENDBRANCH  16  19
ENDBRANCH  13  16
ENDBRANCH   2  13
TORSDOF 7
ENDMDL
MODEL 7
REMARK VINA RESULT:      -6.6      2.170      2.467
REMARK  Name = 
REMARK  8 active torsions:
REMARK  status: ('A' for Active; 'I' for Inactive)
REMARK    1  A    between atoms: C_1  and  C_2
REMARK    2  A    between atoms: N_4  and  C_5
REMARK    3  A    between atoms: C_6  and  C_7
REMARK    4  A    between atoms: C_7  and  O_8
REMARK    5  A    between atoms: C_7  and  C_9
REMARK    6  A    between atoms: C_9  and  O_10
REMARK    7  A    between atoms: C_9  and  C_11
REMARK    8  A    between atoms: C_11  and  O_12
REMARK                            x       y       z     vdW  Elec       q    Type
REMARK                         _______ _______ _______ _____ _____    ______ ____
ROOT
ATOM      1  C   UNL     1       4.512   4.487  19.164  0.00  0.00    +0.000 C 
ATOM      2  C   UNL     1       3.379   5.174  19.386  0.00  0.00    +0.000 C 
ENDROOT
BRANCH   1   6
ATOM      3  C   UNL     1       5.199   4.286  14.327  0.00  0.00    +0.000 C 
ATOM      4  C   UNL     1       5.691   4.508  15.721  0.00  0.00    +0.000 A 
ATOM      5  C   UNL     1       4.942   4.320  16.813  0.00  0.00    +0.000 A 
ATOM      6  N   UNL     1       5.396   4.590  18.092  0.00  0.00    +0.000 N 
ATOM      7  C   UNL     1       6.709   5.034  18.312  0.00  0.00    +0.000 A 
ATOM      8  O   UNL     1       7.178   5.334  19.410  0.00  0.00    +0.000 OA
ATOM      9  N   UNL     1       7.491   5.143  17.190  0.00  0.00    +0.000 N 
ATOM     10  C   UNL     1       7.074   4.991  15.899  0.00  0.00    +0.000 A 
ATOM     11  O   UNL     1       7.799   5.252  14.946  0.00  0.00    +0.000 OA
ATOM     12  H   UNL     1       8.425   5.495  17.330  0.00  0.00    +0.000 HD
ENDBRANCH   1   6
BRANCH   2  13
ATOM     13  C   UNL     1       2.491   5.056  20.604  0.00  0.00    +0.000 C 
BRANCH  13  14
ATOM     14  O   UNL     1       1.944   6.324  20.945  0.00  0.00    +0.000 OA
ATOM     15  H   UNL     1       2.666   6.978  20.914  0.00  0.00    +0.000 HD
ENDBRANCH  13  14
BRANCH  13  16
ATOM     16  C   UNL     1       1.355   4.027  20.377  0.00  0.00    +0.000 C 
BRANCH  16  17
ATOM     17  O   UNL     1       1.101   3.866  18.970  0.00  0.00    +0.000 OA
ATOM     18  H   UNL     1       0.154   3.662  18.861  0.00  0.00    +0.000 HD
ENDBRANCH  16  17
BRANCH  16  19
ATOM     19  C   UNL     1       1.694   2.666  21.006  0.00  0.00    +0.000 C 
BRANCH  19  20
ATOM     20  O   UNL     1       2.472   2.830  22.192  0.00  0.00    +0.000 OA
ATOM     21  H   UNL     1       1.906   3.241  22.868  0.00  0.00    +0.000 HD
ENDBRANCH  19  20
ENDBRANCH  16  19
ENDBRANCH  13  16
ENDBRANCH   2  13
TORSDOF 7
ENDMDL
MODEL 8
REMARK VINA RESULT:      -6.5      2.741      6.464
REMARK  Name = 
REMARK  8 active torsions:
REMARK  status: ('A' for Active; 'I' for Inactive)
REMARK    1  A    between atoms: C_1  and  C_2
REMARK    2  A    between atoms: N_4  and  C_5
REMARK    3  A    between atoms: C_6  and  C_7
REMARK    4  A    between atoms: C_7  and  O_8
REMARK    5  A    between atoms: C_7  and  C_9
REMARK    6  A    between atoms: C_9  and  O_10
REMARK    7  A    between atoms: C_9  and  C_11
REMARK    8  A    between atoms: C_11  and  O_12
REMARK                            x       y       z     vdW  Elec       q    Type
REMARK                         _______ _______ _______ _____ _____    ______ ____
ROOT
ATOM      1  C   UNL     1       5.219   4.029  19.206  0.00  0.00    +0.000 C 
ATOM      2  C   UNL     1       5.601   5.305  19.026  0.00  0.00    +0.000 C 
ENDROOT
BRANCH   1   6
ATOM      3  C   UNL     1       1.227   2.590  21.635  0.00  0.00    +0.000 C 
ATOM      4  C   UNL     1       1.990   2.819  20.370  0.00  0.00    +0.000 A 
ATOM      5  C   UNL     1       3.264   3.225  20.334  0.00  0.00    +0.000 A 
ATOM      6  N   UNL     1       3.936   3.490  19.153  0.00  0.00    +0.000 N 
ATOM      7  C   UNL     1       3.313   3.292  17.911  0.00  0.00    +0.000 A 
ATOM      8  O   UNL     1       3.824   3.541  16.818  0.00  0.00    +0.000 OA
ATOM      9  N   UNL     1       2.035   2.797  17.963  0.00  0.00    +0.000 N 
ATOM     10  C   UNL     1       1.287   2.613  19.090  0.00  0.00    +0.000 A 
ATOM     11  O   UNL     1       0.101   2.308  19.041  0.00  0.00    +0.000 OA
ATOM     12  H   UNL     1       1.565   2.683  17.078  0.00  0.00    +0.000 HD
ENDBRANCH   1   6
BRANCH   2  13
ATOM     13  C   UNL     1       7.023   5.818  19.038  0.00  0.00    +0.000 C 
BRANCH  13  14
ATOM     14  O   UNL     1       7.723   5.314  20.170  0.00  0.00    +0.000 OA
ATOM     15  H   UNL     1       7.477   5.858  20.939  0.00  0.00    +0.000 HD
ENDBRANCH  13  14
BRANCH  13  16
ATOM     16  C   UNL     1       7.771   5.440  17.735  0.00  0.00    +0.000 C 
BRANCH  16  17
ATOM     17  O   UNL     1       8.251   4.087  17.809  0.00  0.00    +0.000 OA
ATOM     18  H   UNL     1       7.734   3.625  18.494  0.00  0.00    +0.000 HD
ENDBRANCH  16  17
BRANCH  16  19
ATOM     19  C   UNL     1       6.870   5.608  16.500  0.00  0.00    +0.000 C 
BRANCH  19  20
ATOM     20  O   UNL     1       7.648   5.826  15.324  0.00  0.00    +0.000 OA
ATOM     21  H   UNL     1       7.720   4.978  14.850  0.00  0.00    +0.000 HD
ENDBRANCH  19  20
ENDBRANCH  16  19
ENDBRANCH  13  16
ENDBRANCH   2  13
TORSDOF 7
ENDMDL
MODEL 9
REMARK VINA RESULT:      -6.5      1.424      1.716
REMARK  Name = 
REMARK  8 active torsions:
REMARK  status: ('A' for Active; 'I' for Inactive)
REMARK    1  A    between atoms: C_1  and  C_2
REMARK    2  A    between atoms: N_4  and  C_5
REMARK    3  A    between atoms: C_6  and  C_7
REMARK    4  A    between atoms: C_7  and  O_8
REMARK    5  A    between atoms: C_7  and  C_9
REMARK    6  A    between atoms: C_9  and  O_10
REMARK    7  A    between atoms: C_9  and  C_11
REMARK    8  A    between atoms: C_11  and  O_12
REMARK                            x       y       z     vdW  Elec       q    Type
REMARK                         _______ _______ _______ _____ _____    ______ ____
ROOT
ATOM      1  C   UNL     1       4.522   4.500  17.667  0.00  0.00    +0.000 C 
ATOM      2  C   UNL     1       4.434   3.505  18.567  0.00  0.00    +0.000 C 
ENDROOT
BRANCH   1   6
ATOM      3  C   UNL     1       5.957   3.612  13.077  0.00  0.00    +0.000 C 
ATOM      4  C   UNL     1       6.137   4.255  14.414  0.00  0.00    +0.000 A 
ATOM      5  C   UNL     1       5.331   4.037  15.459  0.00  0.00    +0.000 A 
ATOM      6  N   UNL     1       5.479   4.689  16.671  0.00  0.00    +0.000 N 
ATOM      7  C   UNL     1       6.534   5.590  16.881  0.00  0.00    +0.000 A 
ATOM      8  O   UNL     1       6.713   6.240  17.912  0.00  0.00    +0.000 OA
ATOM      9  N   UNL     1       7.400   5.740  15.828  0.00  0.00    +0.000 N 
ATOM     10  C   UNL     1       7.253   5.207  14.580  0.00  0.00    +0.000 A 
ATOM     11  O   UNL     1       7.992   5.510  13.651  0.00  0.00    +0.000 OA
ATOM     12  H   UNL     1       8.142   6.411  15.954  0.00  0.00    +0.000 HD
ENDBRANCH   1   6
BRANCH   2  13
ATOM     13  C   UNL     1       3.333   3.325  19.587  0.00  0.00    +0.000 C 
BRANCH  13  14
ATOM     14  O   UNL     1       3.135   4.527  20.321  0.00  0.00    +0.000 OA
ATOM     15  H   UNL     1       3.453   5.267  19.773  0.00  0.00    +0.000 HD
ENDBRANCH  13  14
BRANCH  13  16
ATOM     16  C   UNL     1       2.008   2.882  18.916  0.00  0.00    +0.000 C 
BRANCH  16  17
ATOM     17  O   UNL     1       1.958   1.449  18.808  0.00  0.00    +0.000 OA
ATOM     18  H   UNL     1       1.104   1.154  19.173  0.00  0.00    +0.000 HD
ENDBRANCH  16  17
BRANCH  16  19
ATOM     19  C   UNL     1       0.785   3.391  19.696  0.00  0.00    +0.000 C 
BRANCH  19  20
ATOM     20  O   UNL     1       0.791   2.901  21.036  0.00  0.00    +0.000 OA
ATOM     21  H   UNL     1       0.351   2.032  21.040  0.00  0.00    +0.000 HD
ENDBRANCH  19  20
ENDBRANCH  16  19
ENDBRANCH  13  16
ENDBRANCH   2  13
TORSDOF 7
ENDMDL
