MODEL 1
REMARK VINA RESULT:      -9.9      0.000      0.000
REMARK  Name = 
REMARK  8 active torsions:
REMARK  status: ('A' for Active; 'I' for Inactive)
REMARK    1  A    between atoms: C_2  and  C_4
REMARK    2  A    between atoms: C_8  and  C_9
REMARK    3  A    between atoms: C_9  and  O_10
REMARK    4  A    between atoms: O_10  and  C_11
REMARK    5  A    between atoms: C_11  and  C_13
REMARK    6  A    between atoms: N_21  and  C_22
REMARK    7  A    between atoms: C_22  and  C_23
REMARK    8  A    between atoms: C_27  and  C_28
REMARK                            x       y       z     vdW  Elec       q    Type
REMARK                         _______ _______ _______ _____ _____    ______ ____
ROOT
ATOM      1  C   UNL     1       4.298   5.105  17.097  0.00  0.00    +0.000 A 
ATOM      2  C   UNL     1       4.228   3.727  16.967  0.00  0.00    +0.000 A 
ATOM      3  C   UNL     1       3.155   3.247  17.746  0.00  0.00    +0.000 A 
ATOM      4  C   UNL     1       2.641   1.956  17.971  0.00  0.00    +0.000 A 
ATOM      5  C   UNL     1       1.469   1.808  18.710  0.00  0.00    +0.000 A 
ATOM      6  C   UNL     1       0.818   2.927  19.222  0.00  0.00    +0.000 A 
ATOM      7  C   UNL     1       1.352   4.217  19.068  0.00  0.00    +0.000 A 
ATOM      8  C   UNL     1       2.544   4.357  18.333  0.00  0.00    +0.000 A 
ATOM      9  N   UNL     1       3.360   5.458  18.066  0.00  0.00    +0.000 N 
ENDROOT
BRANCH   1  10
ATOM     10  C   UNL     1       5.162   6.012  16.373  0.00  0.00    +0.000 C 
ATOM     11  O   UNL     1       4.801   6.843  15.551  0.00  0.00    +0.000 OA
BRANCH  10  12
ATOM     12  O   UNL     1       6.459   5.724  16.681  0.00  0.00    +0.000 OA
BRANCH  12  13
ATOM     13  C   UNL     1       6.975   4.524  16.110  0.00  0.00    +0.000 C 
BRANCH  13  18
ATOM     14  C   UNL     1       6.283   3.617  12.483  0.00  0.00    +0.000 A 
ATOM     15  C   UNL     1       7.172   4.452  11.805  0.00  0.00    +0.000 A 
ATOM     16  C   UNL     1       7.951   5.365  12.519  0.00  0.00    +0.000 A 
ATOM     17  C   UNL     1       7.858   5.428  13.911  0.00  0.00    +0.000 A 
ATOM     18  C   UNL     1       6.989   4.573  14.606  0.00  0.00    +0.000 A 
ATOM     19  C   UNL     1       6.189   3.679  13.878  0.00  0.00    +0.000 A 
BRANCH  14  21
ATOM     20  N   UNL     1       5.940   1.451  11.494  0.00  0.00    +0.000 NA
ATOM     21  C   UNL     1       5.461   2.629  11.732  0.00  0.00    +0.000 C 
ATOM     22  N   UNL     1       4.214   2.968  11.290  0.00  0.00    +0.000 N 
ATOM     23  H   UNL     1       5.238   0.885  11.015  0.00  0.00    +0.000 HD
ATOM     24  H   UNL     1       3.854   2.409  10.527  0.00  0.00    +0.000 HD
ATOM     25  H   UNL     1       4.065   3.959  11.128  0.00  0.00    +0.000 HD
ENDBRANCH  14  21
ENDBRANCH  13  18
ENDBRANCH  12  13
ENDBRANCH  10  12
ENDBRANCH   1  10
BRANCH   9  26
ATOM     26  C   UNL     1       3.519   6.606  18.975  0.00  0.00    +0.000 C 
BRANCH  26  27
ATOM     27  C   UNL     1       2.429   7.655  19.067  0.00  0.00    +0.000 A 
ATOM     28  C   UNL     1       2.125   8.363  17.883  0.00  0.00    +0.000 A 
ATOM     29  C   UNL     1       1.230   9.436  17.877  0.00  0.00    +0.000 A 
ATOM     30  C   UNL     1       0.628   9.837  19.065  0.00  0.00    +0.000 A 
ATOM     31  C   UNL     1       0.911   9.152  20.252  0.00  0.00    +0.000 A 
ATOM     32  C   UNL     1       1.793   8.054  20.248  0.00  0.00    +0.000 A 
BRANCH  31  33
ATOM     33  C   UNL     1       0.300   9.645  21.522  0.00  0.00    +0.000 C 
ATOM     34  N   UNL     1       0.434  10.858  21.945  0.00  0.00    +0.000 NA
ATOM     35  N   UNL     1      -0.470   8.823  22.291  0.00  0.00    +0.000 N 
ATOM     36  H   UNL     1       0.977  11.426  21.290  0.00  0.00    +0.000 HD
ATOM     37  H   UNL     1      -0.136   7.872  22.398  0.00  0.00    +0.000 HD
ATOM     38  H   UNL     1      -0.670   9.262  23.187  0.00  0.00    +0.000 HD
ENDBRANCH  31  33
ENDBRANCH  26  27
ENDBRANCH   9  26
TORSDOF 8
ENDMDL
MODEL 2
REMARK VINA RESULT:      -9.6      1.512      2.023
REMARK  Name = 
REMARK  8 active torsions:
REMARK  status: ('A' for Active; 'I' for Inactive)
REMARK    1  A    between atoms: C_2  and  C_4
REMARK    2  A    between atoms: C_8  and  C_9
REMARK    3  A    between atoms: C_9  and  O_10
REMARK    4  A    between atoms: O_10  and  C_11
REMARK    5  A    between atoms: C_11  and  C_13
REMARK    6  A    between atoms: N_21  and  C_22
REMARK    7  A    between atoms: C_22  and  C_23
REMARK    8  A    between atoms: C_27  and  C_28
REMARK                            x       y       z     vdW  Elec       q    Type
REMARK                         _______ _______ _______ _____ _____    ______ ____
ROOT
ATOM      1  C   UNL     1       5.127   4.884  18.558  0.00  0.00    +0.000 A 
ATOM      2  C   UNL     1       4.802   3.842  19.413  0.00  0.00    +0.000 A 
ATOM      3  C   UNL     1       3.442   3.516  19.241  0.00  0.00    +0.000 A 
ATOM      4  C   UNL     1       2.607   2.552  19.838  0.00  0.00    +0.000 A 
ATOM      5  C   UNL     1       1.310   2.383  19.361  0.00  0.00    +0.000 A 
ATOM      6  C   UNL     1       0.844   3.165  18.308  0.00  0.00    +0.000 A 
ATOM      7  C   UNL     1       1.636   4.179  17.744  0.00  0.00    +0.000 A 
ATOM      8  C   UNL     1       2.941   4.353  18.241  0.00  0.00    +0.000 A 
ATOM      9  N   UNL     1       3.935   5.294  17.965  0.00  0.00    +0.000 N 
ENDROOT
BRANCH   1  10
ATOM     10  C   UNL     1       6.439   5.443  18.316  0.00  0.00    +0.000 C 
ATOM     11  O   UNL     1       7.178   5.931  19.161  0.00  0.00    +0.000 OA
BRANCH  10  12
ATOM     12  O   UNL     1       6.682   5.430  16.974  0.00  0.00    +0.000 OA
BRANCH  12  13
ATOM     13  C   UNL     1       6.270   4.251  16.285  0.00  0.00    +0.000 C 
BRANCH  13  18
ATOM     14  C   UNL     1       6.138   3.469  12.566  0.00  0.00    +0.000 A 
ATOM     15  C   UNL     1       7.136   4.305  12.063  0.00  0.00    +0.000 A 
ATOM     16  C   UNL     1       7.808   5.180  12.919  0.00  0.00    +0.000 A 
ATOM     17  C   UNL     1       7.500   5.203  14.281  0.00  0.00    +0.000 A 
ATOM     18  C   UNL     1       6.520   4.345  14.803  0.00  0.00    +0.000 A 
ATOM     19  C   UNL     1       5.829   3.491  13.931  0.00  0.00    +0.000 A 
BRANCH  14  21
ATOM     20  N   UNL     1       5.979   1.390  11.367  0.00  0.00    +0.000 NA
ATOM     21  C   UNL     1       5.428   2.522  11.664  0.00  0.00    +0.000 C 
ATOM     22  N   UNL     1       4.207   2.850  11.147  0.00  0.00    +0.000 N 
ATOM     23  H   UNL     1       5.346   0.842  10.782  0.00  0.00    +0.000 HD
ATOM     24  H   UNL     1       3.938   2.349  10.310  0.00  0.00    +0.000 HD
ATOM     25  H   UNL     1       4.026   3.846  11.060  0.00  0.00    +0.000 HD
ENDBRANCH  14  21
ENDBRANCH  13  18
ENDBRANCH  12  13
ENDBRANCH  10  12
ENDBRANCH   1  10
BRANCH   9  26
ATOM     26  C   UNL     1       3.664   6.681  17.550  0.00  0.00    +0.000 C 
BRANCH  26  27
ATOM     27  C   UNL     1       2.780   7.567  18.403  0.00  0.00    +0.000 A 
ATOM     28  C   UNL     1       2.600   7.181  19.750  0.00  0.00    +0.000 A 
ATOM     29  C   UNL     1       1.709   7.847  20.594  0.00  0.00    +0.000 A 
ATOM     30  C   UNL     1       0.961   8.912  20.104  0.00  0.00    +0.000 A 
ATOM     31  C   UNL     1       1.120   9.316  18.774  0.00  0.00    +0.000 A 
ATOM     32  C   UNL     1       2.039   8.658  17.933  0.00  0.00    +0.000 A 
BRANCH  31  33
ATOM     33  C   UNL     1       0.257  10.420  18.257  0.00  0.00    +0.000 C 
ATOM     34  N   UNL     1      -0.854  10.212  17.629  0.00  0.00    +0.000 NA
ATOM     35  N   UNL     1       0.598  11.724  18.456  0.00  0.00    +0.000 N 
ATOM     36  H   UNL     1      -1.068   9.213  17.566  0.00  0.00    +0.000 HD
ATOM     37  H   UNL     1       1.580  11.951  18.341  0.00  0.00    +0.000 HD
ATOM     38  H   UNL     1      -0.003  12.335  17.908  0.00  0.00    +0.000 HD
ENDBRANCH  31  33
ENDBRANCH  26  27
ENDBRANCH   9  26
TORSDOF 8
ENDMDL
MODEL 3
REMARK VINA RESULT:      -9.4      1.193      1.464
REMARK  Name = 
REMARK  8 active torsions:
REMARK  status: ('A' for Active; 'I' for Inactive)
REMARK    1  A    between atoms: C_2  and  C_4
REMARK    2  A    between atoms: C_8  and  C_9
REMARK    3  A    between atoms: C_9  and  O_10
REMARK    4  A    between atoms: O_10  and  C_11
REMARK    5  A    between atoms: C_11  and  C_13
REMARK    6  A    between atoms: N_21  and  C_22
REMARK    7  A    between atoms: C_22  and  C_23
REMARK    8  A    between atoms: C_27  and  C_28
REMARK                            x       y       z     vdW  Elec       q    Type
REMARK                         _______ _______ _______ _____ _____    ______ ____
ROOT
ATOM      1  C   UNL     1       5.184   5.152  18.639  0.00  0.00    +0.000 A 
ATOM      2  C   UNL     1       4.878   4.166  19.564  0.00  0.00    +0.000 A 
ATOM      3  C   UNL     1       3.509   3.846  19.457  0.00  0.00    +0.000 A 
ATOM      4  C   UNL     1       2.687   2.929  20.138  0.00  0.00    +0.000 A 
ATOM      5  C   UNL     1       1.371   2.749  19.716  0.00  0.00    +0.000 A 
ATOM      6  C   UNL     1       0.878   3.473  18.635  0.00  0.00    +0.000 A 
ATOM      7  C   UNL     1       1.660   4.443  17.987  0.00  0.00    +0.000 A 
ATOM      8  C   UNL     1       2.983   4.630  18.428  0.00  0.00    +0.000 A 
ATOM      9  N   UNL     1       3.976   5.541  18.063  0.00  0.00    +0.000 N 
ENDROOT
BRANCH   1  10
ATOM     10  C   UNL     1       6.493   5.679  18.320  0.00  0.00    +0.000 C 
ATOM     11  O   UNL     1       7.294   6.144  19.121  0.00  0.00    +0.000 OA
BRANCH  10  12
ATOM     12  O   UNL     1       6.654   5.668  16.966  0.00  0.00    +0.000 OA
BRANCH  12  13
ATOM     13  C   UNL     1       6.408   4.417  16.327  0.00  0.00    +0.000 C 
BRANCH  13  18
ATOM     14  C   UNL     1       6.157   3.609  12.620  0.00  0.00    +0.000 A 
ATOM     15  C   UNL     1       7.173   4.403  12.085  0.00  0.00    +0.000 A 
ATOM     16  C   UNL     1       7.898   5.259  12.916  0.00  0.00    +0.000 A 
ATOM     17  C   UNL     1       7.623   5.305  14.285  0.00  0.00    +0.000 A 
ATOM     18  C   UNL     1       6.625   4.489  14.839  0.00  0.00    +0.000 A 
ATOM     19  C   UNL     1       5.882   3.654  13.991  0.00  0.00    +0.000 A 
BRANCH  14  21
ATOM     20  N   UNL     1       5.873   1.511  11.477  0.00  0.00    +0.000 NA
ATOM     21  C   UNL     1       5.391   2.681  11.743  0.00  0.00    +0.000 C 
ATOM     22  N   UNL     1       4.190   3.067  11.218  0.00  0.00    +0.000 N 
ATOM     23  H   UNL     1       5.207   0.986  10.907  0.00  0.00    +0.000 HD
ATOM     24  H   UNL     1       3.890   2.560  10.395  0.00  0.00    +0.000 HD
ATOM     25  H   UNL     1       4.068   4.069  11.104  0.00  0.00    +0.000 HD
ENDBRANCH  14  21
ENDBRANCH  13  18
ENDBRANCH  12  13
ENDBRANCH  10  12
ENDBRANCH   1  10
BRANCH   9  26
ATOM     26  C   UNL     1       3.706   6.905  17.577  0.00  0.00    +0.000 C 
BRANCH  26  27
ATOM     27  C   UNL     1       2.602   7.728  18.209  0.00  0.00    +0.000 A 
ATOM     28  C   UNL     1       1.967   8.683  17.384  0.00  0.00    +0.000 A 
ATOM     29  C   UNL     1       1.026   9.583  17.889  0.00  0.00    +0.000 A 
ATOM     30  C   UNL     1       0.707   9.558  19.243  0.00  0.00    +0.000 A 
ATOM     31  C   UNL     1       1.320   8.621  20.082  0.00  0.00    +0.000 A 
ATOM     32  C   UNL     1       2.249   7.698  19.563  0.00  0.00    +0.000 A 
BRANCH  31  33
ATOM     33  C   UNL     1       1.007   8.660  21.542  0.00  0.00    +0.000 C 
ATOM     34  N   UNL     1      -0.194   8.551  22.009  0.00  0.00    +0.000 NA
ATOM     35  N   UNL     1       2.001   8.783  22.466  0.00  0.00    +0.000 N 
ATOM     36  H   UNL     1      -0.876   8.408  21.260  0.00  0.00    +0.000 HD
ATOM     37  H   UNL     1       2.741   9.438  22.240  0.00  0.00    +0.000 HD
ATOM     38  H   UNL     1       1.607   8.953  23.389  0.00  0.00    +0.000 HD
ENDBRANCH  31  33
ENDBRANCH  26  27
ENDBRANCH   9  26
TORSDOF 8
ENDMDL
MODEL 4
REMARK VINA RESULT:      -9.3      1.416      1.882
REMARK  Name = 
REMARK  8 active torsions:
REMARK  status: ('A' for Active; 'I' for Inactive)
REMARK    1  A    between atoms: C_2  and  C_4
REMARK    2  A    between atoms: C_8  and  C_9
REMARK    3  A    between atoms: C_9  and  O_10
REMARK    4  A    between atoms: O_10  and  C_11
REMARK    5  A    between atoms: C_11  and  C_13
REMARK    6  A    between atoms: N_21  and  C_22
REMARK    7  A    between atoms: C_22  and  C_23
REMARK    8  A    between atoms: C_27  and  C_28
REMARK                            x       y       z     vdW  Elec       q    Type
REMARK                         _______ _______ _______ _____ _____    ______ ____
ROOT
ATOM      1  C   UNL     1       4.995   5.422  18.259  0.00  0.00    +0.000 A 
ATOM      2  C   UNL     1       5.036   4.453  19.250  0.00  0.00    +0.000 A 
ATOM      3  C   UNL     1       3.745   3.910  19.414  0.00  0.00    +0.000 A 
ATOM      4  C   UNL     1       3.229   2.912  20.261  0.00  0.00    +0.000 A 
ATOM      5  C   UNL     1       1.909   2.497  20.103  0.00  0.00    +0.000 A 
ATOM      6  C   UNL     1       1.109   3.070  19.118  0.00  0.00    +0.000 A 
ATOM      7  C   UNL     1       1.583   4.116  18.308  0.00  0.00    +0.000 A 
ATOM      8  C   UNL     1       2.913   4.538  18.484  0.00  0.00    +0.000 A 
ATOM      9  N   UNL     1       3.653   5.577  17.914  0.00  0.00    +0.000 N 
ENDROOT
BRANCH   1  10
ATOM     10  C   UNL     1       6.113   6.135  17.683  0.00  0.00    +0.000 C 
ATOM     11  O   UNL     1       6.260   7.351  17.672  0.00  0.00    +0.000 OA
BRANCH  10  12
ATOM     12  O   UNL     1       6.934   5.240  17.062  0.00  0.00    +0.000 OA
BRANCH  12  13
ATOM     13  C   UNL     1       6.278   4.213  16.323  0.00  0.00    +0.000 C 
BRANCH  13  18
ATOM     14  C   UNL     1       6.108   3.523  12.588  0.00  0.00    +0.000 A 
ATOM     15  C   UNL     1       7.123   4.347  12.098  0.00  0.00    +0.000 A 
ATOM     16  C   UNL     1       7.821   5.184  12.971  0.00  0.00    +0.000 A 
ATOM     17  C   UNL     1       7.520   5.182  14.336  0.00  0.00    +0.000 A 
ATOM     18  C   UNL     1       6.522   4.336  14.843  0.00  0.00    +0.000 A 
ATOM     19  C   UNL     1       5.806   3.520  13.954  0.00  0.00    +0.000 A 
BRANCH  14  21
ATOM     20  N   UNL     1       4.212   2.968  11.214  0.00  0.00    +0.000 NA
ATOM     21  C   UNL     1       5.371   2.615  11.667  0.00  0.00    +0.000 C 
ATOM     22  N   UNL     1       5.912   1.412  11.310  0.00  0.00    +0.000 N 
ATOM     23  H   UNL     1       3.867   2.262  10.563  0.00  0.00    +0.000 HD
ATOM     24  H   UNL     1       5.255   0.719  10.976  0.00  0.00    +0.000 HD
ATOM     25  H   UNL     1       6.566   1.015  11.978  0.00  0.00    +0.000 HD
ENDBRANCH  14  21
ENDBRANCH  13  18
ENDBRANCH  12  13
ENDBRANCH  10  12
ENDBRANCH   1  10
BRANCH   9  26
ATOM     26  C   UNL     1       3.070   6.849  17.455  0.00  0.00    +0.000 C 
BRANCH  26  27
ATOM     27  C   UNL     1       2.376   7.763  18.443  0.00  0.00    +0.000 A 
ATOM     28  C   UNL     1       2.263   7.298  19.772  0.00  0.00    +0.000 A 
ATOM     29  C   UNL     1       1.534   7.996  20.737  0.00  0.00    +0.000 A 
ATOM     30  C   UNL     1       0.886   9.176  20.391  0.00  0.00    +0.000 A 
ATOM     31  C   UNL     1       0.983   9.661  19.081  0.00  0.00    +0.000 A 
ATOM     32  C   UNL     1       1.740   8.967  18.117  0.00  0.00    +0.000 A 
BRANCH  31  33
ATOM     33  C   UNL     1       0.223  10.896  18.720  0.00  0.00    +0.000 C 
ATOM     34  N   UNL     1       0.789  11.962  18.257  0.00  0.00    +0.000 NA
ATOM     35  N   UNL     1      -1.134  10.940  18.839  0.00  0.00    +0.000 N 
ATOM     36  H   UNL     1       1.798  11.833  18.146  0.00  0.00    +0.000 HD
ATOM     37  H   UNL     1      -1.523  10.508  19.670  0.00  0.00    +0.000 HD
ATOM     38  H   UNL     1      -1.469  11.892  18.708  0.00  0.00    +0.000 HD
ENDBRANCH  31  33
ENDBRANCH  26  27
ENDBRANCH   9  26
TORSDOF 8
ENDMDL
MODEL 5
REMARK VINA RESULT:      -9.2      1.765      8.705
REMARK  Name = 
REMARK  8 active torsions:
REMARK  status: ('A' for Active; 'I' for Inactive)
REMARK    1  A    between atoms: C_2  and  C_4
REMARK    2  A    between atoms: C_8  and  C_9
REMARK    3  A    between atoms: C_9  and  O_10
REMARK    4  A    between atoms: O_10  and  C_11
REMARK    5  A    between atoms: C_11  and  C_13
REMARK    6  A    between atoms: N_21  and  C_22
REMARK    7  A    between atoms: C_22  and  C_23
REMARK    8  A    between atoms: C_27  and  C_28
REMARK                            x       y       z     vdW  Elec       q    Type
REMARK                         _______ _______ _______ _____ _____    ______ ____
ROOT
ATOM      1  C   UNL     1       2.891   6.048  18.617  0.00  0.00    +0.000 A 
ATOM      2  C   UNL     1       2.226   5.937  19.829  0.00  0.00    +0.000 A 
ATOM      3  C   UNL     1       2.413   4.635  20.336  0.00  0.00    +0.000 A 
ATOM      4  C   UNL     1       1.972   3.996  21.510  0.00  0.00    +0.000 A 
ATOM      5  C   UNL     1       2.431   2.713  21.802  0.00  0.00    +0.000 A 
ATOM      6  C   UNL     1       3.313   2.073  20.937  0.00  0.00    +0.000 A 
ATOM      7  C   UNL     1       3.711   2.665  19.727  0.00  0.00    +0.000 A 
ATOM      8  C   UNL     1       3.231   3.955  19.433  0.00  0.00    +0.000 A 
ATOM      9  N   UNL     1       3.365   4.774  18.310  0.00  0.00    +0.000 N 
ENDROOT
BRANCH   1  10
ATOM     10  C   UNL     1       3.070   7.242  17.821  0.00  0.00    +0.000 C 
ATOM     11  O   UNL     1       4.141   7.687  17.426  0.00  0.00    +0.000 OA
BRANCH  10  12
ATOM     12  O   UNL     1       1.861   7.852  17.663  0.00  0.00    +0.000 OA
BRANCH  12  13
ATOM     13  C   UNL     1       1.877   9.276  17.727  0.00  0.00    +0.000 C 
BRANCH  13  18
ATOM     14  C   UNL     1       0.340   9.879  21.152  0.00  0.00    +0.000 A 
ATOM     15  C   UNL     1      -0.839  10.551  20.822  0.00  0.00    +0.000 A 
ATOM     16  C   UNL     1      -1.105  10.875  19.491  0.00  0.00    +0.000 A 
ATOM     17  C   UNL     1      -0.206  10.508  18.486  0.00  0.00    +0.000 A 
ATOM     18  C   UNL     1       0.966   9.805  18.802  0.00  0.00    +0.000 A 
ATOM     19  C   UNL     1       1.240   9.510  20.146  0.00  0.00    +0.000 A 
BRANCH  14  21
ATOM     20  N   UNL     1       1.836   9.242  22.925  0.00  0.00    +0.000 NA
ATOM     21  C   UNL     1       0.624   9.514  22.567  0.00  0.00    +0.000 C 
ATOM     22  N   UNL     1      -0.392   9.460  23.479  0.00  0.00    +0.000 N 
ATOM     23  H   UNL     1       1.867   9.062  23.929  0.00  0.00    +0.000 HD
ATOM     24  H   UNL     1      -0.210   8.903  24.303  0.00  0.00    +0.000 HD
ATOM     25  H   UNL     1      -1.312   9.268  23.093  0.00  0.00    +0.000 HD
ENDBRANCH  14  21
ENDBRANCH  13  18
ENDBRANCH  12  13
ENDBRANCH  10  12
ENDBRANCH   1  10
BRANCH   9  26
ATOM     26  C   UNL     1       3.517   4.270  16.934  0.00  0.00    +0.000 C 
BRANCH  26  27
ATOM     27  C   UNL     1       4.872   4.315  16.258  0.00  0.00    +0.000 A 
ATOM     28  C   UNL     1       5.935   4.879  16.996  0.00  0.00    +0.000 A 
ATOM     29  C   UNL     1       7.195   5.088  16.431  0.00  0.00    +0.000 A 
ATOM     30  C   UNL     1       7.418   4.750  15.100  0.00  0.00    +0.000 A 
ATOM     31  C   UNL     1       6.381   4.188  14.345  0.00  0.00    +0.000 A 
ATOM     32  C   UNL     1       5.120   3.955  14.928  0.00  0.00    +0.000 A 
BRANCH  31  33
ATOM     33  C   UNL     1       6.629   3.895  12.902  0.00  0.00    +0.000 C 
ATOM     34  N   UNL     1       7.372   4.637  12.149  0.00  0.00    +0.000 NA
ATOM     35  N   UNL     1       6.093   2.789  12.313  0.00  0.00    +0.000 N 
ATOM     36  H   UNL     1       7.780   5.415  12.674  0.00  0.00    +0.000 HD
ATOM     37  H   UNL     1       5.137   2.568  12.565  0.00  0.00    +0.000 HD
ATOM     38  H   UNL     1       6.225   2.827  11.304  0.00  0.00    +0.000 HD
ENDBRANCH  31  33
ENDBRANCH  26  27
ENDBRANCH   9  26
TORSDOF 8
ENDMDL
MODEL 6
REMARK VINA RESULT:      -9.1      2.128      7.079
REMARK  Name = 
REMARK  8 active torsions:
REMARK  status: ('A' for Active; 'I' for Inactive)
REMARK    1  A    between atoms: C_2  and  C_4
REMARK    2  A    between atoms: C_8  and  C_9
REMARK    3  A    between atoms: C_9  and  O_10
REMARK    4  A    between atoms: O_10  and  C_11
REMARK    5  A    between atoms: C_11  and  C_13
REMARK    6  A    between atoms: N_21  and  C_22
REMARK    7  A    between atoms: C_22  and  C_23
REMARK    8  A    between atoms: C_27  and  C_28
REMARK                            x       y       z     vdW  Elec       q    Type
REMARK                         _______ _______ _______ _____ _____    ______ ____
ROOT
ATOM      1  C   UNL     1       6.219   5.100  16.842  0.00  0.00    +0.000 A 
ATOM      2  C   UNL     1       7.178   5.522  15.934  0.00  0.00    +0.000 A 
ATOM      3  C   UNL     1       6.955   4.878  14.700  0.00  0.00    +0.000 A 
ATOM      4  C   UNL     1       7.613   4.940  13.457  0.00  0.00    +0.000 A 
ATOM      5  C   UNL     1       7.072   4.267  12.364  0.00  0.00    +0.000 A 
ATOM      6  C   UNL     1       5.896   3.536  12.504  0.00  0.00    +0.000 A 
ATOM      7  C   UNL     1       5.262   3.404  13.751  0.00  0.00    +0.000 A 
ATOM      8  C   UNL     1       5.821   4.076  14.853  0.00  0.00    +0.000 A 
ATOM      9  N   UNL     1       5.495   4.091  16.211  0.00  0.00    +0.000 N 
ENDROOT
BRANCH   1  10
ATOM     10  C   UNL     1       5.998   5.602  18.180  0.00  0.00    +0.000 C 
ATOM     11  O   UNL     1       6.232   4.999  19.220  0.00  0.00    +0.000 OA
BRANCH  10  12
ATOM     12  O   UNL     1       5.392   6.821  18.099  0.00  0.00    +0.000 OA
BRANCH  12  13
ATOM     13  C   UNL     1       4.134   6.840  17.429  0.00  0.00    +0.000 C 
BRANCH  13  18
ATOM     14  C   UNL     1       1.439   9.191  18.719  0.00  0.00    +0.000 A 
ATOM     15  C   UNL     1       1.175   8.658  19.982  0.00  0.00    +0.000 A 
ATOM     16  C   UNL     1       1.819   7.489  20.392  0.00  0.00    +0.000 A 
ATOM     17  C   UNL     1       2.745   6.866  19.550  0.00  0.00    +0.000 A 
ATOM     18  C   UNL     1       3.040   7.411  18.292  0.00  0.00    +0.000 A 
ATOM     19  C   UNL     1       2.366   8.568  17.876  0.00  0.00    +0.000 A 
BRANCH  14  21
ATOM     20  N   UNL     1      -0.475  10.416  17.930  0.00  0.00    +0.000 NA
ATOM     21  C   UNL     1       0.769  10.446  18.281  0.00  0.00    +0.000 C 
ATOM     22  N   UNL     1       1.467  11.619  18.242  0.00  0.00    +0.000 N 
ATOM     23  H   UNL     1      -0.793  11.360  17.706  0.00  0.00    +0.000 HD
ATOM     24  H   UNL     1       1.083  12.337  17.641  0.00  0.00    +0.000 HD
ATOM     25  H   UNL     1       2.471  11.524  18.114  0.00  0.00    +0.000 HD
ENDBRANCH  14  21
ENDBRANCH  13  18
ENDBRANCH  12  13
ENDBRANCH  10  12
ENDBRANCH   1  10
BRANCH   9  26
ATOM     26  C   UNL     1       4.884   2.956  16.924  0.00  0.00    +0.000 C 
BRANCH  26  27
ATOM     27  C   UNL     1       3.577   3.144  17.666  0.00  0.00    +0.000 A 
ATOM     28  C   UNL     1       2.520   3.751  16.952  0.00  0.00    +0.000 A 
ATOM     29  C   UNL     1       1.314   4.090  17.569  0.00  0.00    +0.000 A 
ATOM     30  C   UNL     1       1.140   3.840  18.926  0.00  0.00    +0.000 A 
ATOM     31  C   UNL     1       2.171   3.238  19.657  0.00  0.00    +0.000 A 
ATOM     32  C   UNL     1       3.376   2.874  19.025  0.00  0.00    +0.000 A 
BRANCH  31  33
ATOM     33  C   UNL     1       1.982   3.041  21.125  0.00  0.00    +0.000 C 
ATOM     34  N   UNL     1       2.842   3.433  22.007  0.00  0.00    +0.000 NA
ATOM     35  N   UNL     1       0.852   2.452  21.611  0.00  0.00    +0.000 N 
ATOM     36  H   UNL     1       3.635   3.912  21.570  0.00  0.00    +0.000 HD
ATOM     37  H   UNL     1       0.510   1.651  21.093  0.00  0.00    +0.000 HD
ATOM     38  H   UNL     1       0.956   2.253  22.603  0.00  0.00    +0.000 HD
ENDBRANCH  31  33
ENDBRANCH  26  27
ENDBRANCH   9  26
TORSDOF 8
ENDMDL
MODEL 7
REMARK VINA RESULT:      -9.1      1.229      1.715
REMARK  Name = 
REMARK  8 active torsions:
REMARK  status: ('A' for Active; 'I' for Inactive)
REMARK    1  A    between atoms: C_2  and  C_4
REMARK    2  A    between atoms: C_8  and  C_9
REMARK    3  A    between atoms: C_9  and  O_10
REMARK    4  A    between atoms: O_10  and  C_11
REMARK    5  A    between atoms: C_11  and  C_13
REMARK    6  A    between atoms: N_21  and  C_22
REMARK    7  A    between atoms: C_22  and  C_23
REMARK    8  A    between atoms: C_27  and  C_28
REMARK                            x       y       z     vdW  Elec       q    Type
REMARK                         _______ _______ _______ _____ _____    ______ ____
ROOT
ATOM      1  C   UNL     1       4.033   5.232  17.234  0.00  0.00    +0.000 A 
ATOM      2  C   UNL     1       3.891   3.875  16.987  0.00  0.00    +0.000 A 
ATOM      3  C   UNL     1       2.886   3.359  17.830  0.00  0.00    +0.000 A 
ATOM      4  C   UNL     1       2.343   2.070  17.990  0.00  0.00    +0.000 A 
ATOM      5  C   UNL     1       1.249   1.891  18.834  0.00  0.00    +0.000 A 
ATOM      6  C   UNL     1       0.705   2.976  19.514  0.00  0.00    +0.000 A 
ATOM      7  C   UNL     1       1.274   4.257  19.422  0.00  0.00    +0.000 A 
ATOM      8  C   UNL     1       2.387   4.428  18.578  0.00  0.00    +0.000 A 
ATOM      9  N   UNL     1       3.218   5.521  18.327  0.00  0.00    +0.000 N 
ENDROOT
BRANCH   1  10
ATOM     10  C   UNL     1       4.855   6.175  16.507  0.00  0.00    +0.000 C 
ATOM     11  O   UNL     1       4.446   7.057  15.763  0.00  0.00    +0.000 OA
BRANCH  10  12
ATOM     12  O   UNL     1       6.166   5.860  16.705  0.00  0.00    +0.000 OA
BRANCH  12  13
ATOM     13  C   UNL     1       6.579   4.593  16.197  0.00  0.00    +0.000 C 
BRANCH  13  18
ATOM     14  C   UNL     1       6.179   3.623  12.543  0.00  0.00    +0.000 A 
ATOM     15  C   UNL     1       7.153   4.412  11.929  0.00  0.00    +0.000 A 
ATOM     16  C   UNL     1       7.896   5.317  12.690  0.00  0.00    +0.000 A 
ATOM     17  C   UNL     1       7.683   5.416  14.067  0.00  0.00    +0.000 A 
ATOM     18  C   UNL     1       6.728   4.606  14.699  0.00  0.00    +0.000 A 
ATOM     19  C   UNL     1       5.965   3.721  13.922  0.00  0.00    +0.000 A 
BRANCH  14  21
ATOM     20  N   UNL     1       4.221   2.970  11.307  0.00  0.00    +0.000 NA
ATOM     21  C   UNL     1       5.394   2.644  11.742  0.00  0.00    +0.000 C 
ATOM     22  N   UNL     1       5.908   1.407  11.475  0.00  0.00    +0.000 N 
ATOM     23  H   UNL     1       3.841   2.211  10.740  0.00  0.00    +0.000 HD
ATOM     24  H   UNL     1       5.231   0.694  11.235  0.00  0.00    +0.000 HD
ATOM     25  H   UNL     1       6.587   1.063  12.149  0.00  0.00    +0.000 HD
ENDBRANCH  14  21
ENDBRANCH  13  18
ENDBRANCH  12  13
ENDBRANCH  10  12
ENDBRANCH   1  10
BRANCH   9  26
ATOM     26  C   UNL     1       3.520   6.572  19.315  0.00  0.00    +0.000 C 
BRANCH  26  27
ATOM     27  C   UNL     1       2.465   7.596  19.676  0.00  0.00    +0.000 A 
ATOM     28  C   UNL     1       1.839   7.450  20.935  0.00  0.00    +0.000 A 
ATOM     29  C   UNL     1       0.767   8.257  21.322  0.00  0.00    +0.000 A 
ATOM     30  C   UNL     1       0.282   9.224  20.448  0.00  0.00    +0.000 A 
ATOM     31  C   UNL     1       0.884   9.390  19.195  0.00  0.00    +0.000 A 
ATOM     32  C   UNL     1       1.982   8.592  18.819  0.00  0.00    +0.000 A 
BRANCH  31  33
ATOM     33  C   UNL     1       0.302  10.392  18.252  0.00  0.00    +0.000 C 
ATOM     34  N   UNL     1       0.774  11.587  18.113  0.00  0.00    +0.000 NA
ATOM     35  N   UNL     1      -0.759  10.069  17.458  0.00  0.00    +0.000 N 
ATOM     36  H   UNL     1       1.599  11.736  18.700  0.00  0.00    +0.000 HD
ATOM     37  H   UNL     1      -1.490   9.518  17.893  0.00  0.00    +0.000 HD
ATOM     38  H   UNL     1      -1.126  10.902  17.003  0.00  0.00    +0.000 HD
ENDBRANCH  31  33
ENDBRANCH  26  27
ENDBRANCH   9  26
TORSDOF 8
ENDMDL
MODEL 8
REMARK VINA RESULT:      -9.1      2.354      8.583
REMARK  Name = 
REMARK  8 active torsions:
REMARK  status: ('A' for Active; 'I' for Inactive)
REMARK    1  A    between atoms: C_2  and  C_4
REMARK    2  A    between atoms: C_8  and  C_9
REMARK    3  A    between atoms: C_9  and  O_10
REMARK    4  A    between atoms: O_10  and  C_11
REMARK    5  A    between atoms: C_11  and  C_13
REMARK    6  A    between atoms: N_21  and  C_22
REMARK    7  A    between atoms: C_22  and  C_23
REMARK    8  A    between atoms: C_27  and  C_28
REMARK                            x       y       z     vdW  Elec       q    Type
REMARK                         _______ _______ _______ _____ _____    ______ ____
ROOT
ATOM      1  C   UNL     1       2.866   5.896  18.662  0.00  0.00    +0.000 A 
ATOM      2  C   UNL     1       2.047   5.825  19.778  0.00  0.00    +0.000 A 
ATOM      3  C   UNL     1       2.150   4.536  20.341  0.00  0.00    +0.000 A 
ATOM      4  C   UNL     1       1.551   3.934  21.464  0.00  0.00    +0.000 A 
ATOM      5  C   UNL     1       1.954   2.657  21.848  0.00  0.00    +0.000 A 
ATOM      6  C   UNL     1       2.934   1.984  21.124  0.00  0.00    +0.000 A 
ATOM      7  C   UNL     1       3.493   2.539  19.961  0.00  0.00    +0.000 A 
ATOM      8  C   UNL     1       3.072   3.824  19.571  0.00  0.00    +0.000 A 
ATOM      9  N   UNL     1       3.362   4.610  18.454  0.00  0.00    +0.000 N 
ENDROOT
BRANCH   1  10
ATOM     10  C   UNL     1       3.162   7.065  17.865  0.00  0.00    +0.000 C 
ATOM     11  O   UNL     1       4.276   7.422  17.500  0.00  0.00    +0.000 OA
BRANCH  10  12
ATOM     12  O   UNL     1       2.010   7.766  17.665  0.00  0.00    +0.000 OA
BRANCH  12  13
ATOM     13  C   UNL     1       2.093   9.170  17.905  0.00  0.00    +0.000 C 
BRANCH  13  18
ATOM     14  C   UNL     1      -1.103  10.977  18.894  0.00  0.00    +0.000 A 
ATOM     15  C   UNL     1      -1.088  10.845  20.283  0.00  0.00    +0.000 A 
ATOM     16  C   UNL     1      -0.076  10.106  20.901  0.00  0.00    +0.000 A 
ATOM     17  C   UNL     1       0.932   9.519  20.133  0.00  0.00    +0.000 A 
ATOM     18  C   UNL     1       0.944   9.671  18.738  0.00  0.00    +0.000 A 
ATOM     19  C   UNL     1      -0.093  10.389  18.124  0.00  0.00    +0.000 A 
BRANCH  14  21
ATOM     20  N   UNL     1      -3.088  12.335  18.945  0.00  0.00    +0.000 NA
ATOM     21  C   UNL     1      -2.168  11.777  18.229  0.00  0.00    +0.000 C 
ATOM     22  N   UNL     1      -2.177  11.912  16.870  0.00  0.00    +0.000 N 
ATOM     23  H   UNL     1      -3.707  12.882  18.345  0.00  0.00    +0.000 HD
ATOM     24  H   UNL     1      -3.067  12.164  16.461  0.00  0.00    +0.000 HD
ATOM     25  H   UNL     1      -1.729  11.159  16.355  0.00  0.00    +0.000 HD
ENDBRANCH  14  21
ENDBRANCH  13  18
ENDBRANCH  12  13
ENDBRANCH  10  12
ENDBRANCH   1  10
BRANCH   9  26
ATOM     26  C   UNL     1       3.687   4.066  17.125  0.00  0.00    +0.000 C 
BRANCH  26  27
ATOM     27  C   UNL     1       5.084   4.226  16.563  0.00  0.00    +0.000 A 
ATOM     28  C   UNL     1       6.112   4.521  17.485  0.00  0.00    +0.000 A 
ATOM     29  C   UNL     1       7.413   4.814  17.069  0.00  0.00    +0.000 A 
ATOM     30  C   UNL     1       7.714   4.833  15.711  0.00  0.00    +0.000 A 
ATOM     31  C   UNL     1       6.714   4.543  14.776  0.00  0.00    +0.000 A 
ATOM     32  C   UNL     1       5.410   4.222  15.202  0.00  0.00    +0.000 A 
BRANCH  31  33
ATOM     33  C   UNL     1       7.050   4.633  13.324  0.00  0.00    +0.000 C 
ATOM     34  N   UNL     1       7.866   5.512  12.841  0.00  0.00    +0.000 NA
ATOM     35  N   UNL     1       6.520   3.752  12.428  0.00  0.00    +0.000 N 
ATOM     36  H   UNL     1       8.263   6.100  13.579  0.00  0.00    +0.000 HD
ATOM     37  H   UNL     1       5.541   3.520  12.557  0.00  0.00    +0.000 HD
ATOM     38  H   UNL     1       6.721   4.052  11.477  0.00  0.00    +0.000 HD
ENDBRANCH  31  33
ENDBRANCH  26  27
ENDBRANCH   9  26
TORSDOF 8
ENDMDL
MODEL 9
REMARK VINA RESULT:      -9.0      1.813      7.674
REMARK  Name = 
REMARK  8 active torsions:
REMARK  status: ('A' for Active; 'I' for Inactive)
REMARK    1  A    between atoms: C_2  and  C_4
REMARK    2  A    between atoms: C_8  and  C_9
REMARK    3  A    between atoms: C_9  and  O_10
REMARK    4  A    between atoms: O_10  and  C_11
REMARK    5  A    between atoms: C_11  and  C_13
REMARK    6  A    between atoms: N_21  and  C_22
REMARK    7  A    between atoms: C_22  and  C_23
REMARK    8  A    between atoms: C_27  and  C_28
REMARK                            x       y       z     vdW  Elec       q    Type
REMARK                         _______ _______ _______ _____ _____    ______ ____
ROOT
ATOM      1  C   UNL     1       5.710   5.214  16.984  0.00  0.00    +0.000 A 
ATOM      2  C   UNL     1       6.735   5.782  16.243  0.00  0.00    +0.000 A 
ATOM      3  C   UNL     1       6.805   5.139  14.990  0.00  0.00    +0.000 A 
ATOM      4  C   UNL     1       7.640   5.317  13.871  0.00  0.00    +0.000 A 
ATOM      5  C   UNL     1       7.382   4.598  12.706  0.00  0.00    +0.000 A 
ATOM      6  C   UNL     1       6.311   3.710  12.654  0.00  0.00    +0.000 A 
ATOM      7  C   UNL     1       5.508   3.467  13.782  0.00  0.00    +0.000 A 
ATOM      8  C   UNL     1       5.784   4.187  14.959  0.00  0.00    +0.000 A 
ATOM      9  N   UNL     1       5.244   4.128  16.245  0.00  0.00    +0.000 N 
ENDROOT
BRANCH   1  10
ATOM     10  C   UNL     1       5.209   5.653  18.267  0.00  0.00    +0.000 C 
ATOM     11  O   UNL     1       5.707   5.399  19.357  0.00  0.00    +0.000 OA
BRANCH  10  12
ATOM     12  O   UNL     1       4.032   6.316  18.078  0.00  0.00    +0.000 OA
BRANCH  12  13
ATOM     13  C   UNL     1       3.216   6.466  19.237  0.00  0.00    +0.000 C 
BRANCH  13  18
ATOM     14  C   UNL     1       0.874   9.269  20.294  0.00  0.00    +0.000 A 
ATOM     15  C   UNL     1       0.574   9.867  19.069  0.00  0.00    +0.000 A 
ATOM     16  C   UNL     1       1.186   9.408  17.902  0.00  0.00    +0.000 A 
ATOM     17  C   UNL     1       2.082   8.336  17.955  0.00  0.00    +0.000 A 
ATOM     18  C   UNL     1       2.368   7.708  19.176  0.00  0.00    +0.000 A 
ATOM     19  C   UNL     1       1.770   8.195  20.348  0.00  0.00    +0.000 A 
BRANCH  14  21
ATOM     20  N   UNL     1      -0.673  10.680  21.477  0.00  0.00    +0.000 NA
ATOM     21  C   UNL     1       0.213   9.741  21.541  0.00  0.00    +0.000 C 
ATOM     22  N   UNL     1       0.546   9.190  22.746  0.00  0.00    +0.000 N 
ATOM     23  H   UNL     1      -1.062  10.851  22.405  0.00  0.00    +0.000 HD
ATOM     24  H   UNL     1       0.331   9.754  23.559  0.00  0.00    +0.000 HD
ATOM     25  H   UNL     1       1.482   8.799  22.800  0.00  0.00    +0.000 HD
ENDBRANCH  14  21
ENDBRANCH  13  18
ENDBRANCH  12  13
ENDBRANCH  10  12
ENDBRANCH   1  10
BRANCH   9  26
ATOM     26  C   UNL     1       4.690   2.906  16.852  0.00  0.00    +0.000 C 
BRANCH  26  27
ATOM     27  C   UNL     1       3.449   2.986  17.716  0.00  0.00    +0.000 A 
ATOM     28  C   UNL     1       2.313   3.602  17.145  0.00  0.00    +0.000 A 
ATOM     29  C   UNL     1       1.156   3.846  17.888  0.00  0.00    +0.000 A 
ATOM     30  C   UNL     1       1.112   3.491  19.232  0.00  0.00    +0.000 A 
ATOM     31  C   UNL     1       2.223   2.878  19.823  0.00  0.00    +0.000 A 
ATOM     32  C   UNL     1       3.379   2.610  19.062  0.00  0.00    +0.000 A 
BRANCH  31  33
ATOM     33  C   UNL     1       2.172   2.566  21.282  0.00  0.00    +0.000 C 
ATOM     34  N   UNL     1       3.209   2.199  21.962  0.00  0.00    +0.000 NA
ATOM     35  N   UNL     1       1.009   2.689  21.982  0.00  0.00    +0.000 N 
ATOM     36  H   UNL     1       4.051   2.182  21.381  0.00  0.00    +0.000 HD
ATOM     37  H   UNL     1       0.171   2.361  21.515  0.00  0.00    +0.000 HD
ATOM     38  H   UNL     1       1.112   2.288  22.912  0.00  0.00    +0.000 HD
ENDBRANCH  31  33
ENDBRANCH  26  27
ENDBRANCH   9  26
TORSDOF 8
ENDMDL
