MODEL 1
REMARK VINA RESULT:      -7.9      0.000      0.000
REMARK  Name = 
REMARK  3 active torsions:
REMARK  status: ('A' for Active; 'I' for Inactive)
REMARK    1  A    between atoms: N_10  and  C_11
REMARK    2  A    between atoms: C_14  and  C_15
REMARK    3  A    between atoms: C_15  and  O_16
REMARK                            x       y       z     vdW  Elec       q    Type
REMARK                         _______ _______ _______ _____ _____    ______ ____
ROOT
ATOM      1  N   UNL     1       1.270   2.651  22.282  0.00  0.00    +0.000 N 
ATOM      2  C   UNL     1       2.019   3.046  21.188  0.00  0.00    +0.000 A 
ATOM      3  N   UNL     1       3.160   2.369  21.007  0.00  0.00    +0.000 NA
ATOM      4  C   UNL     1       3.959   2.680  19.976  0.00  0.00    +0.000 A 
ATOM      5  N   UNL     1       5.094   1.906  19.800  0.00  0.00    +0.000 N 
ATOM      6  C   UNL     1       3.587   3.751  19.183  0.00  0.00    +0.000 A 
ATOM      7  C   UNL     1       2.368   4.362  19.415  0.00  0.00    +0.000 A 
ATOM      8  N   UNL     1       2.127   5.340  18.481  0.00  0.00    +0.000 NA
ATOM      9  C   UNL     1       3.197   5.355  17.714  0.00  0.00    +0.000 A 
ATOM     10  N   UNL     1       4.139   4.458  18.131  0.00  0.00    +0.000 N 
ATOM     11  N   UNL     1       1.539   4.016  20.412  0.00  0.00    +0.000 NA
ATOM     12  H   UNL     1       1.592   1.737  22.576  0.00  0.00    +0.000 HD
ATOM     13  H   UNL     1       0.287   2.748  22.082  0.00  0.00    +0.000 HD
ATOM     14  H   UNL     1       5.344   1.452  20.674  0.00  0.00    +0.000 HD
ATOM     15  H   UNL     1       5.854   2.376  19.323  0.00  0.00    +0.000 HD
ENDROOT
BRANCH  10  16
ATOM     16  C   UNL     1       5.478   4.287  17.598  0.00  0.00    +0.000 C 
ATOM     17  C   UNL     1       5.991   5.351  16.645  0.00  0.00    +0.000 C 
ATOM     18  O   UNL     1       7.398   5.451  16.885  0.00  0.00    +0.000 OA
ATOM     19  C   UNL     1       7.616   4.911  18.185  0.00  0.00    +0.000 C 
ATOM     20  O   UNL     1       6.407   4.343  18.690  0.00  0.00    +0.000 OA
BRANCH  19  21
ATOM     21  C   UNL     1       8.096   5.978  19.181  0.00  0.00    +0.000 C 
BRANCH  21  22
ATOM     22  O   UNL     1       8.097   5.473  20.517  0.00  0.00    +0.000 OA
ATOM     23  H   UNL     1       7.330   5.874  20.967  0.00  0.00    +0.000 HD
ENDBRANCH  21  22
ENDBRANCH  19  21
ENDBRANCH  10  16
TORSDOF 3
ENDMDL
MODEL 2
REMARK VINA RESULT:      -7.4      0.729      1.036
REMARK  Name = 
REMARK  3 active torsions:
REMARK  status: ('A' for Active; 'I' for Inactive)
REMARK    1  A    between atoms: N_10  and  C_11
REMARK    2  A    between atoms: C_14  and  C_15
REMARK    3  A    between atoms: C_15  and  O_16
REMARK                            x       y       z     vdW  Elec       q    Type
REMARK                         _______ _______ _______ _____ _____    ______ ____
ROOT
ATOM      1  N   UNL     1       1.150   2.660  22.272  0.00  0.00    +0.000 N 
ATOM      2  C   UNL     1       1.953   3.020  21.205  0.00  0.00    +0.000 A 
ATOM      3  N   UNL     1       3.108   2.349  21.111  0.00  0.00    +0.000 NA
ATOM      4  C   UNL     1       3.958   2.628  20.113  0.00  0.00    +0.000 A 
ATOM      5  N   UNL     1       5.107   1.859  20.029  0.00  0.00    +0.000 N 
ATOM      6  C   UNL     1       3.621   3.662  19.259  0.00  0.00    +0.000 A 
ATOM      7  C   UNL     1       2.385   4.269  19.401  0.00  0.00    +0.000 A 
ATOM      8  N   UNL     1       2.187   5.207  18.417  0.00  0.00    +0.000 NA
ATOM      9  C   UNL     1       3.296   5.204  17.708  0.00  0.00    +0.000 A 
ATOM     10  N   UNL     1       4.221   4.334  18.211  0.00  0.00    +0.000 N 
ATOM     11  N   UNL     1       1.507   3.954  20.366  0.00  0.00    +0.000 NA
ATOM     12  H   UNL     1       1.463   1.762  22.619  0.00  0.00    +0.000 HD
ATOM     13  H   UNL     1       0.178   2.739  22.016  0.00  0.00    +0.000 HD
ATOM     14  H   UNL     1       5.315   1.443  20.932  0.00  0.00    +0.000 HD
ATOM     15  H   UNL     1       5.888   2.319  19.574  0.00  0.00    +0.000 HD
ENDROOT
BRANCH  10  16
ATOM     16  C   UNL     1       5.589   4.156  17.757  0.00  0.00    +0.000 C 
ATOM     17  C   UNL     1       5.954   4.730  16.400  0.00  0.00    +0.000 C 
ATOM     18  O   UNL     1       7.316   5.155  16.506  0.00  0.00    +0.000 OA
ATOM     19  C   UNL     1       7.573   5.317  17.897  0.00  0.00    +0.000 C 
ATOM     20  O   UNL     1       6.456   4.858  18.660  0.00  0.00    +0.000 OA
BRANCH  19  21
ATOM     21  C   UNL     1       7.836   6.784  18.269  0.00  0.00    +0.000 C 
BRANCH  21  22
ATOM     22  O   UNL     1       7.692   7.638  17.134  0.00  0.00    +0.000 OA
ATOM     23  H   UNL     1       7.890   8.544  17.439  0.00  0.00    +0.000 HD
ENDBRANCH  21  22
ENDBRANCH  19  21
ENDBRANCH  10  16
TORSDOF 3
ENDMDL
MODEL 3
REMARK VINA RESULT:      -7.3      2.979      5.544
REMARK  Name = 
REMARK  3 active torsions:
REMARK  status: ('A' for Active; 'I' for Inactive)
REMARK    1  A    between atoms: N_10  and  C_11
REMARK    2  A    between atoms: C_14  and  C_15
REMARK    3  A    between atoms: C_15  and  O_16
REMARK                            x       y       z     vdW  Elec       q    Type
REMARK                         _______ _______ _______ _____ _____    ______ ____
ROOT
ATOM      1  N   UNL     1       7.321   5.421  15.007  0.00  0.00    +0.000 N 
ATOM      2  C   UNL     1       6.401   5.503  16.036  0.00  0.00    +0.000 A 
ATOM      3  N   UNL     1       6.464   4.511  16.934  0.00  0.00    +0.000 NA
ATOM      4  C   UNL     1       5.610   4.498  17.968  0.00  0.00    +0.000 A 
ATOM      5  N   UNL     1       5.762   3.484  18.899  0.00  0.00    +0.000 N 
ATOM      6  C   UNL     1       4.648   5.490  18.012  0.00  0.00    +0.000 A 
ATOM      7  C   UNL     1       4.687   6.501  17.069  0.00  0.00    +0.000 A 
ATOM      8  N   UNL     1       3.717   7.440  17.319  0.00  0.00    +0.000 NA
ATOM      9  C   UNL     1       3.068   6.993  18.374  0.00  0.00    +0.000 A 
ATOM     10  N   UNL     1       3.548   5.786  18.796  0.00  0.00    +0.000 N 
ATOM     11  N   UNL     1       5.576   6.548  16.064  0.00  0.00    +0.000 NA
ATOM     12  H   UNL     1       8.052   4.776  15.282  0.00  0.00    +0.000 HD
ATOM     13  H   UNL     1       7.608   6.345  14.725  0.00  0.00    +0.000 HD
ATOM     14  H   UNL     1       6.256   2.700  18.483  0.00  0.00    +0.000 HD
ATOM     15  H   UNL     1       4.916   3.245  19.402  0.00  0.00    +0.000 HD
ENDROOT
BRANCH  10  16
ATOM     16  C   UNL     1       3.002   4.950  19.849  0.00  0.00    +0.000 C 
ATOM     17  C   UNL     1       1.598   5.264  20.333  0.00  0.00    +0.000 C 
ATOM     18  O   UNL     1       1.011   4.006  20.681  0.00  0.00    +0.000 OA
ATOM     19  C   UNL     1       1.762   3.014  19.989  0.00  0.00    +0.000 C 
ATOM     20  O   UNL     1       2.889   3.611  19.346  0.00  0.00    +0.000 OA
BRANCH  19  21
ATOM     21  C   UNL     1       0.925   2.296  18.919  0.00  0.00    +0.000 C 
BRANCH  21  22
ATOM     22  O   UNL     1       1.717   1.979  17.773  0.00  0.00    +0.000 OA
ATOM     23  H   UNL     1       2.646   2.145  18.022  0.00  0.00    +0.000 HD
ENDBRANCH  21  22
ENDBRANCH  19  21
ENDBRANCH  10  16
TORSDOF 3
ENDMDL
MODEL 4
REMARK VINA RESULT:      -7.1      1.393      1.572
REMARK  Name = 
REMARK  3 active torsions:
REMARK  status: ('A' for Active; 'I' for Inactive)
REMARK    1  A    between atoms: N_10  and  C_11
REMARK    2  A    between atoms: C_14  and  C_15
REMARK    3  A    between atoms: C_15  and  O_16
REMARK                            x       y       z     vdW  Elec       q    Type
REMARK                         _______ _______ _______ _____ _____    ______ ____
ROOT
ATOM      1  N   UNL     1       1.553   2.520  22.206  0.00  0.00    +0.000 N 
ATOM      2  C   UNL     1       2.111   3.233  21.161  0.00  0.00    +0.000 A 
ATOM      3  N   UNL     1       2.950   2.536  20.382  0.00  0.00    +0.000 NA
ATOM      4  C   UNL     1       3.547   3.139  19.345  0.00  0.00    +0.000 A 
ATOM      5  N   UNL     1       4.353   2.354  18.537  0.00  0.00    +0.000 N 
ATOM      6  C   UNL     1       3.313   4.491  19.173  0.00  0.00    +0.000 A 
ATOM      7  C   UNL     1       2.395   5.120  19.996  0.00  0.00    +0.000 A 
ATOM      8  N   UNL     1       2.227   6.432  19.625  0.00  0.00    +0.000 NA
ATOM      9  C   UNL     1       3.055   6.615  18.619  0.00  0.00    +0.000 A 
ATOM     10  N   UNL     1       3.783   5.493  18.344  0.00  0.00    +0.000 N 
ATOM     11  N   UNL     1       1.754   4.506  21.001  0.00  0.00    +0.000 NA
ATOM     12  H   UNL     1       1.669   1.532  22.018  0.00  0.00    +0.000 HD
ATOM     13  H   UNL     1       0.616   2.846  22.385  0.00  0.00    +0.000 HD
ATOM     14  H   UNL     1       4.661   1.532  19.047  0.00  0.00    +0.000 HD
ATOM     15  H   UNL     1       5.083   2.862  18.052  0.00  0.00    +0.000 HD
ENDROOT
BRANCH  10  16
ATOM     16  C   UNL     1       4.865   5.367  17.385  0.00  0.00    +0.000 C 
ATOM     17  C   UNL     1       4.997   6.454  16.334  0.00  0.00    +0.000 C 
ATOM     18  O   UNL     1       6.398   6.595  16.085  0.00  0.00    +0.000 OA
ATOM     19  C   UNL     1       7.059   6.051  17.222  0.00  0.00    +0.000 C 
ATOM     20  O   UNL     1       6.108   5.441  18.098  0.00  0.00    +0.000 OA
BRANCH  19  21
ATOM     21  C   UNL     1       7.822   7.122  18.016  0.00  0.00    +0.000 C 
BRANCH  21  22
ATOM     22  O   UNL     1       7.802   8.378  17.336  0.00  0.00    +0.000 OA
ATOM     23  H   UNL     1       8.069   9.053  17.990  0.00  0.00    +0.000 HD
ENDBRANCH  21  22
ENDBRANCH  19  21
ENDBRANCH  10  16
TORSDOF 3
ENDMDL
MODEL 5
REMARK VINA RESULT:      -7.0      1.327      1.441
REMARK  Name = 
REMARK  3 active torsions:
REMARK  status: ('A' for Active; 'I' for Inactive)
REMARK    1  A    between atoms: N_10  and  C_11
REMARK    2  A    between atoms: C_14  and  C_15
REMARK    3  A    between atoms: C_15  and  O_16
REMARK                            x       y       z     vdW  Elec       q    Type
REMARK                         _______ _______ _______ _____ _____    ______ ____
ROOT
ATOM      1  N   UNL     1       1.471   2.522  22.035  0.00  0.00    +0.000 N 
ATOM      2  C   UNL     1       1.972   3.211  20.945  0.00  0.00    +0.000 A 
ATOM      3  N   UNL     1       2.573   2.451  20.020  0.00  0.00    +0.000 NA
ATOM      4  C   UNL     1       3.096   3.026  18.928  0.00  0.00    +0.000 A 
ATOM      5  N   UNL     1       3.647   2.186  17.975  0.00  0.00    +0.000 N 
ATOM      6  C   UNL     1       3.048   4.406  18.849  0.00  0.00    +0.000 A 
ATOM      7  C   UNL     1       2.366   5.107  19.828  0.00  0.00    +0.000 A 
ATOM      8  N   UNL     1       2.345   6.450  19.540  0.00  0.00    +0.000 NA
ATOM      9  C   UNL     1       3.037   6.575  18.427  0.00  0.00    +0.000 A 
ATOM     10  N   UNL     1       3.538   5.379  17.999  0.00  0.00    +0.000 N 
ATOM     11  N   UNL     1       1.792   4.529  20.894  0.00  0.00    +0.000 NA
ATOM     12  H   UNL     1       1.407   1.541  21.791  0.00  0.00    +0.000 HD
ATOM     13  H   UNL     1       0.630   2.967  22.369  0.00  0.00    +0.000 HD
ATOM     14  H   UNL     1       3.899   1.297  18.398  0.00  0.00    +0.000 HD
ATOM     15  H   UNL     1       4.368   2.613  17.404  0.00  0.00    +0.000 HD
ENDROOT
BRANCH  10  16
ATOM     16  C   UNL     1       4.437   5.160  16.880  0.00  0.00    +0.000 C 
ATOM     17  C   UNL     1       5.226   6.353  16.375  0.00  0.00    +0.000 C 
ATOM     18  O   UNL     1       6.485   5.835  15.933  0.00  0.00    +0.000 OA
ATOM     19  C   UNL     1       6.646   4.579  16.584  0.00  0.00    +0.000 C 
ATOM     20  O   UNL     1       5.455   4.239  17.296  0.00  0.00    +0.000 OA
BRANCH  19  21
ATOM     21  C   UNL     1       7.813   4.591  17.583  0.00  0.00    +0.000 C 
BRANCH  21  22
ATOM     22  O   UNL     1       7.341   4.705  18.926  0.00  0.00    +0.000 OA
ATOM     23  H   UNL     1       7.107   3.803  19.217  0.00  0.00    +0.000 HD
ENDBRANCH  21  22
ENDBRANCH  19  21
ENDBRANCH  10  16
TORSDOF 3
ENDMDL
MODEL 6
REMARK VINA RESULT:      -6.9      1.096      1.096
REMARK  Name = 
REMARK  3 active torsions:
REMARK  status: ('A' for Active; 'I' for Inactive)
REMARK    1  A    between atoms: N_10  and  C_11
REMARK    2  A    between atoms: C_14  and  C_15
REMARK    3  A    between atoms: C_15  and  O_16
REMARK                            x       y       z     vdW  Elec       q    Type
REMARK                         _______ _______ _______ _____ _____    ______ ____
ROOT
ATOM      1  N   UNL     1       0.298   2.660  20.509  0.00  0.00    +0.000 N 
ATOM      2  C   UNL     1       1.304   3.209  19.735  0.00  0.00    +0.000 A 
ATOM      3  N   UNL     1       2.292   2.366  19.406  0.00  0.00    +0.000 NA
ATOM      4  C   UNL     1       3.316   2.804  18.661  0.00  0.00    +0.000 A 
ATOM      5  N   UNL     1       4.275   1.873  18.297  0.00  0.00    +0.000 N 
ATOM      6  C   UNL     1       3.333   4.145  18.326  0.00  0.00    +0.000 A 
ATOM      7  C   UNL     1       2.248   4.933  18.668  0.00  0.00    +0.000 A 
ATOM      8  N   UNL     1       2.398   6.208  18.181  0.00  0.00    +0.000 NA
ATOM      9  C   UNL     1       3.571   6.214  17.584  0.00  0.00    +0.000 A 
ATOM     10  N   UNL     1       4.208   5.011  17.696  0.00  0.00    +0.000 N 
ATOM     11  N   UNL     1       1.194   4.484  19.367  0.00  0.00    +0.000 NA
ATOM     12  H   UNL     1       0.360   1.652  20.445  0.00  0.00    +0.000 HD
ATOM     13  H   UNL     1      -0.587   3.081  20.275  0.00  0.00    +0.000 HD
ATOM     14  H   UNL     1       4.257   1.085  18.938  0.00  0.00    +0.000 HD
ATOM     15  H   UNL     1       5.193   2.264  18.117  0.00  0.00    +0.000 HD
ENDROOT
BRANCH  10  16
ATOM     16  C   UNL     1       5.557   4.694  17.264  0.00  0.00    +0.000 C 
ATOM     17  C   UNL     1       6.294   5.742  16.450  0.00  0.00    +0.000 C 
ATOM     18  O   UNL     1       7.673   5.627  16.815  0.00  0.00    +0.000 OA
ATOM     19  C   UNL     1       7.694   4.970  18.078  0.00  0.00    +0.000 C 
ATOM     20  O   UNL     1       6.378   4.541  18.431  0.00  0.00    +0.000 OA
BRANCH  19  21
ATOM     21  C   UNL     1       8.215   5.884  19.197  0.00  0.00    +0.000 C 
BRANCH  21  22
ATOM     22  O   UNL     1       7.920   5.342  20.485  0.00  0.00    +0.000 OA
ATOM     23  H   UNL     1       7.703   6.099  21.063  0.00  0.00    +0.000 HD
ENDBRANCH  21  22
ENDBRANCH  19  21
ENDBRANCH  10  16
TORSDOF 3
ENDMDL
MODEL 7
REMARK VINA RESULT:      -6.6      1.906      2.950
REMARK  Name = 
REMARK  3 active torsions:
REMARK  status: ('A' for Active; 'I' for Inactive)
REMARK    1  A    between atoms: N_10  and  C_11
REMARK    2  A    between atoms: C_14  and  C_15
REMARK    3  A    between atoms: C_15  and  O_16
REMARK                            x       y       z     vdW  Elec       q    Type
REMARK                         _______ _______ _______ _____ _____    ______ ____
ROOT
ATOM      1  N   UNL     1       1.064   2.724  22.243  0.00  0.00    +0.000 N 
ATOM      2  C   UNL     1       1.853   3.070  21.161  0.00  0.00    +0.000 A 
ATOM      3  N   UNL     1       2.121   4.378  21.049  0.00  0.00    +0.000 NA
ATOM      4  C   UNL     1       2.874   4.815  20.029  0.00  0.00    +0.000 A 
ATOM      5  N   UNL     1       3.173   6.167  19.999  0.00  0.00    +0.000 N 
ATOM      6  C   UNL     1       3.282   3.883  19.093  0.00  0.00    +0.000 A 
ATOM      7  C   UNL     1       2.999   2.546  19.314  0.00  0.00    +0.000 A 
ATOM      8  N   UNL     1       3.554   1.762  18.333  0.00  0.00    +0.000 NA
ATOM      9  C   UNL     1       4.133   2.604  17.503  0.00  0.00    +0.000 A 
ATOM     10  N   UNL     1       3.946   3.903  17.881  0.00  0.00    +0.000 N 
ATOM     11  N   UNL     1       2.293   2.099  20.363  0.00  0.00    +0.000 NA
ATOM     12  H   UNL     1       1.072   3.492  22.903  0.00  0.00    +0.000 HD
ATOM     13  H   UNL     1       1.334   1.818  22.592  0.00  0.00    +0.000 HD
ATOM     14  H   UNL     1       2.490   6.687  20.543  0.00  0.00    +0.000 HD
ATOM     15  H   UNL     1       3.361   6.535  19.074  0.00  0.00    +0.000 HD
ENDROOT
BRANCH  10  16
ATOM     16  C   UNL     1       4.341   5.091  17.145  0.00  0.00    +0.000 C 
ATOM     17  C   UNL     1       5.563   5.843  17.638  0.00  0.00    +0.000 C 
ATOM     18  O   UNL     1       6.197   6.373  16.470  0.00  0.00    +0.000 OA
ATOM     19  C   UNL     1       5.727   5.593  15.376  0.00  0.00    +0.000 C 
ATOM     20  O   UNL     1       4.706   4.695  15.816  0.00  0.00    +0.000 OA
BRANCH  19  21
ATOM     21  C   UNL     1       6.849   4.763  14.733  0.00  0.00    +0.000 C 
BRANCH  21  22
ATOM     22  O   UNL     1       7.870   5.605  14.197  0.00  0.00    +0.000 OA
ATOM     23  H   UNL     1       7.468   6.486  14.072  0.00  0.00    +0.000 HD
ENDBRANCH  21  22
ENDBRANCH  19  21
ENDBRANCH  10  16
TORSDOF 3
ENDMDL
MODEL 8
REMARK VINA RESULT:      -6.6      2.987      5.656
REMARK  Name = 
REMARK  3 active torsions:
REMARK  status: ('A' for Active; 'I' for Inactive)
REMARK    1  A    between atoms: N_10  and  C_11
REMARK    2  A    between atoms: C_14  and  C_15
REMARK    3  A    between atoms: C_15  and  O_16
REMARK                            x       y       z     vdW  Elec       q    Type
REMARK                         _______ _______ _______ _____ _____    ______ ____
ROOT
ATOM      1  N   UNL     1       7.153   5.141  13.643  0.00  0.00    +0.000 N 
ATOM      2  C   UNL     1       6.758   5.046  14.965  0.00  0.00    +0.000 A 
ATOM      3  N   UNL     1       5.580   4.441  15.164  0.00  0.00    +0.000 NA
ATOM      4  C   UNL     1       5.108   4.303  16.411  0.00  0.00    +0.000 A 
ATOM      5  N   UNL     1       3.917   3.613  16.562  0.00  0.00    +0.000 N 
ATOM      6  C   UNL     1       5.844   4.868  17.437  0.00  0.00    +0.000 A 
ATOM      7  C   UNL     1       7.073   5.433  17.145  0.00  0.00    +0.000 A 
ATOM      8  N   UNL     1       7.697   5.860  18.291  0.00  0.00    +0.000 NA
ATOM      9  C   UNL     1       6.850   5.599  19.264  0.00  0.00    +0.000 A 
ATOM     10  N   UNL     1       5.687   5.056  18.798  0.00  0.00    +0.000 N 
ATOM     11  N   UNL     1       7.574   5.522  15.904  0.00  0.00    +0.000 NA
ATOM     12  H   UNL     1       6.607   4.485  13.099  0.00  0.00    +0.000 HD
ATOM     13  H   UNL     1       8.156   5.070  13.575  0.00  0.00    +0.000 HD
ATOM     14  H   UNL     1       3.395   3.624  15.691  0.00  0.00    +0.000 HD
ATOM     15  H   UNL     1       3.387   3.866  17.388  0.00  0.00    +0.000 HD
ENDROOT
BRANCH  10  16
ATOM     16  C   UNL     1       4.495   4.753  19.568  0.00  0.00    +0.000 C 
ATOM     17  C   UNL     1       3.158   5.153  18.971  0.00  0.00    +0.000 C 
ATOM     18  O   UNL     1       2.224   4.153  19.391  0.00  0.00    +0.000 OA
ATOM     19  C   UNL     1       2.998   3.011  19.741  0.00  0.00    +0.000 C 
ATOM     20  O   UNL     1       4.391   3.328  19.694  0.00  0.00    +0.000 OA
BRANCH  19  21
ATOM     21  C   UNL     1       2.745   1.828  18.794  0.00  0.00    +0.000 C 
BRANCH  21  22
ATOM     22  O   UNL     1       3.974   1.234  18.372  0.00  0.00    +0.000 OA
ATOM     23  H   UNL     1       4.079   0.414  18.890  0.00  0.00    +0.000 HD
ENDBRANCH  21  22
ENDBRANCH  19  21
ENDBRANCH  10  16
TORSDOF 3
ENDMDL
MODEL 9
REMARK VINA RESULT:      -6.5      1.864      2.976
REMARK  Name = 
REMARK  3 active torsions:
REMARK  status: ('A' for Active; 'I' for Inactive)
REMARK    1  A    between atoms: N_10  and  C_11
REMARK    2  A    between atoms: C_14  and  C_15
REMARK    3  A    between atoms: C_15  and  O_16
REMARK                            x       y       z     vdW  Elec       q    Type
REMARK                         _______ _______ _______ _____ _____    ______ ____
ROOT
ATOM      1  N   UNL     1       0.991   2.542  21.646  0.00  0.00    +0.000 N 
ATOM      2  C   UNL     1       1.842   3.099  20.709  0.00  0.00    +0.000 A 
ATOM      3  N   UNL     1       1.240   3.807  19.744  0.00  0.00    +0.000 NA
ATOM      4  C   UNL     1       1.978   4.382  18.785  0.00  0.00    +0.000 A 
ATOM      5  N   UNL     1       1.308   5.155  17.850  0.00  0.00    +0.000 N 
ATOM      6  C   UNL     1       3.342   4.151  18.805  0.00  0.00    +0.000 A 
ATOM      7  C   UNL     1       3.884   3.447  19.866  0.00  0.00    +0.000 A 
ATOM      8  N   UNL     1       5.252   3.391  19.765  0.00  0.00    +0.000 NA
ATOM      9  C   UNL     1       5.542   4.015  18.643  0.00  0.00    +0.000 A 
ATOM     10  N   UNL     1       4.420   4.440  17.990  0.00  0.00    +0.000 N 
ATOM     11  N   UNL     1       3.153   2.916  20.858  0.00  0.00    +0.000 NA
ATOM     12  H   UNL     1       0.096   3.010  21.582  0.00  0.00    +0.000 HD
ATOM     13  H   UNL     1       1.436   2.526  22.551  0.00  0.00    +0.000 HD
ATOM     14  H   UNL     1       0.330   4.884  17.812  0.00  0.00    +0.000 HD
ATOM     15  H   UNL     1       1.774   5.226  16.953  0.00  0.00    +0.000 HD
ENDROOT
BRANCH  10  16
ATOM     16  C   UNL     1       4.355   5.055  16.676  0.00  0.00    +0.000 C 
ATOM     17  C   UNL     1       4.941   6.447  16.528  0.00  0.00    +0.000 C 
ATOM     18  O   UNL     1       5.483   6.507  15.205  0.00  0.00    +0.000 OA
ATOM     19  C   UNL     1       5.682   5.157  14.797  0.00  0.00    +0.000 C 
ATOM     20  O   UNL     1       5.138   4.265  15.771  0.00  0.00    +0.000 OA
BRANCH  19  21
ATOM     21  C   UNL     1       7.171   4.821  14.619  0.00  0.00    +0.000 C 
BRANCH  21  22
ATOM     22  O   UNL     1       7.819   4.668  15.882  0.00  0.00    +0.000 OA
ATOM     23  H   UNL     1       8.327   3.835  15.836  0.00  0.00    +0.000 HD
ENDBRANCH  21  22
ENDBRANCH  19  21
ENDBRANCH  10  16
TORSDOF 3
ENDMDL
