MODEL 1
REMARK VINA RESULT:      -6.5      0.000      0.000
REMARK  Name = 
REMARK  3 active torsions:
REMARK  status: ('A' for Active; 'I' for Inactive)
REMARK    1  A    between atoms: C_1  and  C_2
REMARK    2  A    between atoms: C_2  and  C_3
REMARK    3  A    between atoms: N_5  and  C_6
REMARK                            x       y       z     vdW  Elec       q    Type
REMARK                         _______ _______ _______ _____ _____    ______ ____
ROOT
ATOM      1  C   UNL     1       3.664   5.460  18.857  0.00  0.00    +0.000 A 
ATOM      2  C   UNL     1       3.062   6.465  19.627  0.00  0.00    +0.000 A 
ATOM      3  C   UNL     1       1.935   6.191  20.394  0.00  0.00    +0.000 A 
ATOM      4  C   UNL     1       1.397   4.912  20.390  0.00  0.00    +0.000 A 
ATOM      5  C   UNL     1       1.963   3.908  19.590  0.00  0.00    +0.000 A 
ATOM      6  C   UNL     1       1.421   2.619  19.578  0.00  0.00    +0.000 A 
ATOM      7  C   UNL     1       1.984   1.640  18.768  0.00  0.00    +0.000 A 
ATOM      8  C   UNL     1       3.076   1.987  17.999  0.00  0.00    +0.000 A 
ATOM      9  N   UNL     1       3.645   3.216  17.998  0.00  0.00    +0.000 NA
ATOM     10  C   UNL     1       3.100   4.175  18.787  0.00  0.00    +0.000 A 
ENDROOT
BRANCH   1  13
ATOM     11  C   UNL     1       6.146   5.544  18.633  0.00  0.00    +0.000 C 
ATOM     12  O   UNL     1       6.431   5.194  19.774  0.00  0.00    +0.000 OA
ATOM     13  N   UNL     1       4.866   5.689  18.134  0.00  0.00    +0.000 N 
ATOM     14  H   UNL     1       4.730   5.769  17.128  0.00  0.00    +0.000 HD
BRANCH  11  16
ATOM     15  C   UNL     1       7.516   7.348  17.570  0.00  0.00    +0.000 C 
ATOM     16  C   UNL     1       7.229   5.851  17.615  0.00  0.00    +0.000 C 
ENDBRANCH  11  16
ENDBRANCH   1  13
TORSDOF 2
ENDMDL
MODEL 2
REMARK VINA RESULT:      -6.5      2.237      4.101
REMARK  Name = 
REMARK  3 active torsions:
REMARK  status: ('A' for Active; 'I' for Inactive)
REMARK    1  A    between atoms: C_1  and  C_2
REMARK    2  A    between atoms: C_2  and  C_3
REMARK    3  A    between atoms: N_5  and  C_6
REMARK                            x       y       z     vdW  Elec       q    Type
REMARK                         _______ _______ _______ _____ _____    ______ ____
ROOT
ATOM      1  C   UNL     1       6.274   6.123  16.586  0.00  0.00    +0.000 A 
ATOM      2  C   UNL     1       6.971   5.162  15.843  0.00  0.00    +0.000 A 
ATOM      3  C   UNL     1       6.401   3.922  15.576  0.00  0.00    +0.000 A 
ATOM      4  C   UNL     1       5.133   3.632  16.058  0.00  0.00    +0.000 A 
ATOM      5  C   UNL     1       4.442   4.569  16.841  0.00  0.00    +0.000 A 
ATOM      6  C   UNL     1       3.165   4.279  17.334  0.00  0.00    +0.000 A 
ATOM      7  C   UNL     1       2.501   5.211  18.120  0.00  0.00    +0.000 A 
ATOM      8  C   UNL     1       3.138   6.407  18.384  0.00  0.00    +0.000 A 
ATOM      9  N   UNL     1       4.362   6.736  17.908  0.00  0.00    +0.000 NA
ATOM     10  C   UNL     1       5.016   5.830  17.139  0.00  0.00    +0.000 A 
ENDROOT
BRANCH   1  13
ATOM     11  C   UNL     1       7.697   7.784  17.784  0.00  0.00    +0.000 C 
ATOM     12  O   UNL     1       8.184   7.023  18.614  0.00  0.00    +0.000 OA
ATOM     13  N   UNL     1       6.794   7.429  16.800  0.00  0.00    +0.000 N 
ATOM     14  H   UNL     1       6.618   8.072  16.031  0.00  0.00    +0.000 HD
BRANCH  11  16
ATOM     15  C   UNL     1       9.004   9.595  18.914  0.00  0.00    +0.000 C 
ATOM     16  C   UNL     1       8.074   9.254  17.754  0.00  0.00    +0.000 C 
ENDBRANCH  11  16
ENDBRANCH   1  13
TORSDOF 2
ENDMDL
MODEL 3
REMARK VINA RESULT:      -6.5      3.076      4.478
REMARK  Name = 
REMARK  3 active torsions:
REMARK  status: ('A' for Active; 'I' for Inactive)
REMARK    1  A    between atoms: C_1  and  C_2
REMARK    2  A    between atoms: C_2  and  C_3
REMARK    3  A    between atoms: N_5  and  C_6
REMARK                            x       y       z     vdW  Elec       q    Type
REMARK                         _______ _______ _______ _____ _____    ______ ____
ROOT
ATOM      1  C   UNL     1       6.282   4.374  16.711  0.00  0.00    +0.000 A 
ATOM      2  C   UNL     1       7.529   4.737  17.238  0.00  0.00    +0.000 A 
ATOM      3  C   UNL     1       7.629   5.264  18.521  0.00  0.00    +0.000 A 
ATOM      4  C   UNL     1       6.482   5.441  19.281  0.00  0.00    +0.000 A 
ATOM      5  C   UNL     1       5.224   5.124  18.748  0.00  0.00    +0.000 A 
ATOM      6  C   UNL     1       4.064   5.306  19.509  0.00  0.00    +0.000 A 
ATOM      7  C   UNL     1       2.824   5.002  18.962  0.00  0.00    +0.000 A 
ATOM      8  C   UNL     1       2.789   4.520  17.668  0.00  0.00    +0.000 A 
ATOM      9  N   UNL     1       3.888   4.309  16.907  0.00  0.00    +0.000 NA
ATOM     10  C   UNL     1       5.101   4.604  17.436  0.00  0.00    +0.000 A 
ENDROOT
BRANCH   1  13
ATOM     11  C   UNL     1       6.500   4.322  14.227  0.00  0.00    +0.000 C 
ATOM     12  O   UNL     1       6.962   5.448  14.074  0.00  0.00    +0.000 OA
ATOM     13  N   UNL     1       6.159   3.752  15.439  0.00  0.00    +0.000 N 
ATOM     14  H   UNL     1       5.993   2.749  15.487  0.00  0.00    +0.000 HD
BRANCH  11  16
ATOM     15  C   UNL     1       4.911   3.696  12.398  0.00  0.00    +0.000 C 
ATOM     16  C   UNL     1       6.263   3.405  13.041  0.00  0.00    +0.000 C 
ENDBRANCH  11  16
ENDBRANCH   1  13
TORSDOF 2
ENDMDL
MODEL 4
REMARK VINA RESULT:      -6.4      1.712      2.077
REMARK  Name = 
REMARK  3 active torsions:
REMARK  status: ('A' for Active; 'I' for Inactive)
REMARK    1  A    between atoms: C_1  and  C_2
REMARK    2  A    between atoms: C_2  and  C_3
REMARK    3  A    between atoms: N_5  and  C_6
REMARK                            x       y       z     vdW  Elec       q    Type
REMARK                         _______ _______ _______ _____ _____    ______ ____
ROOT
ATOM      1  C   UNL     1       3.371   5.260  17.915  0.00  0.00    +0.000 A 
ATOM      2  C   UNL     1       3.299   6.645  18.117  0.00  0.00    +0.000 A 
ATOM      3  C   UNL     1       2.590   7.168  19.193  0.00  0.00    +0.000 A 
ATOM      4  C   UNL     1       1.940   6.310  20.068  0.00  0.00    +0.000 A 
ATOM      5  C   UNL     1       1.967   4.924  19.852  0.00  0.00    +0.000 A 
ATOM      6  C   UNL     1       1.309   4.055  20.729  0.00  0.00    +0.000 A 
ATOM      7  C   UNL     1       1.332   2.687  20.492  0.00  0.00    +0.000 A 
ATOM      8  C   UNL     1       2.020   2.234  19.384  0.00  0.00    +0.000 A 
ATOM      9  N   UNL     1       2.688   3.038  18.524  0.00  0.00    +0.000 NA
ATOM     10  C   UNL     1       2.669   4.375  18.751  0.00  0.00    +0.000 A 
ENDROOT
BRANCH   1  13
ATOM     11  C   UNL     1       5.497   4.358  16.975  0.00  0.00    +0.000 C 
ATOM     12  O   UNL     1       6.196   4.497  17.973  0.00  0.00    +0.000 OA
ATOM     13  N   UNL     1       4.160   4.694  16.877  0.00  0.00    +0.000 N 
ATOM     14  H   UNL     1       3.615   4.345  16.092  0.00  0.00    +0.000 HD
BRANCH  11  16
ATOM     15  C   UNL     1       5.508   4.483  14.475  0.00  0.00    +0.000 C 
ATOM     16  C   UNL     1       6.064   3.763  15.698  0.00  0.00    +0.000 C 
ENDBRANCH  11  16
ENDBRANCH   1  13
TORSDOF 2
ENDMDL
MODEL 5
REMARK VINA RESULT:      -6.4      2.294      2.571
REMARK  Name = 
REMARK  3 active torsions:
REMARK  status: ('A' for Active; 'I' for Inactive)
REMARK    1  A    between atoms: C_1  and  C_2
REMARK    2  A    between atoms: C_2  and  C_3
REMARK    3  A    between atoms: N_5  and  C_6
REMARK                            x       y       z     vdW  Elec       q    Type
REMARK                         _______ _______ _______ _____ _____    ______ ____
ROOT
ATOM      1  C   UNL     1       4.040   5.194  17.411  0.00  0.00    +0.000 A 
ATOM      2  C   UNL     1       3.951   6.545  17.772  0.00  0.00    +0.000 A 
ATOM      3  C   UNL     1       2.979   6.978  18.666  0.00  0.00    +0.000 A 
ATOM      4  C   UNL     1       2.082   6.065  19.199  0.00  0.00    +0.000 A 
ATOM      5  C   UNL     1       2.130   4.717  18.812  0.00  0.00    +0.000 A 
ATOM      6  C   UNL     1       1.224   3.792  19.343  0.00  0.00    +0.000 A 
ATOM      7  C   UNL     1       1.275   2.465  18.938  0.00  0.00    +0.000 A 
ATOM      8  C   UNL     1       2.238   2.106  18.016  0.00  0.00    +0.000 A 
ATOM      9  N   UNL     1       3.147   2.964  17.496  0.00  0.00    +0.000 NA
ATOM     10  C   UNL     1       3.102   4.262  17.888  0.00  0.00    +0.000 A 
ENDROOT
BRANCH   1  13
ATOM     11  C   UNL     1       5.606   5.373  15.479  0.00  0.00    +0.000 C 
ATOM     12  O   UNL     1       5.259   6.480  15.082  0.00  0.00    +0.000 OA
ATOM     13  N   UNL     1       5.076   4.708  16.569  0.00  0.00    +0.000 N 
ATOM     14  H   UNL     1       5.570   3.903  16.949  0.00  0.00    +0.000 HD
BRANCH  11  16
ATOM     15  C   UNL     1       6.163   3.851  13.572  0.00  0.00    +0.000 C 
ATOM     16  C   UNL     1       6.711   4.601  14.781  0.00  0.00    +0.000 C 
ENDBRANCH  11  16
ENDBRANCH   1  13
TORSDOF 2
ENDMDL
MODEL 6
REMARK VINA RESULT:      -6.3      0.995      2.816
REMARK  Name = 
REMARK  3 active torsions:
REMARK  status: ('A' for Active; 'I' for Inactive)
REMARK    1  A    between atoms: C_1  and  C_2
REMARK    2  A    between atoms: C_2  and  C_3
REMARK    3  A    between atoms: N_5  and  C_6
REMARK                            x       y       z     vdW  Elec       q    Type
REMARK                         _______ _______ _______ _____ _____    ______ ____
ROOT
ATOM      1  C   UNL     1       3.977   3.900  17.955  0.00  0.00    +0.000 A 
ATOM      2  C   UNL     1       3.906   2.526  17.688  0.00  0.00    +0.000 A 
ATOM      3  C   UNL     1       2.932   1.737  18.290  0.00  0.00    +0.000 A 
ATOM      4  C   UNL     1       2.029   2.314  19.170  0.00  0.00    +0.000 A 
ATOM      5  C   UNL     1       2.117   3.680  19.480  0.00  0.00    +0.000 A 
ATOM      6  C   UNL     1       1.212   4.266  20.371  0.00  0.00    +0.000 A 
ATOM      7  C   UNL     1       1.322   5.615  20.681  0.00  0.00    +0.000 A 
ATOM      8  C   UNL     1       2.337   6.335  20.081  0.00  0.00    +0.000 A 
ATOM      9  N   UNL     1       3.218   5.812  19.197  0.00  0.00    +0.000 NA
ATOM     10  C   UNL     1       3.115   4.495  18.891  0.00  0.00    +0.000 A 
ENDROOT
BRANCH   1  13
ATOM     11  C   UNL     1       6.227   4.928  17.643  0.00  0.00    +0.000 C 
ATOM     12  O   UNL     1       6.794   4.383  18.585  0.00  0.00    +0.000 OA
ATOM     13  N   UNL     1       4.905   4.746  17.288  0.00  0.00    +0.000 N 
ATOM     14  H   UNL     1       4.586   5.065  16.376  0.00  0.00    +0.000 HD
BRANCH  11  16
ATOM     15  C   UNL     1       7.426   7.121  17.507  0.00  0.00    +0.000 C 
ATOM     16  C   UNL     1       6.970   5.889  16.732  0.00  0.00    +0.000 C 
ENDBRANCH  11  16
ENDBRANCH   1  13
TORSDOF 2
ENDMDL
MODEL 7
REMARK VINA RESULT:      -6.3      2.198      5.481
REMARK  Name = 
REMARK  3 active torsions:
REMARK  status: ('A' for Active; 'I' for Inactive)
REMARK    1  A    between atoms: C_1  and  C_2
REMARK    2  A    between atoms: C_2  and  C_3
REMARK    3  A    between atoms: N_5  and  C_6
REMARK                            x       y       z     vdW  Elec       q    Type
REMARK                         _______ _______ _______ _____ _____    ______ ____
ROOT
ATOM      1  C   UNL     1       4.770   3.998  18.115  0.00  0.00    +0.000 A 
ATOM      2  C   UNL     1       4.196   3.862  16.844  0.00  0.00    +0.000 A 
ATOM      3  C   UNL     1       4.729   4.532  15.749  0.00  0.00    +0.000 A 
ATOM      4  C   UNL     1       5.835   5.352  15.919  0.00  0.00    +0.000 A 
ATOM      5  C   UNL     1       6.393   5.533  17.194  0.00  0.00    +0.000 A 
ATOM      6  C   UNL     1       7.505   6.362  17.371  0.00  0.00    +0.000 A 
ATOM      7  C   UNL     1       8.037   6.543  18.642  0.00  0.00    +0.000 A 
ATOM      8  C   UNL     1       7.436   5.881  19.694  0.00  0.00    +0.000 A 
ATOM      9  N   UNL     1       6.373   5.053  19.562  0.00  0.00    +0.000 NA
ATOM     10  C   UNL     1       5.851   4.872  18.324  0.00  0.00    +0.000 A 
ENDROOT
BRANCH   1  13
ATOM     11  C   UNL     1       3.132   3.502  19.928  0.00  0.00    +0.000 C 
ATOM     12  O   UNL     1       2.327   4.393  19.678  0.00  0.00    +0.000 OA
ATOM     13  N   UNL     1       4.302   3.257  19.234  0.00  0.00    +0.000 N 
ATOM     14  H   UNL     1       4.789   2.375  19.374  0.00  0.00    +0.000 HD
BRANCH  11  16
ATOM     15  C   UNL     1       1.518   2.750  21.687  0.00  0.00    +0.000 C 
ATOM     16  C   UNL     1       2.897   2.533  21.073  0.00  0.00    +0.000 C 
ENDBRANCH  11  16
ENDBRANCH   1  13
TORSDOF 2
ENDMDL
MODEL 8
REMARK VINA RESULT:      -6.3      1.366      3.082
REMARK  Name = 
REMARK  3 active torsions:
REMARK  status: ('A' for Active; 'I' for Inactive)
REMARK    1  A    between atoms: C_1  and  C_2
REMARK    2  A    between atoms: C_2  and  C_3
REMARK    3  A    between atoms: N_5  and  C_6
REMARK                            x       y       z     vdW  Elec       q    Type
REMARK                         _______ _______ _______ _____ _____    ______ ____
ROOT
ATOM      1  C   UNL     1       3.851   3.667  17.926  0.00  0.00    +0.000 A 
ATOM      2  C   UNL     1       3.666   2.278  17.914  0.00  0.00    +0.000 A 
ATOM      3  C   UNL     1       2.717   1.682  18.736  0.00  0.00    +0.000 A 
ATOM      4  C   UNL     1       1.951   2.469  19.583  0.00  0.00    +0.000 A 
ATOM      5  C   UNL     1       2.156   3.856  19.638  0.00  0.00    +0.000 A 
ATOM      6  C   UNL     1       1.390   4.655  20.494  0.00  0.00    +0.000 A 
ATOM      7  C   UNL     1       1.616   6.024  20.548  0.00  0.00    +0.000 A 
ATOM      8  C   UNL     1       2.602   6.549  19.737  0.00  0.00    +0.000 A 
ATOM      9  N   UNL     1       3.349   5.816  18.879  0.00  0.00    +0.000 NA
ATOM     10  C   UNL     1       3.132   4.478  18.821  0.00  0.00    +0.000 A 
ENDROOT
BRANCH   1  13
ATOM     11  C   UNL     1       6.083   4.574  17.287  0.00  0.00    +0.000 C 
ATOM     12  O   UNL     1       6.685   4.285  18.317  0.00  0.00    +0.000 OA
ATOM     13  N   UNL     1       4.750   4.312  17.035  0.00  0.00    +0.000 N 
ATOM     14  H   UNL     1       4.399   4.390  16.083  0.00  0.00    +0.000 HD
BRANCH  11  16
ATOM     15  C   UNL     1       6.303   4.724  14.799  0.00  0.00    +0.000 C 
ATOM     16  C   UNL     1       6.790   5.269  16.137  0.00  0.00    +0.000 C 
ENDBRANCH  11  16
ENDBRANCH   1  13
TORSDOF 2
ENDMDL
MODEL 9
REMARK VINA RESULT:      -6.2      1.650      2.115
REMARK  Name = 
REMARK  3 active torsions:
REMARK  status: ('A' for Active; 'I' for Inactive)
REMARK    1  A    between atoms: C_1  and  C_2
REMARK    2  A    between atoms: C_2  and  C_3
REMARK    3  A    between atoms: N_5  and  C_6
REMARK                            x       y       z     vdW  Elec       q    Type
REMARK                         _______ _______ _______ _____ _____    ______ ____
ROOT
ATOM      1  C   UNL     1       3.860   5.519  18.001  0.00  0.00    +0.000 A 
ATOM      2  C   UNL     1       3.382   6.831  17.884  0.00  0.00    +0.000 A 
ATOM      3  C   UNL     1       2.509   7.354  18.831  0.00  0.00    +0.000 A 
ATOM      4  C   UNL     1       2.100   6.566  19.897  0.00  0.00    +0.000 A 
ATOM      5  C   UNL     1       2.535   5.236  20.001  0.00  0.00    +0.000 A 
ATOM      6  C   UNL     1       2.121   4.435  21.070  0.00  0.00    +0.000 A 
ATOM      7  C   UNL     1       2.547   3.115  21.151  0.00  0.00    +0.000 A 
ATOM      8  C   UNL     1       3.381   2.643  20.156  0.00  0.00    +0.000 A 
ATOM      9  N   UNL     1       3.822   3.391  19.118  0.00  0.00    +0.000 NA
ATOM     10  C   UNL     1       3.409   4.680  19.034  0.00  0.00    +0.000 A 
ENDROOT
BRANCH   1  13
ATOM     11  C   UNL     1       6.183   5.206  17.151  0.00  0.00    +0.000 C 
ATOM     12  O   UNL     1       6.763   5.890  17.988  0.00  0.00    +0.000 OA
ATOM     13  N   UNL     1       4.820   4.987  17.098  0.00  0.00    +0.000 N 
ATOM     14  H   UNL     1       4.459   4.239  16.508  0.00  0.00    +0.000 HD
BRANCH  11  16
ATOM     15  C   UNL     1       6.012   4.051  14.938  0.00  0.00    +0.000 C 
ATOM     16  C   UNL     1       6.952   4.495  16.053  0.00  0.00    +0.000 C 
ENDBRANCH  11  16
ENDBRANCH   1  13
TORSDOF 2
ENDMDL
