MODEL 1
REMARK VINA RESULT:      -8.2      0.000      0.000
REMARK  Name = 
REMARK  5 active torsions:
REMARK  status: ('A' for Active; 'I' for Inactive)
REMARK    1  A    between atoms: C_2  and  C_20
REMARK    2  A    between atoms: N_3  and  N_4
REMARK    3  A    between atoms: C_5  and  C_6
REMARK    4  A    between atoms: C_9  and  C_10
REMARK    5  A    between atoms: C_15  and  N_16
REMARK                            x       y       z     vdW  Elec       q    Type
REMARK                         _______ _______ _______ _____ _____    ______ ____
ROOT
ATOM      1  N   UNL     1       2.608   8.518  18.438  0.00  0.00    +0.000 NA
ATOM      2  C   UNL     1       1.858   9.401  17.837  0.00  0.00    +0.000 C 
ENDROOT
BRANCH   2   3
ATOM      3  C   UNL     1       0.556   9.815  18.292  0.00  0.00    +0.000 A 
ATOM      4  C   UNL     1      -0.691   9.728  17.701  0.00  0.00    +0.000 A 
ATOM      5  C   UNL     1      -1.577  10.441  18.528  0.00  0.00    +0.000 A 
ATOM      6  C   UNL     1      -0.848  10.849  19.627  0.00  0.00    +0.000 A 
ATOM      7  O   UNL     1       0.446  10.434  19.503  0.00  0.00    +0.000 OA
BRANCH   6   8
ATOM      8  C   UNL     1      -1.217  11.542  20.854  0.00  0.00    +0.000 A 
ATOM      9  C   UNL     1      -1.912  12.756  20.723  0.00  0.00    +0.000 A 
ATOM     10  C   UNL     1      -2.350  13.467  21.841  0.00  0.00    +0.000 A 
ATOM     11  C   UNL     1      -2.106  12.978  23.123  0.00  0.00    +0.000 A 
ATOM     12  C   UNL     1      -1.408  11.787  23.291  0.00  0.00    +0.000 A 
ATOM     13  C   UNL     1      -0.961  11.085  22.155  0.00  0.00    +0.000 A 
BRANCH  13  14
ATOM     14  N   UNL     1      -0.173   9.892  22.395  0.00  0.00    +0.000 N 
ATOM     15  O   UNL     1       0.973  10.048  22.837  0.00  0.00    +0.000 OA
ATOM     16  O   UNL     1      -0.731   8.801  22.204  0.00  0.00    +0.000 OA
ENDBRANCH  13  14
ENDBRANCH   6   8
ENDBRANCH   2   3
BRANCH   1  19
ATOM     17  O   UNL     1       1.850   5.897  20.657  0.00  0.00    +0.000 OA
ATOM     18  C   UNL     1       2.332   6.469  19.678  0.00  0.00    +0.000 C 
ATOM     19  N   UNL     1       2.015   7.783  19.424  0.00  0.00    +0.000 N 
ATOM     20  H   UNL     1       1.378   8.235  20.073  0.00  0.00    +0.000 HD
BRANCH  18  21
ATOM     21  C   UNL     1       3.270   5.811  18.688  0.00  0.00    +0.000 C 
ATOM     22  C   UNL     1       2.862   4.382  18.384  0.00  0.00    +0.000 C 
ATOM     23  O   UNL     1       3.410   4.090  17.082  0.00  0.00    +0.000 OA
ATOM     24  C   UNL     1       4.752   4.415  17.070  0.00  0.00    +0.000 A 
ATOM     25  C   UNL     1       5.489   4.010  15.968  0.00  0.00    +0.000 A 
ATOM     26  C   UNL     1       6.878   4.114  16.010  0.00  0.00    +0.000 A 
ATOM     27  C   UNL     1       7.512   4.607  17.156  0.00  0.00    +0.000 A 
ATOM     28  C   UNL     1       6.759   5.132  18.209  0.00  0.00    +0.000 A 
ATOM     29  C   UNL     1       5.373   5.101  18.129  0.00  0.00    +0.000 A 
ATOM     30  O   UNL     1       4.646   5.758  19.103  0.00  0.00    +0.000 OA
ENDBRANCH  18  21
ENDBRANCH   1  19
TORSDOF 5
ENDMDL
MODEL 2
REMARK VINA RESULT:      -8.0      2.230      9.151
REMARK  Name = 
REMARK  5 active torsions:
REMARK  status: ('A' for Active; 'I' for Inactive)
REMARK    1  A    between atoms: C_2  and  C_20
REMARK    2  A    between atoms: N_3  and  N_4
REMARK    3  A    between atoms: C_5  and  C_6
REMARK    4  A    between atoms: C_9  and  C_10
REMARK    5  A    between atoms: C_15  and  N_16
REMARK                            x       y       z     vdW  Elec       q    Type
REMARK                         _______ _______ _______ _____ _____    ______ ____
ROOT
ATOM      1  N   UNL     1       0.714   9.768  19.345  0.00  0.00    +0.000 NA
ATOM      2  C   UNL     1       1.251   9.230  18.285  0.00  0.00    +0.000 C 
ENDROOT
BRANCH   2   3
ATOM      3  C   UNL     1       2.206   8.152  18.307  0.00  0.00    +0.000 A 
ATOM      4  C   UNL     1       3.359   7.934  17.575  0.00  0.00    +0.000 A 
ATOM      5  C   UNL     1       3.801   6.640  17.901  0.00  0.00    +0.000 A 
ATOM      6  C   UNL     1       2.952   6.168  18.881  0.00  0.00    +0.000 A 
ATOM      7  O   UNL     1       2.000   7.106  19.158  0.00  0.00    +0.000 OA
BRANCH   6   8
ATOM      8  C   UNL     1       2.940   4.945  19.672  0.00  0.00    +0.000 A 
ATOM      9  C   UNL     1       1.980   4.848  20.693  0.00  0.00    +0.000 A 
ATOM     10  C   UNL     1       1.859   3.696  21.471  0.00  0.00    +0.000 A 
ATOM     11  C   UNL     1       2.696   2.606  21.244  0.00  0.00    +0.000 A 
ATOM     12  C   UNL     1       3.667   2.671  20.251  0.00  0.00    +0.000 A 
ATOM     13  C   UNL     1       3.788   3.843  19.481  0.00  0.00    +0.000 A 
BRANCH  13  14
ATOM     14  N   UNL     1       4.868   3.880  18.515  0.00  0.00    +0.000 N 
ATOM     15  O   UNL     1       5.982   4.234  18.924  0.00  0.00    +0.000 OA
ATOM     16  O   UNL     1       4.610   3.490  17.367  0.00  0.00    +0.000 OA
ENDBRANCH  13  14
ENDBRANCH   6   8
ENDBRANCH   2   3
BRANCH   1  19
ATOM     17  O   UNL     1       1.255   9.452  22.806  0.00  0.00    +0.000 OA
ATOM     18  C   UNL     1       0.782   9.883  21.752  0.00  0.00    +0.000 C 
ATOM     19  N   UNL     1       1.272   9.436  20.547  0.00  0.00    +0.000 N 
ATOM     20  H   UNL     1       2.024   8.754  20.581  0.00  0.00    +0.000 HD
BRANCH  18  21
ATOM     21  C   UNL     1      -0.326  10.911  21.677  0.00  0.00    +0.000 C 
ATOM     22  C   UNL     1       0.211  12.305  21.409  0.00  0.00    +0.000 C 
ATOM     23  O   UNL     1      -0.876  13.028  20.796  0.00  0.00    +0.000 OA
ATOM     24  C   UNL     1      -2.009  12.891  21.572  0.00  0.00    +0.000 A 
ATOM     25  C   UNL     1      -3.096  13.688  21.248  0.00  0.00    +0.000 A 
ATOM     26  C   UNL     1      -4.174  13.750  22.128  0.00  0.00    +0.000 A 
ATOM     27  C   UNL     1      -4.145  13.029  23.327  0.00  0.00    +0.000 A 
ATOM     28  C   UNL     1      -3.108  12.130  23.586  0.00  0.00    +0.000 A 
ATOM     29  C   UNL     1      -2.074  12.010  22.667  0.00  0.00    +0.000 A 
ATOM     30  O   UNL     1      -1.137  11.013  22.860  0.00  0.00    +0.000 OA
ENDBRANCH  18  21
ENDBRANCH   1  19
TORSDOF 5
ENDMDL
MODEL 3
REMARK VINA RESULT:      -7.9      1.783      9.195
REMARK  Name = 
REMARK  5 active torsions:
REMARK  status: ('A' for Active; 'I' for Inactive)
REMARK    1  A    between atoms: C_2  and  C_20
REMARK    2  A    between atoms: N_3  and  N_4
REMARK    3  A    between atoms: C_5  and  C_6
REMARK    4  A    between atoms: C_9  and  C_10
REMARK    5  A    between atoms: C_15  and  N_16
REMARK                            x       y       z     vdW  Elec       q    Type
REMARK                         _______ _______ _______ _____ _____    ______ ____
ROOT
ATOM      1  N   UNL     1       2.148   7.431  19.897  0.00  0.00    +0.000 NA
ATOM      2  C   UNL     1       2.117   6.127  19.935  0.00  0.00    +0.000 C 
ENDROOT
BRANCH   2   3
ATOM      3  C   UNL     1       2.475   5.266  18.839  0.00  0.00    +0.000 A 
ATOM      4  C   UNL     1       1.872   4.130  18.330  0.00  0.00    +0.000 A 
ATOM      5  C   UNL     1       2.750   3.611  17.362  0.00  0.00    +0.000 A 
ATOM      6  C   UNL     1       3.799   4.501  17.262  0.00  0.00    +0.000 A 
ATOM      7  O   UNL     1       3.614   5.533  18.136  0.00  0.00    +0.000 OA
BRANCH   6   8
ATOM      8  C   UNL     1       4.963   4.562  16.388  0.00  0.00    +0.000 A 
ATOM      9  C   UNL     1       4.777   4.201  15.043  0.00  0.00    +0.000 A 
ATOM     10  C   UNL     1       5.820   4.274  14.119  0.00  0.00    +0.000 A 
ATOM     11  C   UNL     1       7.080   4.716  14.519  0.00  0.00    +0.000 A 
ATOM     12  C   UNL     1       7.305   5.068  15.845  0.00  0.00    +0.000 A 
ATOM     13  C   UNL     1       6.247   4.978  16.770  0.00  0.00    +0.000 A 
BRANCH  13  14
ATOM     14  N   UNL     1       6.562   5.284  18.152  0.00  0.00    +0.000 N 
ATOM     15  O   UNL     1       6.632   4.332  18.941  0.00  0.00    +0.000 OA
ATOM     16  O   UNL     1       6.804   6.468  18.425  0.00  0.00    +0.000 OA
ENDBRANCH  13  14
ENDBRANCH   6   8
ENDBRANCH   2   3
BRANCH   1  19
ATOM     17  O   UNL     1       2.195   9.783  17.283  0.00  0.00    +0.000 OA
ATOM     18  C   UNL     1       1.912   9.285  18.374  0.00  0.00    +0.000 C 
ATOM     19  N   UNL     1       2.311   8.002  18.667  0.00  0.00    +0.000 N 
ATOM     20  H   UNL     1       2.835   7.509  17.950  0.00  0.00    +0.000 HD
BRANCH  18  21
ATOM     21  C   UNL     1       1.119   9.994  19.451  0.00  0.00    +0.000 C 
ATOM     22  C   UNL     1      -0.376   9.821  19.260  0.00  0.00    +0.000 C 
ATOM     23  O   UNL     1      -0.957   9.997  20.569  0.00  0.00    +0.000 OA
ATOM     24  C   UNL     1      -0.489  11.173  21.120  0.00  0.00    +0.000 A 
ATOM     25  C   UNL     1      -1.099  11.610  22.286  0.00  0.00    +0.000 A 
ATOM     26  C   UNL     1      -0.819  12.892  22.754  0.00  0.00    +0.000 A 
ATOM     27  C   UNL     1       0.051  13.726  22.044  0.00  0.00    +0.000 A 
ATOM     28  C   UNL     1       0.759  13.235  20.945  0.00  0.00    +0.000 A 
ATOM     29  C   UNL     1       0.539  11.929  20.528  0.00  0.00    +0.000 A 
ATOM     30  O   UNL     1       1.353  11.410  19.539  0.00  0.00    +0.000 OA
ENDBRANCH  18  21
ENDBRANCH   1  19
TORSDOF 5
ENDMDL
MODEL 4
REMARK VINA RESULT:      -7.9      2.507      4.731
REMARK  Name = 
REMARK  5 active torsions:
REMARK  status: ('A' for Active; 'I' for Inactive)
REMARK    1  A    between atoms: C_2  and  C_20
REMARK    2  A    between atoms: N_3  and  N_4
REMARK    3  A    between atoms: C_5  and  C_6
REMARK    4  A    between atoms: C_9  and  C_10
REMARK    5  A    between atoms: C_15  and  N_16
REMARK                            x       y       z     vdW  Elec       q    Type
REMARK                         _______ _______ _______ _____ _____    ______ ____
ROOT
ATOM      1  N   UNL     1       4.494   3.348  18.431  0.00  0.00    +0.000 NA
ATOM      2  C   UNL     1       3.224   3.622  18.552  0.00  0.00    +0.000 C 
ENDROOT
BRANCH   2   3
ATOM      3  C   UNL     1       2.688   4.683  19.366  0.00  0.00    +0.000 A 
ATOM      4  C   UNL     1       2.170   4.682  20.648  0.00  0.00    +0.000 A 
ATOM      5  C   UNL     1       1.646   5.968  20.869  0.00  0.00    +0.000 A 
ATOM      6  C   UNL     1       1.950   6.715  19.750  0.00  0.00    +0.000 A 
ATOM      7  O   UNL     1       2.621   5.943  18.846  0.00  0.00    +0.000 OA
BRANCH   6   8
ATOM      8  C   UNL     1       1.753   8.120  19.416  0.00  0.00    +0.000 A 
ATOM      9  C   UNL     1       2.236   8.560  18.172  0.00  0.00    +0.000 A 
ATOM     10  C   UNL     1       2.050   9.875  17.744  0.00  0.00    +0.000 A 
ATOM     11  C   UNL     1       1.371  10.786  18.551  0.00  0.00    +0.000 A 
ATOM     12  C   UNL     1       0.891  10.389  19.795  0.00  0.00    +0.000 A 
ATOM     13  C   UNL     1       1.095   9.063  20.221  0.00  0.00    +0.000 A 
BRANCH  13  14
ATOM     14  N   UNL     1       0.642   8.730  21.557  0.00  0.00    +0.000 N 
ATOM     15  O   UNL     1      -0.494   8.250  21.668  0.00  0.00    +0.000 OA
ATOM     16  O   UNL     1       1.453   8.890  22.482  0.00  0.00    +0.000 OA
ENDBRANCH  13  14
ENDBRANCH   6   8
ENDBRANCH   2   3
BRANCH   1  19
ATOM     17  O   UNL     1       7.038   5.381  19.758  0.00  0.00    +0.000 OA
ATOM     18  C   UNL     1       6.388   4.758  18.917  0.00  0.00    +0.000 C 
ATOM     19  N   UNL     1       5.337   3.963  19.312  0.00  0.00    +0.000 N 
ATOM     20  H   UNL     1       5.141   3.923  20.307  0.00  0.00    +0.000 HD
BRANCH  18  21
ATOM     21  C   UNL     1       6.673   4.789  17.430  0.00  0.00    +0.000 C 
ATOM     22  C   UNL     1       6.864   6.204  16.919  0.00  0.00    +0.000 C 
ATOM     23  O   UNL     1       7.670   6.082  15.729  0.00  0.00    +0.000 OA
ATOM     24  C   UNL     1       7.103   5.144  14.890  0.00  0.00    +0.000 A 
ATOM     25  C   UNL     1       7.626   5.044  13.610  0.00  0.00    +0.000 A 
ATOM     26  C   UNL     1       6.949   4.279  12.663  0.00  0.00    +0.000 A 
ATOM     27  C   UNL     1       5.753   3.637  13.001  0.00  0.00    +0.000 A 
ATOM     28  C   UNL     1       5.302   3.635  14.323  0.00  0.00    +0.000 A 
ATOM     29  C   UNL     1       6.023   4.333  15.283  0.00  0.00    +0.000 A 
ATOM     30  O   UNL     1       5.652   4.199  16.608  0.00  0.00    +0.000 OA
ENDBRANCH  18  21
ENDBRANCH   1  19
TORSDOF 5
ENDMDL
MODEL 5
REMARK VINA RESULT:      -7.9      1.953      9.165
REMARK  Name = 
REMARK  5 active torsions:
REMARK  status: ('A' for Active; 'I' for Inactive)
REMARK    1  A    between atoms: C_2  and  C_20
REMARK    2  A    between atoms: N_3  and  N_4
REMARK    3  A    between atoms: C_5  and  C_6
REMARK    4  A    between atoms: C_9  and  C_10
REMARK    5  A    between atoms: C_15  and  N_16
REMARK                            x       y       z     vdW  Elec       q    Type
REMARK                         _______ _______ _______ _____ _____    ______ ____
ROOT
ATOM      1  N   UNL     1       2.326   6.764  19.853  0.00  0.00    +0.000 NA
ATOM      2  C   UNL     1       2.450   5.474  20.010  0.00  0.00    +0.000 C 
ENDROOT
BRANCH   2   3
ATOM      3  C   UNL     1       3.002   4.578  19.027  0.00  0.00    +0.000 A 
ATOM      4  C   UNL     1       2.825   3.222  18.820  0.00  0.00    +0.000 A 
ATOM      5  C   UNL     1       3.740   2.846  17.822  0.00  0.00    +0.000 A 
ATOM      6  C   UNL     1       4.366   4.003  17.404  0.00  0.00    +0.000 A 
ATOM      7  O   UNL     1       3.889   5.068  18.113  0.00  0.00    +0.000 OA
BRANCH   6   8
ATOM      8  C   UNL     1       5.337   4.277  16.353  0.00  0.00    +0.000 A 
ATOM      9  C   UNL     1       4.990   3.904  15.044  0.00  0.00    +0.000 A 
ATOM     10  C   UNL     1       5.833   4.170  13.964  0.00  0.00    +0.000 A 
ATOM     11  C   UNL     1       7.049   4.821  14.168  0.00  0.00    +0.000 A 
ATOM     12  C   UNL     1       7.431   5.191  15.452  0.00  0.00    +0.000 A 
ATOM     13  C   UNL     1       6.577   4.907  16.535  0.00  0.00    +0.000 A 
BRANCH  13  14
ATOM     14  N   UNL     1       7.065   5.247  17.857  0.00  0.00    +0.000 N 
ATOM     15  O   UNL     1       7.649   4.358  18.492  0.00  0.00    +0.000 OA
ATOM     16  O   UNL     1       6.920   6.422  18.225  0.00  0.00    +0.000 OA
ENDBRANCH  13  14
ENDBRANCH   6   8
ENDBRANCH   2   3
BRANCH   1  19
ATOM     17  O   UNL     1       2.399   8.911  17.068  0.00  0.00    +0.000 OA
ATOM     18  C   UNL     1       2.085   8.484  18.181  0.00  0.00    +0.000 C 
ATOM     19  N   UNL     1       2.523   7.246  18.590  0.00  0.00    +0.000 N 
ATOM     20  H   UNL     1       3.100   6.725  17.937  0.00  0.00    +0.000 HD
BRANCH  18  21
ATOM     21  C   UNL     1       1.213   9.236  19.164  0.00  0.00    +0.000 C 
ATOM     22  C   UNL     1       1.398  10.738  19.053  0.00  0.00    +0.000 C 
ATOM     23  O   UNL     1       0.176  11.318  19.554  0.00  0.00    +0.000 OA
ATOM     24  C   UNL     1      -0.111  10.774  20.789  0.00  0.00    +0.000 A 
ATOM     25  C   UNL     1      -1.136  11.363  21.515  0.00  0.00    +0.000 A 
ATOM     26  C   UNL     1      -1.315  10.998  22.847  0.00  0.00    +0.000 A 
ATOM     27  C   UNL     1      -0.460  10.064  23.442  0.00  0.00    +0.000 A 
ATOM     28  C   UNL     1       0.485   9.382  22.673  0.00  0.00    +0.000 A 
ATOM     29  C   UNL     1       0.607   9.689  21.324  0.00  0.00    +0.000 A 
ATOM     30  O   UNL     1       1.436   8.904  20.545  0.00  0.00    +0.000 OA
ENDBRANCH  18  21
ENDBRANCH   1  19
TORSDOF 5
ENDMDL
MODEL 6
REMARK VINA RESULT:      -7.8      1.534      2.022
REMARK  Name = 
REMARK  5 active torsions:
REMARK  status: ('A' for Active; 'I' for Inactive)
REMARK    1  A    between atoms: C_2  and  C_20
REMARK    2  A    between atoms: N_3  and  N_4
REMARK    3  A    between atoms: C_5  and  C_6
REMARK    4  A    between atoms: C_9  and  C_10
REMARK    5  A    between atoms: C_15  and  N_16
REMARK                            x       y       z     vdW  Elec       q    Type
REMARK                         _______ _______ _______ _____ _____    ______ ____
ROOT
ATOM      1  N   UNL     1       2.575   8.553  18.335  0.00  0.00    +0.000 NA
ATOM      2  C   UNL     1       1.862   9.512  17.811  0.00  0.00    +0.000 C 
ENDROOT
BRANCH   2   3
ATOM      3  C   UNL     1       0.636  10.020  18.369  0.00  0.00    +0.000 A 
ATOM      4  C   UNL     1      -0.678   9.906  17.951  0.00  0.00    +0.000 A 
ATOM      5  C   UNL     1      -1.438  10.741  18.789  0.00  0.00    +0.000 A 
ATOM      6  C   UNL     1      -0.569  11.251  19.731  0.00  0.00    +0.000 A 
ATOM      7  O   UNL     1       0.692  10.782  19.500  0.00  0.00    +0.000 OA
BRANCH   6   8
ATOM      8  C   UNL     1      -0.766  12.097  20.901  0.00  0.00    +0.000 A 
ATOM      9  C   UNL     1      -1.425  11.527  22.004  0.00  0.00    +0.000 A 
ATOM     10  C   UNL     1      -1.615  12.242  23.186  0.00  0.00    +0.000 A 
ATOM     11  C   UNL     1      -1.147  13.550  23.298  0.00  0.00    +0.000 A 
ATOM     12  C   UNL     1      -0.504  14.151  22.222  0.00  0.00    +0.000 A 
ATOM     13  C   UNL     1      -0.328  13.423  21.030  0.00  0.00    +0.000 A 
BRANCH  13  14
ATOM     14  N   UNL     1       0.280  14.129  19.919  0.00  0.00    +0.000 N 
ATOM     15  O   UNL     1       1.514  14.080  19.822  0.00  0.00    +0.000 OA
ATOM     16  O   UNL     1      -0.487  14.673  19.111  0.00  0.00    +0.000 OA
ENDBRANCH  13  14
ENDBRANCH   6   8
ENDBRANCH   2   3
BRANCH   1  19
ATOM     17  O   UNL     1       1.855   5.996  20.639  0.00  0.00    +0.000 OA
ATOM     18  C   UNL     1       2.328   6.542  19.640  0.00  0.00    +0.000 C 
ATOM     19  N   UNL     1       1.994   7.844  19.346  0.00  0.00    +0.000 N 
ATOM     20  H   UNL     1       1.353   8.308  19.983  0.00  0.00    +0.000 HD
BRANCH  18  21
ATOM     21  C   UNL     1       3.270   5.864  18.669  0.00  0.00    +0.000 C 
ATOM     22  C   UNL     1       2.847   4.439  18.369  0.00  0.00    +0.000 C 
ATOM     23  O   UNL     1       3.410   4.130  17.077  0.00  0.00    +0.000 OA
ATOM     24  C   UNL     1       4.756   4.436  17.082  0.00  0.00    +0.000 A 
ATOM     25  C   UNL     1       5.503   4.012  15.994  0.00  0.00    +0.000 A 
ATOM     26  C   UNL     1       6.892   4.098  16.056  0.00  0.00    +0.000 A 
ATOM     27  C   UNL     1       7.517   4.590  17.207  0.00  0.00    +0.000 A 
ATOM     28  C   UNL     1       6.756   5.134  18.245  0.00  0.00    +0.000 A 
ATOM     29  C   UNL     1       5.371   5.121  18.146  0.00  0.00    +0.000 A 
ATOM     30  O   UNL     1       4.639   5.795  19.105  0.00  0.00    +0.000 OA
ENDBRANCH  18  21
ENDBRANCH   1  19
TORSDOF 5
ENDMDL
MODEL 7
REMARK VINA RESULT:      -7.8      3.821      9.609
REMARK  Name = 
REMARK  5 active torsions:
REMARK  status: ('A' for Active; 'I' for Inactive)
REMARK    1  A    between atoms: C_2  and  C_20
REMARK    2  A    between atoms: N_3  and  N_4
REMARK    3  A    between atoms: C_5  and  C_6
REMARK    4  A    between atoms: C_9  and  C_10
REMARK    5  A    between atoms: C_15  and  N_16
REMARK                            x       y       z     vdW  Elec       q    Type
REMARK                         _______ _______ _______ _____ _____    ______ ____
ROOT
ATOM      1  N   UNL     1       6.333   4.642  19.179  0.00  0.00    +0.000 NA
ATOM      2  C   UNL     1       6.743   5.636  18.440  0.00  0.00    +0.000 C 
ENDROOT
BRANCH   2   3
ATOM      3  C   UNL     1       6.333   5.870  17.079  0.00  0.00    +0.000 A 
ATOM      4  C   UNL     1       5.605   6.896  16.505  0.00  0.00    +0.000 A 
ATOM      5  C   UNL     1       5.367   6.519  15.171  0.00  0.00    +0.000 A 
ATOM      6  C   UNL     1       6.037   5.330  14.971  0.00  0.00    +0.000 A 
ATOM      7  O   UNL     1       6.660   4.951  16.125  0.00  0.00    +0.000 OA
BRANCH   6   8
ATOM      8  C   UNL     1       6.239   4.497  13.794  0.00  0.00    +0.000 A 
ATOM      9  C   UNL     1       5.383   3.395  13.630  0.00  0.00    +0.000 A 
ATOM     10  C   UNL     1       5.467   2.568  12.509  0.00  0.00    +0.000 A 
ATOM     11  C   UNL     1       6.413   2.825  11.518  0.00  0.00    +0.000 A 
ATOM     12  C   UNL     1       7.286   3.898  11.653  0.00  0.00    +0.000 A 
ATOM     13  C   UNL     1       7.199   4.718  12.794  0.00  0.00    +0.000 A 
BRANCH  13  14
ATOM     14  N   UNL     1       8.186   5.773  12.917  0.00  0.00    +0.000 N 
ATOM     15  O   UNL     1       8.261   6.590  11.989  0.00  0.00    +0.000 OA
ATOM     16  O   UNL     1       8.834   5.817  13.972  0.00  0.00    +0.000 OA
ENDBRANCH  13  14
ENDBRANCH   6   8
ENDBRANCH   2   3
BRANCH   1  19
ATOM     17  O   UNL     1       3.767   2.810  17.621  0.00  0.00    +0.000 OA
ATOM     18  C   UNL     1       4.300   3.683  18.310  0.00  0.00    +0.000 C 
ATOM     19  N   UNL     1       5.656   3.645  18.538  0.00  0.00    +0.000 N 
ATOM     20  H   UNL     1       6.170   2.876  18.118  0.00  0.00    +0.000 HD
BRANCH  18  21
ATOM     21  C   UNL     1       3.550   4.827  18.959  0.00  0.00    +0.000 C 
ATOM     22  C   UNL     1       2.315   4.349  19.698  0.00  0.00    +0.000 C 
ATOM     23  O   UNL     1       2.052   5.349  20.703  0.00  0.00    +0.000 OA
ATOM     24  C   UNL     1       2.030   6.595  20.110  0.00  0.00    +0.000 A 
ATOM     25  C   UNL     1       1.587   7.655  20.885  0.00  0.00    +0.000 A 
ATOM     26  C   UNL     1       1.335   8.881  20.272  0.00  0.00    +0.000 A 
ATOM     27  C   UNL     1       1.514   9.027  18.892  0.00  0.00    +0.000 A 
ATOM     28  C   UNL     1       2.083   7.995  18.141  0.00  0.00    +0.000 A 
ATOM     29  C   UNL     1       2.408   6.802  18.771  0.00  0.00    +0.000 A 
ATOM     30  O   UNL     1       3.106   5.850  18.052  0.00  0.00    +0.000 OA
ENDBRANCH  18  21
ENDBRANCH   1  19
TORSDOF 5
ENDMDL
MODEL 8
REMARK VINA RESULT:      -7.7      2.595      4.086
REMARK  Name = 
REMARK  5 active torsions:
REMARK  status: ('A' for Active; 'I' for Inactive)
REMARK    1  A    between atoms: C_2  and  C_20
REMARK    2  A    between atoms: N_3  and  N_4
REMARK    3  A    between atoms: C_5  and  C_6
REMARK    4  A    between atoms: C_9  and  C_10
REMARK    5  A    between atoms: C_15  and  N_16
REMARK                            x       y       z     vdW  Elec       q    Type
REMARK                         _______ _______ _______ _____ _____    ______ ____
ROOT
ATOM      1  N   UNL     1       1.470   8.283  20.442  0.00  0.00    +0.000 NA
ATOM      2  C   UNL     1       0.721   8.962  21.268  0.00  0.00    +0.000 C 
ENDROOT
BRANCH   2   3
ATOM      3  C   UNL     1      -0.040  10.131  20.913  0.00  0.00    +0.000 A 
ATOM      4  C   UNL     1      -0.077  11.402  21.457  0.00  0.00    +0.000 A 
ATOM      5  C   UNL     1      -1.124  12.084  20.812  0.00  0.00    +0.000 A 
ATOM      6  C   UNL     1      -1.613  11.230  19.844  0.00  0.00    +0.000 A 
ATOM      7  O   UNL     1      -0.927  10.050  19.878  0.00  0.00    +0.000 OA
BRANCH   6   8
ATOM      8  C   UNL     1      -2.627  11.388  18.810  0.00  0.00    +0.000 A 
ATOM      9  C   UNL     1      -2.317  10.906  17.527  0.00  0.00    +0.000 A 
ATOM     10  C   UNL     1      -3.242  10.967  16.484  0.00  0.00    +0.000 A 
ATOM     11  C   UNL     1      -4.507  11.511  16.700  0.00  0.00    +0.000 A 
ATOM     12  C   UNL     1      -4.844  12.010  17.953  0.00  0.00    +0.000 A 
ATOM     13  C   UNL     1      -3.897  11.953  18.994  0.00  0.00    +0.000 A 
BRANCH  13  14
ATOM     14  N   UNL     1      -4.278  12.559  20.255  0.00  0.00    +0.000 N 
ATOM     15  O   UNL     1      -3.927  13.731  20.450  0.00  0.00    +0.000 OA
ATOM     16  O   UNL     1      -4.986  11.881  21.014  0.00  0.00    +0.000 OA
ENDBRANCH  13  14
ENDBRANCH   6   8
ENDBRANCH   2   3
BRANCH   1  19
ATOM     17  O   UNL     1       2.377   8.724  17.073  0.00  0.00    +0.000 OA
ATOM     18  C   UNL     1       2.289   8.183  18.177  0.00  0.00    +0.000 C 
ATOM     19  N   UNL     1       1.718   8.860  19.230  0.00  0.00    +0.000 N 
ATOM     20  H   UNL     1       1.387   9.802  19.044  0.00  0.00    +0.000 HD
BRANCH  18  21
ATOM     21  C   UNL     1       2.791   6.788  18.482  0.00  0.00    +0.000 C 
ATOM     22  C   UNL     1       4.155   6.530  17.870  0.00  0.00    +0.000 C 
ATOM     23  O   UNL     1       4.751   5.490  18.672  0.00  0.00    +0.000 OA
ATOM     24  C   UNL     1       3.863   4.438  18.785  0.00  0.00    +0.000 A 
ATOM     25  C   UNL     1       4.344   3.265  19.347  0.00  0.00    +0.000 A 
ATOM     26  C   UNL     1       3.561   2.115  19.279  0.00  0.00    +0.000 A 
ATOM     27  C   UNL     1       2.318   2.147  18.638  0.00  0.00    +0.000 A 
ATOM     28  C   UNL     1       1.785   3.358  18.189  0.00  0.00    +0.000 A 
ATOM     29  C   UNL     1       2.534   4.518  18.332  0.00  0.00    +0.000 A 
ATOM     30  O   UNL     1       1.937   5.726  18.024  0.00  0.00    +0.000 OA
ENDBRANCH  18  21
ENDBRANCH   1  19
TORSDOF 5
ENDMDL
MODEL 9
REMARK VINA RESULT:      -7.7      1.289      1.338
REMARK  Name = 
REMARK  5 active torsions:
REMARK  status: ('A' for Active; 'I' for Inactive)
REMARK    1  A    between atoms: C_2  and  C_20
REMARK    2  A    between atoms: N_3  and  N_4
REMARK    3  A    between atoms: C_5  and  C_6
REMARK    4  A    between atoms: C_9  and  C_10
REMARK    5  A    between atoms: C_15  and  N_16
REMARK                            x       y       z     vdW  Elec       q    Type
REMARK                         _______ _______ _______ _____ _____    ______ ____
ROOT
ATOM      1  N   UNL     1       2.415   8.667  18.342  0.00  0.00    +0.000 NA
ATOM      2  C   UNL     1       1.734   9.697  17.917  0.00  0.00    +0.000 C 
ENDROOT
BRANCH   2   3
ATOM      3  C   UNL     1       0.627  10.293  18.619  0.00  0.00    +0.000 A 
ATOM      4  C   UNL     1      -0.734  10.059  18.550  0.00  0.00    +0.000 A 
ATOM      5  C   UNL     1      -1.350  11.047  19.338  0.00  0.00    +0.000 A 
ATOM      6  C   UNL     1      -0.335  11.777  19.920  0.00  0.00    +0.000 A 
ATOM      7  O   UNL     1       0.875  11.294  19.512  0.00  0.00    +0.000 OA
BRANCH   6   8
ATOM      8  C   UNL     1      -0.331  12.864  20.891  0.00  0.00    +0.000 A 
ATOM      9  C   UNL     1       0.024  14.141  20.426  0.00  0.00    +0.000 A 
ATOM     10  C   UNL     1       0.009  15.252  21.269  0.00  0.00    +0.000 A 
ATOM     11  C   UNL     1      -0.367  15.114  22.604  0.00  0.00    +0.000 A 
ATOM     12  C   UNL     1      -0.710  13.863  23.103  0.00  0.00    +0.000 A 
ATOM     13  C   UNL     1      -0.680  12.747  22.245  0.00  0.00    +0.000 A 
BRANCH  13  14
ATOM     14  N   UNL     1      -0.973  11.458  22.841  0.00  0.00    +0.000 N 
ATOM     15  O   UNL     1      -0.026  10.673  22.987  0.00  0.00    +0.000 OA
ATOM     16  O   UNL     1      -2.137  11.266  23.221  0.00  0.00    +0.000 OA
ENDBRANCH  13  14
ENDBRANCH   6   8
ENDBRANCH   2   3
BRANCH   1  19
ATOM     17  O   UNL     1       1.837   6.180  20.760  0.00  0.00    +0.000 OA
ATOM     18  C   UNL     1       2.257   6.698  19.724  0.00  0.00    +0.000 C 
ATOM     19  N   UNL     1       1.890   7.984  19.401  0.00  0.00    +0.000 N 
ATOM     20  H   UNL     1       1.270   8.460  20.050  0.00  0.00    +0.000 HD
BRANCH  18  21
ATOM     21  C   UNL     1       3.167   6.001  18.734  0.00  0.00    +0.000 C 
ATOM     22  C   UNL     1       2.695   4.594  18.423  0.00  0.00    +0.000 C 
ATOM     23  O   UNL     1       3.234   4.282  17.122  0.00  0.00    +0.000 OA
ATOM     24  C   UNL     1       4.589   4.545  17.116  0.00  0.00    +0.000 A 
ATOM     25  C   UNL     1       5.311   4.110  16.015  0.00  0.00    +0.000 A 
ATOM     26  C   UNL     1       6.702   4.149  16.063  0.00  0.00    +0.000 A 
ATOM     27  C   UNL     1       7.354   4.608  17.213  0.00  0.00    +0.000 A 
ATOM     28  C   UNL     1       6.623   5.163  18.265  0.00  0.00    +0.000 A 
ATOM     29  C   UNL     1       5.237   5.196  18.180  0.00  0.00    +0.000 A 
ATOM     30  O   UNL     1       4.537   5.883  19.154  0.00  0.00    +0.000 OA
ENDBRANCH  18  21
ENDBRANCH   1  19
TORSDOF 5
ENDMDL
