MODEL 1
REMARK VINA RESULT:      -6.2      0.000      0.000
REMARK  Name = 
REMARK  5 active torsions:
REMARK  status: ('A' for Active; 'I' for Inactive)
REMARK    1  A    between atoms: C_1  and  C_2
REMARK    2  A    between atoms: N_8  and  C_9
REMARK    3  A    between atoms: C_9  and  C_10
REMARK    4  A    between atoms: C_10  and  O_11
REMARK    5  A    between atoms: C_15  and  C_16
REMARK                            x       y       z     vdW  Elec       q    Type
REMARK                         _______ _______ _______ _____ _____    ______ ____
ROOT
ATOM      1  C   UNL     1      -3.790  13.299  24.349  0.00  0.00    +0.000 C 
ATOM      2  C   UNL     1      -3.922  12.948  22.896  0.00  0.00    +0.000 A 
ATOM      3  N   UNL     1      -2.798  12.647  22.224  0.00  0.00    +0.000 NA
ATOM      4  C   UNL     1      -2.854  12.320  20.898  0.00  0.00    +0.000 A 
ATOM      5  N   UNL     1      -1.651  12.027  20.240  0.00  0.00    +0.000 N 
ATOM      6  C   UNL     1      -0.520  11.689  21.122  0.00  0.00    +0.000 C 
ATOM      7  C   UNL     1       0.653  11.160  20.260  0.00  0.00    +0.000 C 
ATOM      8  N   UNL     1       1.117  12.074  19.184  0.00  0.00    +0.000 NA
ATOM      9  C   UNL     1      -0.075  12.469  18.380  0.00  0.00    +0.000 C 
ATOM     10  C   UNL     1      -1.286  13.002  19.195  0.00  0.00    +0.000 C 
ATOM     11  C   UNL     1      -4.132  12.241  20.282  0.00  0.00    +0.000 A 
ATOM     12  C   UNL     1      -4.641  11.823  18.968  0.00  0.00    +0.000 A 
ATOM     13  C   UNL     1      -6.014  12.004  18.887  0.00  0.00    +0.000 A 
ATOM     14  S   UNL     1      -6.704  12.596  20.321  0.00  0.00    +0.000 S 
ATOM     15  C   UNL     1      -5.194  12.615  21.098  0.00  0.00    +0.000 A 
ATOM     16  N   UNL     1      -5.147  12.979  22.388  0.00  0.00    +0.000 NA
ENDROOT
BRANCH  12  17
ATOM     17  C   UNL     1      -3.945  11.221  17.814  0.00  0.00    +0.000 A 
ATOM     18  C   UNL     1      -2.999  10.206  17.991  0.00  0.00    +0.000 A 
ATOM     19  C   UNL     1      -2.344   9.631  16.895  0.00  0.00    +0.000 A 
ATOM     20  C   UNL     1      -2.667  10.023  15.602  0.00  0.00    +0.000 A 
ATOM     21  C   UNL     1      -3.633  11.002  15.401  0.00  0.00    +0.000 A 
ATOM     22  C   UNL     1      -4.252  11.610  16.498  0.00  0.00    +0.000 A 
ENDBRANCH  12  17
BRANCH   8  23
ATOM     23  C   UNL     1       1.796  13.285  19.691  0.00  0.00    +0.000 C 
BRANCH  23  24
ATOM     24  C   UNL     1       2.308  14.225  18.591  0.00  0.00    +0.000 C 
BRANCH  24  25
ATOM     25  O   UNL     1       3.335  13.603  17.825  0.00  0.00    +0.000 OA
ATOM     26  H   UNL     1       4.174  13.956  18.179  0.00  0.00    +0.000 HD
ENDBRANCH  24  25
ENDBRANCH  23  24
ENDBRANCH   8  23
TORSDOF 4
ENDMDL
MODEL 2
REMARK VINA RESULT:      -6.0      2.270      5.072
REMARK  Name = 
REMARK  5 active torsions:
REMARK  status: ('A' for Active; 'I' for Inactive)
REMARK    1  A    between atoms: C_1  and  C_2
REMARK    2  A    between atoms: N_8  and  C_9
REMARK    3  A    between atoms: C_9  and  C_10
REMARK    4  A    between atoms: C_10  and  O_11
REMARK    5  A    between atoms: C_15  and  C_16
REMARK                            x       y       z     vdW  Elec       q    Type
REMARK                         _______ _______ _______ _____ _____    ______ ____
ROOT
ATOM      1  C   UNL     1      -2.862  10.348  15.078  0.00  0.00    +0.000 C 
ATOM      2  C   UNL     1      -3.268  10.927  16.402  0.00  0.00    +0.000 A 
ATOM      3  N   UNL     1      -2.303  11.133  17.314  0.00  0.00    +0.000 NA
ATOM      4  C   UNL     1      -2.611  11.657  18.537  0.00  0.00    +0.000 A 
ATOM      5  N   UNL     1      -1.569  11.840  19.457  0.00  0.00    +0.000 N 
ATOM      6  C   UNL     1      -0.215  11.850  18.877  0.00  0.00    +0.000 C 
ATOM      7  C   UNL     1       0.797  12.298  19.961  0.00  0.00    +0.000 C 
ATOM      8  N   UNL     1       0.796  11.489  21.208  0.00  0.00    +0.000 NA
ATOM      9  C   UNL     1      -0.609  11.422  21.703  0.00  0.00    +0.000 C 
ATOM     10  C   UNL     1      -1.668  10.984  20.654  0.00  0.00    +0.000 C 
ATOM     11  C   UNL     1      -3.958  12.039  18.782  0.00  0.00    +0.000 A 
ATOM     12  C   UNL     1      -4.675  12.726  19.866  0.00  0.00    +0.000 A 
ATOM     13  C   UNL     1      -6.034  12.790  19.598  0.00  0.00    +0.000 A 
ATOM     14  S   UNL     1      -6.462  12.115  18.100  0.00  0.00    +0.000 S 
ATOM     15  C   UNL     1      -4.844  11.730  17.756  0.00  0.00    +0.000 A 
ATOM     16  N   UNL     1      -4.561  11.176  16.568  0.00  0.00    +0.000 NA
ENDROOT
BRANCH  12  17
ATOM     17  C   UNL     1      -4.173  13.368  21.097  0.00  0.00    +0.000 A 
ATOM     18  C   UNL     1      -4.385  12.788  22.351  0.00  0.00    +0.000 A 
ATOM     19  C   UNL     1      -3.902  13.394  23.517  0.00  0.00    +0.000 A 
ATOM     20  C   UNL     1      -3.151  14.561  23.440  0.00  0.00    +0.000 A 
ATOM     21  C   UNL     1      -2.895  15.134  22.200  0.00  0.00    +0.000 A 
ATOM     22  C   UNL     1      -3.418  14.552  21.039  0.00  0.00    +0.000 A 
ENDBRANCH  12  17
BRANCH   8  23
ATOM     23  C   UNL     1       1.323  10.121  21.023  0.00  0.00    +0.000 C 
BRANCH  23  24
ATOM     24  C   UNL     1       1.221   9.234  22.273  0.00  0.00    +0.000 C 
BRANCH  24  25
ATOM     25  O   UNL     1       2.386   9.357  23.082  0.00  0.00    +0.000 OA
ATOM     26  H   UNL     1       2.341  10.253  23.468  0.00  0.00    +0.000 HD
ENDBRANCH  24  25
ENDBRANCH  23  24
ENDBRANCH   8  23
TORSDOF 4
ENDMDL
MODEL 3
REMARK VINA RESULT:      -5.9      3.062      5.319
REMARK  Name = 
REMARK  5 active torsions:
REMARK  status: ('A' for Active; 'I' for Inactive)
REMARK    1  A    between atoms: C_1  and  C_2
REMARK    2  A    between atoms: N_8  and  C_9
REMARK    3  A    between atoms: C_9  and  C_10
REMARK    4  A    between atoms: C_10  and  O_11
REMARK    5  A    between atoms: C_15  and  C_16
REMARK                            x       y       z     vdW  Elec       q    Type
REMARK                         _______ _______ _______ _____ _____    ______ ____
ROOT
ATOM      1  C   UNL     1      -7.620  12.772  18.181  0.00  0.00    +0.000 C 
ATOM      2  C   UNL     1      -6.159  12.429  18.226  0.00  0.00    +0.000 A 
ATOM      3  N   UNL     1      -5.503  12.648  19.378  0.00  0.00    +0.000 NA
ATOM      4  C   UNL     1      -4.173  12.357  19.481  0.00  0.00    +0.000 A 
ATOM      5  N   UNL     1      -3.533  12.615  20.701  0.00  0.00    +0.000 N 
ATOM      6  C   UNL     1      -4.430  12.769  21.859  0.00  0.00    +0.000 C 
ATOM      7  C   UNL     1      -3.583  12.805  23.155  0.00  0.00    +0.000 C 
ATOM      8  N   UNL     1      -2.529  13.853  23.199  0.00  0.00    +0.000 NA
ATOM      9  C   UNL     1      -1.709  13.722  21.961  0.00  0.00    +0.000 C 
ATOM     10  C   UNL     1      -2.510  13.674  20.629  0.00  0.00    +0.000 C 
ATOM     11  C   UNL     1      -3.532  11.756  18.363  0.00  0.00    +0.000 A 
ATOM     12  C   UNL     1      -2.202  11.190  18.093  0.00  0.00    +0.000 A 
ATOM     13  C   UNL     1      -2.098  10.774  16.774  0.00  0.00    +0.000 A 
ATOM     14  S   UNL     1      -3.528  10.987  15.883  0.00  0.00    +0.000 S 
ATOM     15  C   UNL     1      -4.333  11.627  17.234  0.00  0.00    +0.000 A 
ATOM     16  N   UNL     1      -5.629  11.950  17.109  0.00  0.00    +0.000 NA
ENDROOT
BRANCH  12  17
ATOM     17  C   UNL     1      -1.052  10.964  18.991  0.00  0.00    +0.000 A 
ATOM     18  C   UNL     1       0.058  11.814  18.969  0.00  0.00    +0.000 A 
ATOM     19  C   UNL     1       1.145  11.603  19.826  0.00  0.00    +0.000 A 
ATOM     20  C   UNL     1       1.113  10.572  20.757  0.00  0.00    +0.000 A 
ATOM     21  C   UNL     1       0.002   9.739  20.823  0.00  0.00    +0.000 A 
ATOM     22  C   UNL     1      -1.063   9.922  19.934  0.00  0.00    +0.000 A 
ENDBRANCH  12  17
BRANCH   8  23
ATOM     23  C   UNL     1      -3.067  15.226  23.296  0.00  0.00    +0.000 C 
BRANCH  23  24
ATOM     24  C   UNL     1      -3.670  15.569  24.665  0.00  0.00    +0.000 C 
BRANCH  24  25
ATOM     25  O   UNL     1      -5.093  15.570  24.610  0.00  0.00    +0.000 OA
ATOM     26  H   UNL     1      -5.362  16.476  24.854  0.00  0.00    +0.000 HD
ENDBRANCH  24  25
ENDBRANCH  23  24
ENDBRANCH   8  23
TORSDOF 4
ENDMDL
MODEL 4
REMARK VINA RESULT:      -5.9      3.037      5.482
REMARK  Name = 
REMARK  5 active torsions:
REMARK  status: ('A' for Active; 'I' for Inactive)
REMARK    1  A    between atoms: C_1  and  C_2
REMARK    2  A    between atoms: N_8  and  C_9
REMARK    3  A    between atoms: C_9  and  C_10
REMARK    4  A    between atoms: C_10  and  O_11
REMARK    5  A    between atoms: C_15  and  C_16
REMARK                            x       y       z     vdW  Elec       q    Type
REMARK                         _______ _______ _______ _____ _____    ______ ____
ROOT
ATOM      1  C   UNL     1      -7.233  12.688  17.514  0.00  0.00    +0.000 C 
ATOM      2  C   UNL     1      -5.810  12.315  17.811  0.00  0.00    +0.000 A 
ATOM      3  N   UNL     1      -5.348  12.557  19.048  0.00  0.00    +0.000 NA
ATOM      4  C   UNL     1      -4.062  12.240  19.379  0.00  0.00    +0.000 A 
ATOM      5  N   UNL     1      -3.625  12.524  20.680  0.00  0.00    +0.000 N 
ATOM      6  C   UNL     1      -4.697  12.738  21.668  0.00  0.00    +0.000 C 
ATOM      7  C   UNL     1      -4.074  12.799  23.085  0.00  0.00    +0.000 C 
ATOM      8  N   UNL     1      -3.013  13.823  23.272  0.00  0.00    +0.000 NA
ATOM      9  C   UNL     1      -2.005  13.632  22.192  0.00  0.00    +0.000 C 
ATOM     10  C   UNL     1      -2.575  13.557  20.748  0.00  0.00    +0.000 C 
ATOM     11  C   UNL     1      -3.261  11.587  18.402  0.00  0.00    +0.000 A 
ATOM     12  C   UNL     1      -1.922  10.983  18.373  0.00  0.00    +0.000 A 
ATOM     13  C   UNL     1      -1.613  10.520  17.103  0.00  0.00    +0.000 A 
ATOM     14  S   UNL     1      -2.869  10.735  15.980  0.00  0.00    +0.000 S 
ATOM     15  C   UNL     1      -3.869  11.438  17.159  0.00  0.00    +0.000 A 
ATOM     16  N   UNL     1      -5.116  11.785  16.811  0.00  0.00    +0.000 NA
ENDROOT
BRANCH  12  17
ATOM     17  C   UNL     1      -0.943  10.762  19.456  0.00  0.00    +0.000 A 
ATOM     18  C   UNL     1      -0.995   9.614  20.253  0.00  0.00    +0.000 A 
ATOM     19  C   UNL     1      -0.062   9.402  21.275  0.00  0.00    +0.000 A 
ATOM     20  C   UNL     1       0.971  10.308  21.479  0.00  0.00    +0.000 A 
ATOM     21  C   UNL     1       1.065  11.437  20.672  0.00  0.00    +0.000 A 
ATOM     22  C   UNL     1       0.105  11.671  19.682  0.00  0.00    +0.000 A 
ENDBRANCH  12  17
BRANCH   8  23
ATOM     23  C   UNL     1      -3.521  15.211  23.238  0.00  0.00    +0.000 C 
BRANCH  23  24
ATOM     24  C   UNL     1      -3.628  15.875  24.618  0.00  0.00    +0.000 C 
BRANCH  24  25
ATOM     25  O   UNL     1      -3.322  14.949  25.655  0.00  0.00    +0.000 OA
ATOM     26  H   UNL     1      -2.948  15.485  26.381  0.00  0.00    +0.000 HD
ENDBRANCH  24  25
ENDBRANCH  23  24
ENDBRANCH   8  23
TORSDOF 4
ENDMDL
MODEL 5
REMARK VINA RESULT:      -5.8      0.411      1.045
REMARK  Name = 
REMARK  5 active torsions:
REMARK  status: ('A' for Active; 'I' for Inactive)
REMARK    1  A    between atoms: C_1  and  C_2
REMARK    2  A    between atoms: N_8  and  C_9
REMARK    3  A    between atoms: C_9  and  C_10
REMARK    4  A    between atoms: C_10  and  O_11
REMARK    5  A    between atoms: C_15  and  C_16
REMARK                            x       y       z     vdW  Elec       q    Type
REMARK                         _______ _______ _______ _____ _____    ______ ____
ROOT
ATOM      1  C   UNL     1      -3.622  13.635  24.280  0.00  0.00    +0.000 C 
ATOM      2  C   UNL     1      -3.780  13.221  22.846  0.00  0.00    +0.000 A 
ATOM      3  N   UNL     1      -2.676  12.841  22.183  0.00  0.00    +0.000 NA
ATOM      4  C   UNL     1      -2.756  12.455  20.875  0.00  0.00    +0.000 A 
ATOM      5  N   UNL     1      -1.572  12.079  20.225  0.00  0.00    +0.000 N 
ATOM      6  C   UNL     1      -0.450  11.735  21.115  0.00  0.00    +0.000 C 
ATOM      7  C   UNL     1       0.693  11.115  20.272  0.00  0.00    +0.000 C 
ATOM      8  N   UNL     1       1.187  11.957  19.151  0.00  0.00    +0.000 NA
ATOM      9  C   UNL     1       0.007  12.364  18.336  0.00  0.00    +0.000 C 
ATOM     10  C   UNL     1      -1.174  12.987  19.132  0.00  0.00    +0.000 C 
ATOM     11  C   UNL     1      -4.041  12.401  20.270  0.00  0.00    +0.000 A 
ATOM     12  C   UNL     1      -4.578  11.944  18.981  0.00  0.00    +0.000 A 
ATOM     13  C   UNL     1      -5.942  12.180  18.899  0.00  0.00    +0.000 A 
ATOM     14  S   UNL     1      -6.595  12.868  20.307  0.00  0.00    +0.000 S 
ATOM     15  C   UNL     1      -5.080  12.859  21.074  0.00  0.00    +0.000 A 
ATOM     16  N   UNL     1      -5.007  13.281  22.344  0.00  0.00    +0.000 NA
ENDROOT
BRANCH  12  17
ATOM     17  C   UNL     1      -3.917  11.258  17.852  0.00  0.00    +0.000 A 
ATOM     18  C   UNL     1      -4.150  11.653  16.532  0.00  0.00    +0.000 A 
ATOM     19  C   UNL     1      -3.518  11.007  15.463  0.00  0.00    +0.000 A 
ATOM     20  C   UNL     1      -2.600   9.992  15.703  0.00  0.00    +0.000 A 
ATOM     21  C   UNL     1      -2.324   9.609  17.010  0.00  0.00    +0.000 A 
ATOM     22  C   UNL     1      -2.991  10.224  18.075  0.00  0.00    +0.000 A 
ENDBRANCH  12  17
BRANCH   8  23
ATOM     23  C   UNL     1       1.922  13.160  19.596  0.00  0.00    +0.000 C 
BRANCH  23  24
ATOM     24  C   UNL     1       2.650  13.904  18.468  0.00  0.00    +0.000 C 
BRANCH  24  25
ATOM     25  O   UNL     1       3.500  14.919  18.991  0.00  0.00    +0.000 OA
ATOM     26  H   UNL     1       3.400  15.679  18.386  0.00  0.00    +0.000 HD
ENDBRANCH  24  25
ENDBRANCH  23  24
ENDBRANCH   8  23
TORSDOF 4
ENDMDL
MODEL 6
REMARK VINA RESULT:      -5.8      2.779      4.873
REMARK  Name = 
REMARK  5 active torsions:
REMARK  status: ('A' for Active; 'I' for Inactive)
REMARK    1  A    between atoms: C_1  and  C_2
REMARK    2  A    between atoms: N_8  and  C_9
REMARK    3  A    between atoms: C_9  and  C_10
REMARK    4  A    between atoms: C_10  and  O_11
REMARK    5  A    between atoms: C_15  and  C_16
REMARK                            x       y       z     vdW  Elec       q    Type
REMARK                         _______ _______ _______ _____ _____    ______ ____
ROOT
ATOM      1  C   UNL     1      -7.503  13.031  18.237  0.00  0.00    +0.000 C 
ATOM      2  C   UNL     1      -6.078  12.559  18.233  0.00  0.00    +0.000 A 
ATOM      3  N   UNL     1      -5.370  12.708  19.364  0.00  0.00    +0.000 NA
ATOM      4  C   UNL     1      -4.068  12.298  19.422  0.00  0.00    +0.000 A 
ATOM      5  N   UNL     1      -3.370  12.486  20.622  0.00  0.00    +0.000 N 
ATOM      6  C   UNL     1      -4.213  12.710  21.810  0.00  0.00    +0.000 C 
ATOM      7  C   UNL     1      -3.325  12.658  23.078  0.00  0.00    +0.000 C 
ATOM      8  N   UNL     1      -2.181  13.607  23.095  0.00  0.00    +0.000 NA
ATOM      9  C   UNL     1      -1.415  13.415  21.830  0.00  0.00    +0.000 C 
ATOM     10  C   UNL     1      -2.258  13.451  20.525  0.00  0.00    +0.000 C 
ATOM     11  C   UNL     1      -3.519  11.653  18.280  0.00  0.00    +0.000 A 
ATOM     12  C   UNL     1      -2.255  10.973  17.964  0.00  0.00    +0.000 A 
ATOM     13  C   UNL     1      -2.230  10.561  16.640  0.00  0.00    +0.000 A 
ATOM     14  S   UNL     1      -3.662  10.910  15.796  0.00  0.00    +0.000 S 
ATOM     15  C   UNL     1      -4.364  11.606  17.177  0.00  0.00    +0.000 A 
ATOM     16  N   UNL     1      -5.629  12.044  17.095  0.00  0.00    +0.000 NA
ENDROOT
BRANCH  12  17
ATOM     17  C   UNL     1      -1.102  10.637  18.824  0.00  0.00    +0.000 A 
ATOM     18  C   UNL     1       0.150  11.222  18.612  0.00  0.00    +0.000 A 
ATOM     19  C   UNL     1       1.241  10.908  19.432  0.00  0.00    +0.000 A 
ATOM     20  C   UNL     1       1.082  10.046  20.510  0.00  0.00    +0.000 A 
ATOM     21  C   UNL     1      -0.164   9.483  20.762  0.00  0.00    +0.000 A 
ATOM     22  C   UNL     1      -1.242   9.761  19.914  0.00  0.00    +0.000 A 
ENDBRANCH  12  17
BRANCH   8  23
ATOM     23  C   UNL     1      -2.590  15.022  23.218  0.00  0.00    +0.000 C 
BRANCH  23  24
ATOM     24  C   UNL     1      -1.508  15.940  23.804  0.00  0.00    +0.000 C 
BRANCH  24  25
ATOM     25  O   UNL     1      -0.755  15.266  24.807  0.00  0.00    +0.000 OA
ATOM     26  H   UNL     1       0.154  15.614  24.728  0.00  0.00    +0.000 HD
ENDBRANCH  24  25
ENDBRANCH  23  24
ENDBRANCH   8  23
TORSDOF 4
ENDMDL
MODEL 7
REMARK VINA RESULT:      -5.8      3.012      5.182
REMARK  Name = 
REMARK  5 active torsions:
REMARK  status: ('A' for Active; 'I' for Inactive)
REMARK    1  A    between atoms: C_1  and  C_2
REMARK    2  A    between atoms: N_8  and  C_9
REMARK    3  A    between atoms: C_9  and  C_10
REMARK    4  A    between atoms: C_10  and  O_11
REMARK    5  A    between atoms: C_15  and  C_16
REMARK                            x       y       z     vdW  Elec       q    Type
REMARK                         _______ _______ _______ _____ _____    ______ ____
ROOT
ATOM      1  C   UNL     1      -7.519  11.548  20.098  0.00  0.00    +0.000 C 
ATOM      2  C   UNL     1      -6.086  11.727  19.690  0.00  0.00    +0.000 A 
ATOM      3  N   UNL     1      -5.255  12.304  20.573  0.00  0.00    +0.000 NA
ATOM      4  C   UNL     1      -3.939  12.494  20.259  0.00  0.00    +0.000 A 
ATOM      5  N   UNL     1      -3.116  13.112  21.211  0.00  0.00    +0.000 N 
ATOM      6  C   UNL     1      -3.638  13.107  22.589  0.00  0.00    +0.000 C 
ATOM      7  C   UNL     1      -2.529  13.598  23.552  0.00  0.00    +0.000 C 
ATOM      8  N   UNL     1      -1.960  14.935  23.240  0.00  0.00    +0.000 NA
ATOM      9  C   UNL     1      -1.538  14.926  21.811  0.00  0.00    +0.000 C 
ATOM     10  C   UNL     1      -2.611  14.435  20.799  0.00  0.00    +0.000 C 
ATOM     11  C   UNL     1      -3.471  12.002  19.010  0.00  0.00    +0.000 A 
ATOM     12  C   UNL     1      -2.164  11.887  18.349  0.00  0.00    +0.000 A 
ATOM     13  C   UNL     1      -2.297  11.359  17.073  0.00  0.00    +0.000 A 
ATOM     14  S   UNL     1      -3.897  10.958  16.671  0.00  0.00    +0.000 S 
ATOM     15  C   UNL     1      -4.458  11.462  18.192  0.00  0.00    +0.000 A 
ATOM     16  N   UNL     1      -5.761  11.310  18.472  0.00  0.00    +0.000 NA
ENDROOT
BRANCH  12  17
ATOM     17  C   UNL     1      -0.805  12.183  18.845  0.00  0.00    +0.000 A 
ATOM     18  C   UNL     1      -0.095  13.295  18.384  0.00  0.00    +0.000 A 
ATOM     19  C   UNL     1       1.191  13.579  18.861  0.00  0.00    +0.000 A 
ATOM     20  C   UNL     1       1.763  12.785  19.847  0.00  0.00    +0.000 A 
ATOM     21  C   UNL     1       1.058  11.696  20.348  0.00  0.00    +0.000 A 
ATOM     22  C   UNL     1      -0.207  11.386  19.838  0.00  0.00    +0.000 A 
ENDBRANCH  12  17
BRANCH   8  23
ATOM     23  C   UNL     1      -2.906  16.047  23.471  0.00  0.00    +0.000 C 
BRANCH  23  24
ATOM     24  C   UNL     1      -3.516  16.070  24.880  0.00  0.00    +0.000 C 
BRANCH  24  25
ATOM     25  O   UNL     1      -4.926  15.876  24.829  0.00  0.00    +0.000 OA
ATOM     26  H   UNL     1      -5.244  16.467  24.119  0.00  0.00    +0.000 HD
ENDBRANCH  24  25
ENDBRANCH  23  24
ENDBRANCH   8  23
TORSDOF 4
ENDMDL
MODEL 8
REMARK VINA RESULT:      -5.7      2.957      4.855
REMARK  Name = 
REMARK  5 active torsions:
REMARK  status: ('A' for Active; 'I' for Inactive)
REMARK    1  A    between atoms: C_1  and  C_2
REMARK    2  A    between atoms: N_8  and  C_9
REMARK    3  A    between atoms: C_9  and  C_10
REMARK    4  A    between atoms: C_10  and  O_11
REMARK    5  A    between atoms: C_15  and  C_16
REMARK                            x       y       z     vdW  Elec       q    Type
REMARK                         _______ _______ _______ _____ _____    ______ ____
ROOT
ATOM      1  C   UNL     1      -7.578  11.636  20.325  0.00  0.00    +0.000 C 
ATOM      2  C   UNL     1      -6.176  11.771  19.808  0.00  0.00    +0.000 A 
ATOM      3  N   UNL     1      -5.244  12.245  20.651  0.00  0.00    +0.000 NA
ATOM      4  C   UNL     1      -3.950  12.391  20.238  0.00  0.00    +0.000 A 
ATOM      5  N   UNL     1      -3.019  12.901  21.154  0.00  0.00    +0.000 N 
ATOM      6  C   UNL     1      -3.425  12.827  22.568  0.00  0.00    +0.000 C 
ATOM      7  C   UNL     1      -2.215  13.195  23.462  0.00  0.00    +0.000 C 
ATOM      8  N   UNL     1      -1.601  14.521  23.189  0.00  0.00    +0.000 NA
ATOM      9  C   UNL     1      -1.300  14.589  21.731  0.00  0.00    +0.000 C 
ATOM     10  C   UNL     1      -2.478  14.222  20.786  0.00  0.00    +0.000 C 
ATOM     11  C   UNL     1      -3.615  11.964  18.924  0.00  0.00    +0.000 A 
ATOM     12  C   UNL     1      -2.375  11.830  18.147  0.00  0.00    +0.000 A 
ATOM     13  C   UNL     1      -2.642  11.398  16.857  0.00  0.00    +0.000 A 
ATOM     14  S   UNL     1      -4.289  11.105  16.568  0.00  0.00    +0.000 S 
ATOM     15  C   UNL     1      -4.694  11.531  18.162  0.00  0.00    +0.000 A 
ATOM     16  N   UNL     1      -5.975  11.424  18.543  0.00  0.00    +0.000 NA
ENDROOT
BRANCH  12  17
ATOM     17  C   UNL     1      -0.965  12.023  18.543  0.00  0.00    +0.000 A 
ATOM     18  C   UNL     1      -0.242  10.998  19.159  0.00  0.00    +0.000 A 
ATOM     19  C   UNL     1       1.097  11.180  19.528  0.00  0.00    +0.000 A 
ATOM     20  C   UNL     1       1.747  12.373  19.236  0.00  0.00    +0.000 A 
ATOM     21  C   UNL     1       1.058  13.392  18.589  0.00  0.00    +0.000 A 
ATOM     22  C   UNL     1      -0.293  13.226  18.263  0.00  0.00    +0.000 A 
ENDBRANCH  12  17
BRANCH   8  23
ATOM     23  C   UNL     1      -2.462  15.660  23.572  0.00  0.00    +0.000 C 
BRANCH  23  24
ATOM     24  C   UNL     1      -2.962  15.609  25.022  0.00  0.00    +0.000 C 
BRANCH  24  25
ATOM     25  O   UNL     1      -4.329  15.999  25.105  0.00  0.00    +0.000 OA
ATOM     26  H   UNL     1      -4.798  15.445  24.451  0.00  0.00    +0.000 HD
ENDBRANCH  24  25
ENDBRANCH  23  24
ENDBRANCH   8  23
TORSDOF 4
ENDMDL
MODEL 9
REMARK VINA RESULT:      -5.7      3.723      5.950
REMARK  Name = 
REMARK  5 active torsions:
REMARK  status: ('A' for Active; 'I' for Inactive)
REMARK    1  A    between atoms: C_1  and  C_2
REMARK    2  A    between atoms: N_8  and  C_9
REMARK    3  A    between atoms: C_9  and  C_10
REMARK    4  A    between atoms: C_10  and  O_11
REMARK    5  A    between atoms: C_15  and  C_16
REMARK                            x       y       z     vdW  Elec       q    Type
REMARK                         _______ _______ _______ _____ _____    ______ ____
ROOT
ATOM      1  C   UNL     1       1.800   9.614  17.959  0.00  0.00    +0.000 C 
ATOM      2  C   UNL     1       1.102  10.247  19.128  0.00  0.00    +0.000 A 
ATOM      3  N   UNL     1       0.843  11.563  19.060  0.00  0.00    +0.000 NA
ATOM      4  C   UNL     1       0.211  12.196  20.092  0.00  0.00    +0.000 A 
ATOM      5  N   UNL     1      -0.024  13.573  19.977  0.00  0.00    +0.000 N 
ATOM      6  C   UNL     1       0.046  14.108  18.606  0.00  0.00    +0.000 C 
ATOM      7  C   UNL     1      -0.469  15.569  18.607  0.00  0.00    +0.000 C 
ATOM      8  N   UNL     1       0.233  16.492  19.538  0.00  0.00    +0.000 NA
ATOM      9  C   UNL     1       0.226  15.863  20.889  0.00  0.00    +0.000 C 
ATOM     10  C   UNL     1       0.726  14.393  20.947  0.00  0.00    +0.000 C 
ATOM     11  C   UNL     1      -0.221  11.409  21.195  0.00  0.00    +0.000 A 
ATOM     12  C   UNL     1      -1.013  11.648  22.410  0.00  0.00    +0.000 A 
ATOM     13  C   UNL     1      -1.086  10.502  23.188  0.00  0.00    +0.000 A 
ATOM     14  S   UNL     1      -0.298   9.165  22.499  0.00  0.00    +0.000 S 
ATOM     15  C   UNL     1       0.152  10.071  21.135  0.00  0.00    +0.000 A 
ATOM     16  N   UNL     1       0.810   9.448  20.146  0.00  0.00    +0.000 NA
ENDROOT
BRANCH  12  17
ATOM     17  C   UNL     1      -1.744  12.849  22.861  0.00  0.00    +0.000 A 
ATOM     18  C   UNL     1      -1.130  13.802  23.679  0.00  0.00    +0.000 A 
ATOM     19  C   UNL     1      -1.823  14.944  24.100  0.00  0.00    +0.000 A 
ATOM     20  C   UNL     1      -3.122  15.176  23.665  0.00  0.00    +0.000 A 
ATOM     21  C   UNL     1      -3.738  14.260  22.820  0.00  0.00    +0.000 A 
ATOM     22  C   UNL     1      -3.062  13.097  22.437  0.00  0.00    +0.000 A 
ENDBRANCH  12  17
BRANCH   8  23
ATOM     23  C   UNL     1       1.624  16.789  19.137  0.00  0.00    +0.000 C 
BRANCH  23  24
ATOM     24  C   UNL     1       1.753  17.432  17.749  0.00  0.00    +0.000 C 
BRANCH  24  25
ATOM     25  O   UNL     1       3.103  17.407  17.298  0.00  0.00    +0.000 OA
ATOM     26  H   UNL     1       3.311  18.328  17.048  0.00  0.00    +0.000 HD
ENDBRANCH  24  25
ENDBRANCH  23  24
ENDBRANCH   8  23
TORSDOF 4
ENDMDL
