MODEL 1
REMARK VINA RESULT:      -9.0      0.000      0.000
REMARK  Name = 
REMARK  12 active torsions:
REMARK  status: ('A' for Active; 'I' for Inactive)
REMARK    1  A    between atoms: C_1  and  N_2
REMARK    2  A    between atoms: C_4  and  C_5
REMARK    3  A    between atoms: N_7  and  O_8
REMARK    4  A    between atoms: O_8  and  C_9
REMARK    5  A    between atoms: C_12  and  C_13
REMARK    6  A    between atoms: C_13  and  C_14
REMARK    7  A    between atoms: C_13  and  C_15
REMARK    8  A    between atoms: C_13  and  C_16
REMARK    9  A    between atoms: C_19  and  O_20
REMARK   10  A    between atoms: O_20  and  C_21
REMARK   11  A    between atoms: C_21  and  C_22
REMARK   12  A    between atoms: C_26  and  C_27
REMARK                            x       y       z     vdW  Elec       q    Type
REMARK                         _______ _______ _______ _____ _____    ______ ____
ROOT
ATOM      1  C   UNL     1       6.225   4.682  14.070  0.00  0.00    +0.000 C 
ATOM      2  N   UNL     1       6.292   5.387  15.327  0.00  0.00    +0.000 N 
ATOM      3  C   UNL     1       7.391   5.619  16.099  0.00  0.00    +0.000 A 
ATOM      4  C   UNL     1       6.966   6.422  17.148  0.00  0.00    +0.000 A 
ATOM      5  C   UNL     1       5.575   6.557  16.920  0.00  0.00    +0.000 A 
ATOM      6  N   UNL     1       5.169   5.909  15.825  0.00  0.00    +0.000 NA
ENDROOT
BRANCH   4   7
ATOM      7  C   UNL     1       7.771   7.004  18.206  0.00  0.00    +0.000 C 
ATOM      8  O   UNL     1       8.152   6.349  19.170  0.00  0.00    +0.000 OA
ATOM      9  N   UNL     1       8.076   8.338  18.007  0.00  0.00    +0.000 N 
ATOM     10  H   UNL     1       8.062   8.734  17.080  0.00  0.00    +0.000 HD
BRANCH   9  11
ATOM     11  O   UNL     1       9.019   8.833  18.934  0.00  0.00    +0.000 OA
BRANCH  11  12
ATOM     12  C   UNL     1       9.071  10.203  18.994  0.00  0.00    +0.000 A 
ATOM     13  C   UNL     1       9.414  10.734  20.235  0.00  0.00    +0.000 A 
ATOM     14  C   UNL     1       9.684  12.099  20.381  0.00  0.00    +0.000 A 
ATOM     15  C   UNL     1       9.629  12.973  19.285  0.00  0.00    +0.000 A 
ATOM     16  C   UNL     1       9.228  12.425  18.049  0.00  0.00    +0.000 A 
ATOM     17  C   UNL     1       8.964  11.053  17.898  0.00  0.00    +0.000 A 
BRANCH  15  18
ATOM     18  C   UNL     1      10.057  14.450  19.387  0.00  0.00    +0.000 C 
ATOM     19  C   UNL     1      10.786  14.793  20.707  0.00  0.00    +0.000 C 
ATOM     20  C   UNL     1      11.034  14.781  18.235  0.00  0.00    +0.000 C 
ATOM     21  C   UNL     1       8.831  15.379  19.284  0.00  0.00    +0.000 C 
ENDBRANCH  15  18
ENDBRANCH  11  12
ENDBRANCH   9  11
ENDBRANCH   4   7
BRANCH   5  22
ATOM     22  O   UNL     1       4.667   7.229  17.668  0.00  0.00    +0.000 OA
BRANCH  22  23
ATOM     23  C   UNL     1       3.320   6.888  17.325  0.00  0.00    +0.000 C 
BRANCH  23  24
ATOM     24  C   UNL     1       2.637   5.980  18.323  0.00  0.00    +0.000 A 
ATOM     25  C   UNL     1       2.352   6.508  19.597  0.00  0.00    +0.000 A 
ATOM     26  C   UNL     1       1.779   5.716  20.590  0.00  0.00    +0.000 A 
ATOM     27  C   UNL     1       1.482   4.382  20.323  0.00  0.00    +0.000 A 
ATOM     28  C   UNL     1       1.754   3.831  19.063  0.00  0.00    +0.000 A 
ATOM     29  C   UNL     1       2.330   4.640  18.069  0.00  0.00    +0.000 A 
BRANCH  28  30
ATOM     30  C   UNL     1       1.448   2.381  18.771  0.00  0.00    +0.000 C 
ATOM     31  F   UNL     1       0.154   2.165  18.393  0.00  0.00    +0.000 F 
ATOM     32  F   UNL     1       2.213   1.873  17.766  0.00  0.00    +0.000 F 
ATOM     33  F   UNL     1       1.654   1.574  19.848  0.00  0.00    +0.000 F 
ENDBRANCH  28  30
ENDBRANCH  23  24
ENDBRANCH  22  23
ENDBRANCH   5  22
TORSDOF 8
ENDMDL
MODEL 2
REMARK VINA RESULT:      -8.6      0.666      1.066
REMARK  Name = 
REMARK  12 active torsions:
REMARK  status: ('A' for Active; 'I' for Inactive)
REMARK    1  A    between atoms: C_1  and  N_2
REMARK    2  A    between atoms: C_4  and  C_5
REMARK    3  A    between atoms: N_7  and  O_8
REMARK    4  A    between atoms: O_8  and  C_9
REMARK    5  A    between atoms: C_12  and  C_13
REMARK    6  A    between atoms: C_13  and  C_14
REMARK    7  A    between atoms: C_13  and  C_15
REMARK    8  A    between atoms: C_13  and  C_16
REMARK    9  A    between atoms: C_19  and  O_20
REMARK   10  A    between atoms: O_20  and  C_21
REMARK   11  A    between atoms: C_21  and  C_22
REMARK   12  A    between atoms: C_26  and  C_27
REMARK                            x       y       z     vdW  Elec       q    Type
REMARK                         _______ _______ _______ _____ _____    ______ ____
ROOT
ATOM      1  C   UNL     1       5.891   3.802  14.551  0.00  0.00    +0.000 C 
ATOM      2  N   UNL     1       6.038   4.726  15.651  0.00  0.00    +0.000 N 
ATOM      3  C   UNL     1       7.125   4.906  16.453  0.00  0.00    +0.000 A 
ATOM      4  C   UNL     1       6.818   5.971  17.289  0.00  0.00    +0.000 A 
ATOM      5  C   UNL     1       5.492   6.309  16.922  0.00  0.00    +0.000 A 
ATOM      6  N   UNL     1       5.017   5.535  15.943  0.00  0.00    +0.000 NA
ENDROOT
BRANCH   4   7
ATOM      7  C   UNL     1       7.673   6.601  18.278  0.00  0.00    +0.000 C 
ATOM      8  O   UNL     1       8.188   5.966  19.192  0.00  0.00    +0.000 OA
ATOM      9  N   UNL     1       7.859   7.956  18.075  0.00  0.00    +0.000 N 
ATOM     10  H   UNL     1       7.730   8.359  17.160  0.00  0.00    +0.000 HD
BRANCH   9  11
ATOM     11  O   UNL     1       8.845   8.510  18.920  0.00  0.00    +0.000 OA
BRANCH  11  12
ATOM     12  C   UNL     1       8.921   9.879  18.860  0.00  0.00    +0.000 A 
ATOM     13  C   UNL     1       9.618  10.484  19.903  0.00  0.00    +0.000 A 
ATOM     14  C   UNL     1       9.928  11.848  19.861  0.00  0.00    +0.000 A 
ATOM     15  C   UNL     1       9.557  12.646  18.768  0.00  0.00    +0.000 A 
ATOM     16  C   UNL     1       8.805  12.024  17.748  0.00  0.00    +0.000 A 
ATOM     17  C   UNL     1       8.499  10.653  17.785  0.00  0.00    +0.000 A 
BRANCH  15  18
ATOM     18  C   UNL     1      10.005  14.113  18.629  0.00  0.00    +0.000 C 
ATOM     19  C   UNL     1       8.829  15.117  18.584  0.00  0.00    +0.000 C 
ATOM     20  C   UNL     1      10.879  14.500  19.845  0.00  0.00    +0.000 C 
ATOM     21  C   UNL     1      10.828  14.311  17.340  0.00  0.00    +0.000 C 
ENDBRANCH  15  18
ENDBRANCH  11  12
ENDBRANCH   9  11
ENDBRANCH   4   7
BRANCH   5  22
ATOM     22  O   UNL     1       4.701   7.274  17.448  0.00  0.00    +0.000 OA
BRANCH  22  23
ATOM     23  C   UNL     1       3.308   6.996  17.265  0.00  0.00    +0.000 C 
BRANCH  23  24
ATOM     24  C   UNL     1       2.738   6.007  18.257  0.00  0.00    +0.000 A 
ATOM     25  C   UNL     1       2.207   6.518  19.456  0.00  0.00    +0.000 A 
ATOM     26  C   UNL     1       1.719   5.667  20.445  0.00  0.00    +0.000 A 
ATOM     27  C   UNL     1       1.754   4.289  20.249  0.00  0.00    +0.000 A 
ATOM     28  C   UNL     1       2.276   3.753  19.063  0.00  0.00    +0.000 A 
ATOM     29  C   UNL     1       2.764   4.621  18.073  0.00  0.00    +0.000 A 
BRANCH  28  30
ATOM     30  C   UNL     1       2.331   2.258  18.850  0.00  0.00    +0.000 C 
ATOM     31  F   UNL     1       2.122   1.888  17.553  0.00  0.00    +0.000 F 
ATOM     32  F   UNL     1       3.535   1.721  19.195  0.00  0.00    +0.000 F 
ATOM     33  F   UNL     1       1.396   1.589  19.578  0.00  0.00    +0.000 F 
ENDBRANCH  28  30
ENDBRANCH  23  24
ENDBRANCH  22  23
ENDBRANCH   5  22
TORSDOF 8
ENDMDL
MODEL 3
REMARK VINA RESULT:      -8.6      0.837      1.363
REMARK  Name = 
REMARK  12 active torsions:
REMARK  status: ('A' for Active; 'I' for Inactive)
REMARK    1  A    between atoms: C_1  and  N_2
REMARK    2  A    between atoms: C_4  and  C_5
REMARK    3  A    between atoms: N_7  and  O_8
REMARK    4  A    between atoms: O_8  and  C_9
REMARK    5  A    between atoms: C_12  and  C_13
REMARK    6  A    between atoms: C_13  and  C_14
REMARK    7  A    between atoms: C_13  and  C_15
REMARK    8  A    between atoms: C_13  and  C_16
REMARK    9  A    between atoms: C_19  and  O_20
REMARK   10  A    between atoms: O_20  and  C_21
REMARK   11  A    between atoms: C_21  and  C_22
REMARK   12  A    between atoms: C_26  and  C_27
REMARK                            x       y       z     vdW  Elec       q    Type
REMARK                         _______ _______ _______ _____ _____    ______ ____
ROOT
ATOM      1  C   UNL     1       6.260   3.974  14.008  0.00  0.00    +0.000 C 
ATOM      2  N   UNL     1       6.262   4.787  15.201  0.00  0.00    +0.000 N 
ATOM      3  C   UNL     1       7.299   5.017  16.055  0.00  0.00    +0.000 A 
ATOM      4  C   UNL     1       6.838   5.940  16.984  0.00  0.00    +0.000 A 
ATOM      5  C   UNL     1       5.489   6.144  16.608  0.00  0.00    +0.000 A 
ATOM      6  N   UNL     1       5.139   5.425  15.539  0.00  0.00    +0.000 NA
ENDROOT
BRANCH   4   7
ATOM      7  C   UNL     1       7.583   6.563  18.063  0.00  0.00    +0.000 C 
ATOM      8  O   UNL     1       7.959   5.932  19.044  0.00  0.00    +0.000 OA
ATOM      9  N   UNL     1       7.838   7.907  17.862  0.00  0.00    +0.000 N 
ATOM     10  H   UNL     1       7.838   8.295  16.931  0.00  0.00    +0.000 HD
BRANCH   9  11
ATOM     11  O   UNL     1       8.729   8.449  18.814  0.00  0.00    +0.000 OA
BRANCH  11  12
ATOM     12  C   UNL     1       8.834   9.816  18.760  0.00  0.00    +0.000 A 
ATOM     13  C   UNL     1       9.601  10.396  19.768  0.00  0.00    +0.000 A 
ATOM     14  C   UNL     1       9.940  11.752  19.719  0.00  0.00    +0.000 A 
ATOM     15  C   UNL     1       9.531  12.567  18.653  0.00  0.00    +0.000 A 
ATOM     16  C   UNL     1       8.711  11.973  17.671  0.00  0.00    +0.000 A 
ATOM     17  C   UNL     1       8.374  10.609  17.714  0.00  0.00    +0.000 A 
BRANCH  15  18
ATOM     18  C   UNL     1      10.006  14.025  18.501  0.00  0.00    +0.000 C 
ATOM     19  C   UNL     1      10.963  14.242  17.305  0.00  0.00    +0.000 C 
ATOM     20  C   UNL     1       8.783  14.942  18.269  0.00  0.00    +0.000 C 
ATOM     21  C   UNL     1      10.745  14.491  19.772  0.00  0.00    +0.000 C 
ENDBRANCH  15  18
ENDBRANCH  11  12
ENDBRANCH   9  11
ENDBRANCH   4   7
BRANCH   5  22
ATOM     22  O   UNL     1       4.568   6.939  17.202  0.00  0.00    +0.000 OA
BRANCH  22  23
ATOM     23  C   UNL     1       4.487   6.720  18.614  0.00  0.00    +0.000 C 
BRANCH  23  24
ATOM     24  C   UNL     1       3.418   5.735  19.029  0.00  0.00    +0.000 A 
ATOM     25  C   UNL     1       2.442   6.177  19.943  0.00  0.00    +0.000 A 
ATOM     26  C   UNL     1       1.460   5.311  20.419  0.00  0.00    +0.000 A 
ATOM     27  C   UNL     1       1.439   3.987  19.987  0.00  0.00    +0.000 A 
ATOM     28  C   UNL     1       2.397   3.521  19.076  0.00  0.00    +0.000 A 
ATOM     29  C   UNL     1       3.381   4.404  18.601  0.00  0.00    +0.000 A 
BRANCH  28  30
ATOM     30  C   UNL     1       2.388   2.083  18.615  0.00  0.00    +0.000 C 
ATOM     31  F   UNL     1       3.535   1.408  18.921  0.00  0.00    +0.000 F 
ATOM     32  F   UNL     1       1.377   1.358  19.169  0.00  0.00    +0.000 F 
ATOM     33  F   UNL     1       2.243   1.965  17.266  0.00  0.00    +0.000 F 
ENDBRANCH  28  30
ENDBRANCH  23  24
ENDBRANCH  22  23
ENDBRANCH   5  22
TORSDOF 8
ENDMDL
MODEL 4
REMARK VINA RESULT:      -8.3      5.500      8.085
REMARK  Name = 
REMARK  12 active torsions:
REMARK  status: ('A' for Active; 'I' for Inactive)
REMARK    1  A    between atoms: C_1  and  N_2
REMARK    2  A    between atoms: C_4  and  C_5
REMARK    3  A    between atoms: N_7  and  O_8
REMARK    4  A    between atoms: O_8  and  C_9
REMARK    5  A    between atoms: C_12  and  C_13
REMARK    6  A    between atoms: C_13  and  C_14
REMARK    7  A    between atoms: C_13  and  C_15
REMARK    8  A    between atoms: C_13  and  C_16
REMARK    9  A    between atoms: C_19  and  O_20
REMARK   10  A    between atoms: O_20  and  C_21
REMARK   11  A    between atoms: C_21  and  C_22
REMARK   12  A    between atoms: C_26  and  C_27
REMARK                            x       y       z     vdW  Elec       q    Type
REMARK                         _______ _______ _______ _____ _____    ______ ____
ROOT
ATOM      1  C   UNL     1       1.907   2.644  21.948  0.00  0.00    +0.000 C 
ATOM      2  N   UNL     1       2.007   3.525  20.809  0.00  0.00    +0.000 N 
ATOM      3  C   UNL     1       2.005   4.888  20.802  0.00  0.00    +0.000 A 
ATOM      4  C   UNL     1       2.228   5.270  19.487  0.00  0.00    +0.000 A 
ATOM      5  C   UNL     1       2.294   4.039  18.791  0.00  0.00    +0.000 A 
ATOM      6  N   UNL     1       2.137   2.984  19.595  0.00  0.00    +0.000 NA
ENDROOT
BRANCH   4   7
ATOM      7  C   UNL     1       2.384   6.616  18.966  0.00  0.00    +0.000 C 
ATOM      8  O   UNL     1       2.872   6.835  17.864  0.00  0.00    +0.000 OA
ATOM      9  N   UNL     1       1.916   7.602  19.816  0.00  0.00    +0.000 N 
ATOM     10  H   UNL     1       1.224   7.387  20.518  0.00  0.00    +0.000 HD
BRANCH   9  11
ATOM     11  O   UNL     1       1.890   8.880  19.217  0.00  0.00    +0.000 OA
BRANCH  11  12
ATOM     12  C   UNL     1       0.812   9.644  19.587  0.00  0.00    +0.000 A 
ATOM     13  C   UNL     1       0.621   9.782  20.959  0.00  0.00    +0.000 A 
ATOM     14  C   UNL     1      -0.323  10.683  21.465  0.00  0.00    +0.000 A 
ATOM     15  C   UNL     1      -1.097  11.481  20.610  0.00  0.00    +0.000 A 
ATOM     16  C   UNL     1      -0.926  11.287  19.223  0.00  0.00    +0.000 A 
ATOM     17  C   UNL     1       0.027  10.389  18.713  0.00  0.00    +0.000 A 
BRANCH  15  18
ATOM     18  C   UNL     1      -2.041  12.579  21.138  0.00  0.00    +0.000 C 
ATOM     19  C   UNL     1      -1.401  13.987  21.159  0.00  0.00    +0.000 C 
ATOM     20  C   UNL     1      -3.287  12.666  20.227  0.00  0.00    +0.000 C 
ATOM     21  C   UNL     1      -2.496  12.259  22.576  0.00  0.00    +0.000 C 
ENDBRANCH  15  18
ENDBRANCH  11  12
ENDBRANCH   9  11
ENDBRANCH   4   7
BRANCH   5  22
ATOM     22  O   UNL     1       2.475   3.839  17.464  0.00  0.00    +0.000 OA
BRANCH  22  23
ATOM     23  C   UNL     1       3.729   3.212  17.173  0.00  0.00    +0.000 C 
BRANCH  23  24
ATOM     24  C   UNL     1       4.881   4.178  17.007  0.00  0.00    +0.000 A 
ATOM     25  C   UNL     1       5.095   4.726  15.728  0.00  0.00    +0.000 A 
ATOM     26  C   UNL     1       6.171   5.575  15.482  0.00  0.00    +0.000 A 
ATOM     27  C   UNL     1       7.051   5.891  16.514  0.00  0.00    +0.000 A 
ATOM     28  C   UNL     1       6.861   5.361  17.798  0.00  0.00    +0.000 A 
ATOM     29  C   UNL     1       5.771   4.507  18.035  0.00  0.00    +0.000 A 
BRANCH  28  30
ATOM     30  C   UNL     1       7.820   5.687  18.919  0.00  0.00    +0.000 C 
ATOM     31  F   UNL     1       8.820   4.769  19.061  0.00  0.00    +0.000 F 
ATOM     32  F   UNL     1       8.444   6.885  18.745  0.00  0.00    +0.000 F 
ATOM     33  F   UNL     1       7.207   5.752  20.132  0.00  0.00    +0.000 F 
ENDBRANCH  28  30
ENDBRANCH  23  24
ENDBRANCH  22  23
ENDBRANCH   5  22
TORSDOF 8
ENDMDL
MODEL 5
REMARK VINA RESULT:      -8.3      3.029      3.603
REMARK  Name = 
REMARK  12 active torsions:
REMARK  status: ('A' for Active; 'I' for Inactive)
REMARK    1  A    between atoms: C_1  and  N_2
REMARK    2  A    between atoms: C_4  and  C_5
REMARK    3  A    between atoms: N_7  and  O_8
REMARK    4  A    between atoms: O_8  and  C_9
REMARK    5  A    between atoms: C_12  and  C_13
REMARK    6  A    between atoms: C_13  and  C_14
REMARK    7  A    between atoms: C_13  and  C_15
REMARK    8  A    between atoms: C_13  and  C_16
REMARK    9  A    between atoms: C_19  and  O_20
REMARK   10  A    between atoms: O_20  and  C_21
REMARK   11  A    between atoms: C_21  and  C_22
REMARK   12  A    between atoms: C_26  and  C_27
REMARK                            x       y       z     vdW  Elec       q    Type
REMARK                         _______ _______ _______ _____ _____    ______ ____
ROOT
ATOM      1  C   UNL     1       6.375   4.067  13.545  0.00  0.00    +0.000 C 
ATOM      2  N   UNL     1       6.323   4.828  14.771  0.00  0.00    +0.000 N 
ATOM      3  C   UNL     1       7.306   4.981  15.703  0.00  0.00    +0.000 A 
ATOM      4  C   UNL     1       6.816   5.881  16.639  0.00  0.00    +0.000 A 
ATOM      5  C   UNL     1       5.505   6.154  16.182  0.00  0.00    +0.000 A 
ATOM      6  N   UNL     1       5.204   5.495  15.060  0.00  0.00    +0.000 NA
ENDROOT
BRANCH   4   7
ATOM      7  C   UNL     1       7.507   6.428  17.793  0.00  0.00    +0.000 C 
ATOM      8  O   UNL     1       7.811   5.736  18.757  0.00  0.00    +0.000 OA
ATOM      9  N   UNL     1       7.798   7.775  17.682  0.00  0.00    +0.000 N 
ATOM     10  H   UNL     1       7.861   8.213  16.776  0.00  0.00    +0.000 HD
BRANCH   9  11
ATOM     11  O   UNL     1       8.640   8.244  18.714  0.00  0.00    +0.000 OA
BRANCH  11  12
ATOM     12  C   UNL     1       8.756   9.611  18.757  0.00  0.00    +0.000 A 
ATOM     13  C   UNL     1       9.327  10.126  19.918  0.00  0.00    +0.000 A 
ATOM     14  C   UNL     1       9.672  11.479  20.008  0.00  0.00    +0.000 A 
ATOM     15  C   UNL     1       9.466  12.356  18.932  0.00  0.00    +0.000 A 
ATOM     16  C   UNL     1       8.837  11.825  17.786  0.00  0.00    +0.000 A 
ATOM     17  C   UNL     1       8.496  10.466  17.690  0.00  0.00    +0.000 A 
BRANCH  15  18
ATOM     18  C   UNL     1       9.963  13.814  18.951  0.00  0.00    +0.000 C 
ATOM     19  C   UNL     1       8.892  14.827  19.417  0.00  0.00    +0.000 C 
ATOM     20  C   UNL     1      11.154  13.937  19.931  0.00  0.00    +0.000 C 
ATOM     21  C   UNL     1      10.427  14.248  17.546  0.00  0.00    +0.000 C 
ENDBRANCH  15  18
ENDBRANCH  11  12
ENDBRANCH   9  11
ENDBRANCH   4   7
BRANCH   5  22
ATOM     22  O   UNL     1       4.574   6.959  16.747  0.00  0.00    +0.000 OA
BRANCH  22  23
ATOM     23  C   UNL     1       3.620   6.228  17.524  0.00  0.00    +0.000 C 
BRANCH  23  24
ATOM     24  C   UNL     1       2.826   7.079  18.491  0.00  0.00    +0.000 A 
ATOM     25  C   UNL     1       2.443   6.493  19.712  0.00  0.00    +0.000 A 
ATOM     26  C   UNL     1       1.659   7.191  20.628  0.00  0.00    +0.000 A 
ATOM     27  C   UNL     1       1.247   8.489  20.336  0.00  0.00    +0.000 A 
ATOM     28  C   UNL     1       1.615   9.097  19.128  0.00  0.00    +0.000 A 
ATOM     29  C   UNL     1       2.407   8.383  18.212  0.00  0.00    +0.000 A 
BRANCH  28  30
ATOM     30  C   UNL     1       1.159  10.498  18.797  0.00  0.00    +0.000 C 
ATOM     31  F   UNL     1      -0.100  10.549  18.272  0.00  0.00    +0.000 F 
ATOM     32  F   UNL     1       1.134  11.315  19.887  0.00  0.00    +0.000 F 
ATOM     33  F   UNL     1       1.962  11.111  17.885  0.00  0.00    +0.000 F 
ENDBRANCH  28  30
ENDBRANCH  23  24
ENDBRANCH  22  23
ENDBRANCH   5  22
TORSDOF 8
ENDMDL
MODEL 6
REMARK VINA RESULT:      -8.2      5.256      8.281
REMARK  Name = 
REMARK  12 active torsions:
REMARK  status: ('A' for Active; 'I' for Inactive)
REMARK    1  A    between atoms: C_1  and  N_2
REMARK    2  A    between atoms: C_4  and  C_5
REMARK    3  A    between atoms: N_7  and  O_8
REMARK    4  A    between atoms: O_8  and  C_9
REMARK    5  A    between atoms: C_12  and  C_13
REMARK    6  A    between atoms: C_13  and  C_14
REMARK    7  A    between atoms: C_13  and  C_15
REMARK    8  A    between atoms: C_13  and  C_16
REMARK    9  A    between atoms: C_19  and  O_20
REMARK   10  A    between atoms: O_20  and  C_21
REMARK   11  A    between atoms: C_21  and  C_22
REMARK   12  A    between atoms: C_26  and  C_27
REMARK                            x       y       z     vdW  Elec       q    Type
REMARK                         _______ _______ _______ _____ _____    ______ ____
ROOT
ATOM      1  C   UNL     1       1.655   2.496  21.826  0.00  0.00    +0.000 C 
ATOM      2  N   UNL     1       1.830   3.529  20.833  0.00  0.00    +0.000 N 
ATOM      3  C   UNL     1       1.792   4.879  21.015  0.00  0.00    +0.000 A 
ATOM      4  C   UNL     1       2.117   5.445  19.790  0.00  0.00    +0.000 A 
ATOM      5  C   UNL     1       2.276   4.325  18.939  0.00  0.00    +0.000 A 
ATOM      6  N   UNL     1       2.079   3.165  19.573  0.00  0.00    +0.000 NA
ENDROOT
BRANCH   4   7
ATOM      7  C   UNL     1       2.282   6.852  19.476  0.00  0.00    +0.000 C 
ATOM      8  O   UNL     1       2.808   7.230  18.436  0.00  0.00    +0.000 OA
ATOM      9  N   UNL     1       1.776   7.703  20.442  0.00  0.00    +0.000 N 
ATOM     10  H   UNL     1       1.060   7.387  21.078  0.00  0.00    +0.000 HD
BRANCH   9  11
ATOM     11  O   UNL     1       1.762   9.055  20.034  0.00  0.00    +0.000 OA
BRANCH  11  12
ATOM     12  C   UNL     1       0.981   9.863  20.821  0.00  0.00    +0.000 A 
ATOM     13  C   UNL     1       1.055  11.225  20.537  0.00  0.00    +0.000 A 
ATOM     14  C   UNL     1       0.173  12.131  21.136  0.00  0.00    +0.000 A 
ATOM     15  C   UNL     1      -0.819  11.699  22.029  0.00  0.00    +0.000 A 
ATOM     16  C   UNL     1      -0.842  10.324  22.344  0.00  0.00    +0.000 A 
ATOM     17  C   UNL     1       0.038   9.411  21.738  0.00  0.00    +0.000 A 
BRANCH  15  18
ATOM     18  C   UNL     1      -1.890  12.651  22.593  0.00  0.00    +0.000 C 
ATOM     19  C   UNL     1      -2.907  11.954  23.528  0.00  0.00    +0.000 C 
ATOM     20  C   UNL     1      -1.205  13.761  23.424  0.00  0.00    +0.000 C 
ATOM     21  C   UNL     1      -2.691  13.307  21.450  0.00  0.00    +0.000 C 
ENDBRANCH  15  18
ENDBRANCH  11  12
ENDBRANCH   9  11
ENDBRANCH   4   7
BRANCH   5  22
ATOM     22  O   UNL     1       2.576   4.315  17.618  0.00  0.00    +0.000 OA
BRANCH  22  23
ATOM     23  C   UNL     1       3.695   3.474  17.320  0.00  0.00    +0.000 C 
BRANCH  23  24
ATOM     24  C   UNL     1       4.879   4.206  16.729  0.00  0.00    +0.000 A 
ATOM     25  C   UNL     1       5.418   3.712  15.525  0.00  0.00    +0.000 A 
ATOM     26  C   UNL     1       6.545   4.294  14.951  0.00  0.00    +0.000 A 
ATOM     27  C   UNL     1       7.152   5.382  15.572  0.00  0.00    +0.000 A 
ATOM     28  C   UNL     1       6.636   5.896  16.771  0.00  0.00    +0.000 A 
ATOM     29  C   UNL     1       5.497   5.301  17.339  0.00  0.00    +0.000 A 
BRANCH  28  30
ATOM     30  C   UNL     1       7.298   7.067  17.458  0.00  0.00    +0.000 C 
ATOM     31  F   UNL     1       6.432   8.076  17.765  0.00  0.00    +0.000 F 
ATOM     32  F   UNL     1       7.889   6.721  18.635  0.00  0.00    +0.000 F 
ATOM     33  F   UNL     1       8.273   7.638  16.699  0.00  0.00    +0.000 F 
ENDBRANCH  28  30
ENDBRANCH  23  24
ENDBRANCH  22  23
ENDBRANCH   5  22
TORSDOF 8
ENDMDL
MODEL 7
REMARK VINA RESULT:      -8.2      5.979      8.088
REMARK  Name = 
REMARK  12 active torsions:
REMARK  status: ('A' for Active; 'I' for Inactive)
REMARK    1  A    between atoms: C_1  and  N_2
REMARK    2  A    between atoms: C_4  and  C_5
REMARK    3  A    between atoms: N_7  and  O_8
REMARK    4  A    between atoms: O_8  and  C_9
REMARK    5  A    between atoms: C_12  and  C_13
REMARK    6  A    between atoms: C_13  and  C_14
REMARK    7  A    between atoms: C_13  and  C_15
REMARK    8  A    between atoms: C_13  and  C_16
REMARK    9  A    between atoms: C_19  and  O_20
REMARK   10  A    between atoms: O_20  and  C_21
REMARK   11  A    between atoms: C_21  and  C_22
REMARK   12  A    between atoms: C_26  and  C_27
REMARK                            x       y       z     vdW  Elec       q    Type
REMARK                         _______ _______ _______ _____ _____    ______ ____
ROOT
ATOM      1  C   UNL     1       1.507   2.593  21.890  0.00  0.00    +0.000 C 
ATOM      2  N   UNL     1       2.093   3.425  20.866  0.00  0.00    +0.000 N 
ATOM      3  C   UNL     1       1.640   4.624  20.402  0.00  0.00    +0.000 A 
ATOM      4  C   UNL     1       2.595   5.075  19.500  0.00  0.00    +0.000 A 
ATOM      5  C   UNL     1       3.547   4.028  19.472  0.00  0.00    +0.000 A 
ATOM      6  N   UNL     1       3.225   3.020  20.287  0.00  0.00    +0.000 NA
ENDROOT
BRANCH   4   7
ATOM      7  C   UNL     1       2.615   6.338  18.785  0.00  0.00    +0.000 C 
ATOM      8  O   UNL     1       2.850   6.403  17.584  0.00  0.00    +0.000 OA
ATOM      9  N   UNL     1       2.325   7.434  19.578  0.00  0.00    +0.000 N 
ATOM     10  H   UNL     1       1.804   7.324  20.434  0.00  0.00    +0.000 HD
BRANCH   9  11
ATOM     11  O   UNL     1       2.152   8.622  18.835  0.00  0.00    +0.000 OA
BRANCH  11  12
ATOM     12  C   UNL     1       1.079   9.376  19.238  0.00  0.00    +0.000 A 
ATOM     13  C   UNL     1       1.028   9.662  20.600  0.00  0.00    +0.000 A 
ATOM     14  C   UNL     1       0.095  10.573  21.107  0.00  0.00    +0.000 A 
ATOM     15  C   UNL     1      -0.810  11.235  20.263  0.00  0.00    +0.000 A 
ATOM     16  C   UNL     1      -0.777  10.891  18.895  0.00  0.00    +0.000 A 
ATOM     17  C   UNL     1       0.164   9.981  18.383  0.00  0.00    +0.000 A 
BRANCH  15  18
ATOM     18  C   UNL     1      -1.751  12.344  20.771  0.00  0.00    +0.000 C 
ATOM     19  C   UNL     1      -1.202  13.772  20.544  0.00  0.00    +0.000 C 
ATOM     20  C   UNL     1      -3.099  12.257  20.019  0.00  0.00    +0.000 C 
ATOM     21  C   UNL     1      -2.011  12.186  22.283  0.00  0.00    +0.000 C 
ENDBRANCH  15  18
ENDBRANCH  11  12
ENDBRANCH   9  11
ENDBRANCH   4   7
BRANCH   5  22
ATOM     22  O   UNL     1       4.678   3.947  18.732  0.00  0.00    +0.000 OA
BRANCH  22  23
ATOM     23  C   UNL     1       4.454   3.330  17.461  0.00  0.00    +0.000 C 
BRANCH  23  24
ATOM     24  C   UNL     1       5.339   3.856  16.352  0.00  0.00    +0.000 A 
ATOM     25  C   UNL     1       6.259   4.870  16.677  0.00  0.00    +0.000 A 
ATOM     26  C   UNL     1       7.065   5.448  15.699  0.00  0.00    +0.000 A 
ATOM     27  C   UNL     1       6.964   5.018  14.378  0.00  0.00    +0.000 A 
ATOM     28  C   UNL     1       6.057   4.008  14.027  0.00  0.00    +0.000 A 
ATOM     29  C   UNL     1       5.250   3.432  15.023  0.00  0.00    +0.000 A 
BRANCH  28  30
ATOM     30  C   UNL     1       5.931   3.548  12.594  0.00  0.00    +0.000 C 
ATOM     31  F   UNL     1       6.245   2.231  12.418  0.00  0.00    +0.000 F 
ATOM     32  F   UNL     1       4.669   3.692  12.104  0.00  0.00    +0.000 F 
ATOM     33  F   UNL     1       6.746   4.235  11.748  0.00  0.00    +0.000 F 
ENDBRANCH  28  30
ENDBRANCH  23  24
ENDBRANCH  22  23
ENDBRANCH   5  22
TORSDOF 8
ENDMDL
MODEL 8
REMARK VINA RESULT:      -8.2      2.533      3.219
REMARK  Name = 
REMARK  12 active torsions:
REMARK  status: ('A' for Active; 'I' for Inactive)
REMARK    1  A    between atoms: C_1  and  N_2
REMARK    2  A    between atoms: C_4  and  C_5
REMARK    3  A    between atoms: N_7  and  O_8
REMARK    4  A    between atoms: O_8  and  C_9
REMARK    5  A    between atoms: C_12  and  C_13
REMARK    6  A    between atoms: C_13  and  C_14
REMARK    7  A    between atoms: C_13  and  C_15
REMARK    8  A    between atoms: C_13  and  C_16
REMARK    9  A    between atoms: C_19  and  O_20
REMARK   10  A    between atoms: O_20  and  C_21
REMARK   11  A    between atoms: C_21  and  C_22
REMARK   12  A    between atoms: C_26  and  C_27
REMARK                            x       y       z     vdW  Elec       q    Type
REMARK                         _______ _______ _______ _____ _____    ______ ____
ROOT
ATOM      1  C   UNL     1       6.438   3.915  13.525  0.00  0.00    +0.000 C 
ATOM      2  N   UNL     1       6.313   4.743  14.700  0.00  0.00    +0.000 N 
ATOM      3  C   UNL     1       7.222   4.919  15.701  0.00  0.00    +0.000 A 
ATOM      4  C   UNL     1       6.687   5.882  16.545  0.00  0.00    +0.000 A 
ATOM      5  C   UNL     1       5.426   6.166  15.968  0.00  0.00    +0.000 A 
ATOM      6  N   UNL     1       5.195   5.456  14.861  0.00  0.00    +0.000 NA
ENDROOT
BRANCH   4   7
ATOM      7  C   UNL     1       7.300   6.472  17.722  0.00  0.00    +0.000 C 
ATOM      8  O   UNL     1       7.422   5.853  18.772  0.00  0.00    +0.000 OA
ATOM      9  N   UNL     1       7.741   7.769  17.531  0.00  0.00    +0.000 N 
ATOM     10  H   UNL     1       7.949   8.109  16.604  0.00  0.00    +0.000 HD
BRANCH   9  11
ATOM     11  O   UNL     1       8.508   8.256  18.611  0.00  0.00    +0.000 OA
BRANCH  11  12
ATOM     12  C   UNL     1       8.689   9.616  18.595  0.00  0.00    +0.000 A 
ATOM     13  C   UNL     1       9.632  10.104  19.496  0.00  0.00    +0.000 A 
ATOM     14  C   UNL     1      10.044  11.440  19.449  0.00  0.00    +0.000 A 
ATOM     15  C   UNL     1       9.531  12.327  18.490  0.00  0.00    +0.000 A 
ATOM     16  C   UNL     1       8.538  11.826  17.622  0.00  0.00    +0.000 A 
ATOM     17  C   UNL     1       8.128  10.482  17.663  0.00  0.00    +0.000 A 
BRANCH  15  18
ATOM     18  C   UNL     1      10.067  13.761  18.324  0.00  0.00    +0.000 C 
ATOM     19  C   UNL     1       8.956  14.819  18.128  0.00  0.00    +0.000 C 
ATOM     20  C   UNL     1      10.852  14.165  19.594  0.00  0.00    +0.000 C 
ATOM     21  C   UNL     1      11.009  13.852  17.106  0.00  0.00    +0.000 C 
ENDBRANCH  15  18
ENDBRANCH  11  12
ENDBRANCH   9  11
ENDBRANCH   4   7
BRANCH   5  22
ATOM     22  O   UNL     1       4.479   7.027  16.412  0.00  0.00    +0.000 OA
BRANCH  22  23
ATOM     23  C   UNL     1       3.972   6.662  17.700  0.00  0.00    +0.000 C 
BRANCH  23  24
ATOM     24  C   UNL     1       2.928   7.610  18.246  0.00  0.00    +0.000 A 
ATOM     25  C   UNL     1       2.623   8.754  17.484  0.00  0.00    +0.000 A 
ATOM     26  C   UNL     1       1.717   9.705  17.948  0.00  0.00    +0.000 A 
ATOM     27  C   UNL     1       1.100   9.526  19.183  0.00  0.00    +0.000 A 
ATOM     28  C   UNL     1       1.383   8.395  19.962  0.00  0.00    +0.000 A 
ATOM     29  C   UNL     1       2.298   7.442  19.483  0.00  0.00    +0.000 A 
BRANCH  28  30
ATOM     30  C   UNL     1       0.730   8.201  21.310  0.00  0.00    +0.000 C 
ATOM     31  F   UNL     1      -0.483   8.819  21.418  0.00  0.00    +0.000 F 
ATOM     32  F   UNL     1       0.500   6.890  21.600  0.00  0.00    +0.000 F 
ATOM     33  F   UNL     1       1.482   8.688  22.334  0.00  0.00    +0.000 F 
ENDBRANCH  28  30
ENDBRANCH  23  24
ENDBRANCH  22  23
ENDBRANCH   5  22
TORSDOF 8
ENDMDL
MODEL 9
REMARK VINA RESULT:      -8.1      5.357      7.582
REMARK  Name = 
REMARK  12 active torsions:
REMARK  status: ('A' for Active; 'I' for Inactive)
REMARK    1  A    between atoms: C_1  and  N_2
REMARK    2  A    between atoms: C_4  and  C_5
REMARK    3  A    between atoms: N_7  and  O_8
REMARK    4  A    between atoms: O_8  and  C_9
REMARK    5  A    between atoms: C_12  and  C_13
REMARK    6  A    between atoms: C_13  and  C_14
REMARK    7  A    between atoms: C_13  and  C_15
REMARK    8  A    between atoms: C_13  and  C_16
REMARK    9  A    between atoms: C_19  and  O_20
REMARK   10  A    between atoms: O_20  and  C_21
REMARK   11  A    between atoms: C_21  and  C_22
REMARK   12  A    between atoms: C_26  and  C_27
REMARK                            x       y       z     vdW  Elec       q    Type
REMARK                         _______ _______ _______ _____ _____    ______ ____
ROOT
ATOM      1  C   UNL     1       2.110   3.374  21.797  0.00  0.00    +0.000 C 
ATOM      2  N   UNL     1       2.173   4.181  20.602  0.00  0.00    +0.000 N 
ATOM      3  C   UNL     1       2.257   5.539  20.513  0.00  0.00    +0.000 A 
ATOM      4  C   UNL     1       2.397   5.830  19.163  0.00  0.00    +0.000 A 
ATOM      5  C   UNL     1       2.328   4.561  18.540  0.00  0.00    +0.000 A 
ATOM      6  N   UNL     1       2.170   3.566  19.417  0.00  0.00    +0.000 NA
ENDROOT
BRANCH   4   7
ATOM      7  C   UNL     1       2.596   7.131  18.551  0.00  0.00    +0.000 C 
ATOM      8  O   UNL     1       3.396   7.306  17.638  0.00  0.00    +0.000 OA
ATOM      9  N   UNL     1       1.792   8.126  19.078  0.00  0.00    +0.000 N 
ATOM     10  H   UNL     1       0.931   7.893  19.548  0.00  0.00    +0.000 HD
BRANCH   9  11
ATOM     11  O   UNL     1       1.852   9.330  18.343  0.00  0.00    +0.000 OA
BRANCH  11  12
ATOM     12  C   UNL     1       1.167  10.368  18.924  0.00  0.00    +0.000 A 
ATOM     13  C   UNL     1       0.156   9.996  19.807  0.00  0.00    +0.000 A 
ATOM     14  C   UNL     1      -0.487  10.951  20.603  0.00  0.00    +0.000 A 
ATOM     15  C   UNL     1      -0.128  12.306  20.548  0.00  0.00    +0.000 A 
ATOM     16  C   UNL     1       0.861  12.668  19.609  0.00  0.00    +0.000 A 
ATOM     17  C   UNL     1       1.513  11.711  18.814  0.00  0.00    +0.000 A 
BRANCH  15  18
ATOM     18  C   UNL     1      -0.718  13.354  21.510  0.00  0.00    +0.000 C 
ATOM     19  C   UNL     1      -1.152  12.767  22.874  0.00  0.00    +0.000 C 
ATOM     20  C   UNL     1       0.347  14.436  21.806  0.00  0.00    +0.000 C 
ATOM     21  C   UNL     1      -1.956  14.030  20.886  0.00  0.00    +0.000 C 
ENDBRANCH  15  18
ENDBRANCH  11  12
ENDBRANCH   9  11
ENDBRANCH   4   7
BRANCH   5  22
ATOM     22  O   UNL     1       2.388   4.275  17.218  0.00  0.00    +0.000 OA
BRANCH  22  23
ATOM     23  C   UNL     1       3.487   3.416  16.895  0.00  0.00    +0.000 C 
BRANCH  23  24
ATOM     24  C   UNL     1       4.805   4.136  16.721  0.00  0.00    +0.000 A 
ATOM     25  C   UNL     1       5.290   4.303  15.410  0.00  0.00    +0.000 A 
ATOM     26  C   UNL     1       6.525   4.901  15.172  0.00  0.00    +0.000 A 
ATOM     27  C   UNL     1       7.296   5.343  16.244  0.00  0.00    +0.000 A 
ATOM     28  C   UNL     1       6.837   5.191  17.560  0.00  0.00    +0.000 A 
ATOM     29  C   UNL     1       5.589   4.588  17.788  0.00  0.00    +0.000 A 
BRANCH  28  30
ATOM     30  C   UNL     1       7.675   5.654  18.729  0.00  0.00    +0.000 C 
ATOM     31  F   UNL     1       8.216   6.895  18.550  0.00  0.00    +0.000 F 
ATOM     32  F   UNL     1       6.965   5.728  19.889  0.00  0.00    +0.000 F 
ATOM     33  F   UNL     1       8.727   4.828  18.981  0.00  0.00    +0.000 F 
ENDBRANCH  28  30
ENDBRANCH  23  24
ENDBRANCH  22  23
ENDBRANCH   5  22
TORSDOF 8
ENDMDL
