MODEL 1
REMARK VINA RESULT:      -8.2      0.000      0.000
REMARK  Name = 
REMARK  12 active torsions:
REMARK  status: ('A' for Active; 'I' for Inactive)
REMARK    1  A    between atoms: C_2  and  CA_3
REMARK    2  A    between atoms: CA_3  and  CB_4
REMARK    3  A    between atoms: CA_3  and  N_11
REMARK    4  A    between atoms: CB_4  and  CG_5
REMARK    5  A    between atoms: C_12  and  C_14
REMARK    6  A    between atoms: C_14  and  C_15
REMARK    7  A    between atoms: C_14  and  N_24
REMARK    8  A    between atoms: C_15  and  O_16
REMARK    9  A    between atoms: O_16  and  C_17
REMARK   10  A    between atoms: C_17  and  C_18
REMARK   11  A    between atoms: N_24  and  S_25
REMARK   12  A    between atoms: S_25  and  C_28
REMARK                            x       y       z     vdW  Elec       q    Type
REMARK                         _______ _______ _______ _____ _____    ______ ____
ROOT
ATOM      1  C   UNK A   0       6.638   6.745  17.534  0.00  0.00    +0.000 C 
ENDROOT
BRANCH   1   3
ATOM      2  N   PHE A   1       4.286   7.265  17.927  0.00  0.00    +0.000 N 
ATOM      3  C   UNK A   0       5.340   6.458  18.273  0.00  0.00    +0.000 C 
ATOM      4  O   UNK A   0       5.269   5.554  19.101  0.00  0.00    +0.000 OA
ATOM      5  H   PHE A   1       4.396   8.009  17.243  0.00  0.00    +0.000 HD
BRANCH   2   6
ATOM      6  CA  PHE A   1       2.913   6.936  18.286  0.00  0.00    +0.000 C 
BRANCH   6   8
ATOM      7  O   PHE A   1       2.321   9.076  17.295  0.00  0.00    +0.000 OA
ATOM      8  C   PHE A   1       2.052   8.176  18.091  0.00  0.00    +0.000 C 
ENDBRANCH   6   8
BRANCH   6   9
ATOM      9  CB  PHE A   1       2.709   6.342  19.691  0.00  0.00    +0.000 C 
BRANCH   9  10
ATOM     10  CG  PHE A   1       2.073   4.969  19.721  0.00  0.00    +0.000 A 
ATOM     11  CD1 PHE A   1       1.781   4.332  20.932  0.00  0.00    +0.000 A 
ATOM     12  CE1 PHE A   1       1.205   3.061  20.941  0.00  0.00    +0.000 A 
ATOM     13  CZ  PHE A   1       0.911   2.415  19.743  0.00  0.00    +0.000 A 
ATOM     14  CE2 PHE A   1       1.196   3.036  18.531  0.00  0.00    +0.000 A 
ATOM     15  CD2 PHE A   1       1.768   4.307  18.521  0.00  0.00    +0.000 A 
ENDBRANCH   9  10
ENDBRANCH   6   9
ENDBRANCH   2   6
ENDBRANCH   1   3
BRANCH   1  16
ATOM     16  N   UNK A   0       6.765   5.834  16.369  0.00  0.00    +0.000 NA
ATOM     17  H   UNK A   0       7.235   4.947  16.558  0.00  0.00    +0.000 HD
BRANCH  16  18
ATOM     18  S   UNK A   0       5.403   5.587  15.409  0.00  0.00    +0.000 S 
ATOM     19  O   UNK A   0       4.598   4.587  16.073  0.00  0.00    +0.000 OA
ATOM     20  O   UNK A   0       4.861   6.858  14.981  0.00  0.00    +0.000 OA
BRANCH  18  21
ATOM     21  C   UNK A   0       6.125   4.830  13.983  0.00  0.00    +0.000 A 
ATOM     22  C   UNK A   0       7.339   5.311  13.493  0.00  0.00    +0.000 A 
ATOM     23  C   UNK A   0       7.892   4.717  12.362  0.00  0.00    +0.000 A 
ATOM     24  C   UNK A   0       7.233   3.658  11.730  0.00  0.00    +0.000 A 
ATOM     25  C   UNK A   0       6.024   3.176  12.234  0.00  0.00    +0.000 A 
ATOM     26  C   UNK A   0       5.467   3.760  13.366  0.00  0.00    +0.000 A 
ENDBRANCH  18  21
ENDBRANCH  16  18
ENDBRANCH   1  16
BRANCH   1  27
ATOM     27  C   UNK A   0       7.813   6.548  18.505  0.00  0.00    +0.000 C 
BRANCH  27  28
ATOM     28  O   UNK A   0       8.563   7.746  18.742  0.00  0.00    +0.000 OA
BRANCH  28  29
ATOM     29  C   UNK A   0       8.182   8.828  17.898  0.00  0.00    +0.000 C 
BRANCH  29  30
ATOM     30  C   UNK A   0       8.741  10.108  18.448  0.00  0.00    +0.000 A 
ATOM     31  C   UNK A   0       9.360  10.123  19.711  0.00  0.00    +0.000 A 
ATOM     32  C   UNK A   0       9.881  11.303  20.230  0.00  0.00    +0.000 A 
ATOM     33  C   UNK A   0       9.799  12.481  19.492  0.00  0.00    +0.000 A 
ATOM     34  C   UNK A   0       9.193  12.479  18.236  0.00  0.00    +0.000 A 
ATOM     35  C   UNK A   0       8.665  11.298  17.715  0.00  0.00    +0.000 A 
ENDBRANCH  29  30
ENDBRANCH  28  29
ENDBRANCH  27  28
ENDBRANCH   1  27
TORSDOF 12
ENDMDL
MODEL 2
REMARK VINA RESULT:      -8.1      4.033      7.387
REMARK  Name = 
REMARK  12 active torsions:
REMARK  status: ('A' for Active; 'I' for Inactive)
REMARK    1  A    between atoms: C_2  and  CA_3
REMARK    2  A    between atoms: CA_3  and  CB_4
REMARK    3  A    between atoms: CA_3  and  N_11
REMARK    4  A    between atoms: CB_4  and  CG_5
REMARK    5  A    between atoms: C_12  and  C_14
REMARK    6  A    between atoms: C_14  and  C_15
REMARK    7  A    between atoms: C_14  and  N_24
REMARK    8  A    between atoms: C_15  and  O_16
REMARK    9  A    between atoms: O_16  and  C_17
REMARK   10  A    between atoms: C_17  and  C_18
REMARK   11  A    between atoms: N_24  and  S_25
REMARK   12  A    between atoms: S_25  and  C_28
REMARK                            x       y       z     vdW  Elec       q    Type
REMARK                         _______ _______ _______ _____ _____    ______ ____
ROOT
ATOM      1  C   UNK A   0       3.057   8.074  18.034  0.00  0.00    +0.000 C 
ENDROOT
BRANCH   1   3
ATOM      2  N   PHE A   1       1.052   9.316  18.662  0.00  0.00    +0.000 N 
ATOM      3  C   UNK A   0       2.194   9.319  17.901  0.00  0.00    +0.000 C 
ATOM      4  O   UNK A   0       2.530  10.247  17.172  0.00  0.00    +0.000 OA
ATOM      5  H   PHE A   1       0.810   8.517  19.243  0.00  0.00    +0.000 HD
BRANCH   2   6
ATOM      6  CA  PHE A   1       0.286  10.530  18.906  0.00  0.00    +0.000 C 
BRANCH   6   8
ATOM      7  O   PHE A   1       0.486  11.568  21.095  0.00  0.00    +0.000 OA
ATOM      8  C   PHE A   1       0.985  11.331  19.995  0.00  0.00    +0.000 C 
ENDBRANCH   6   8
BRANCH   6   9
ATOM      9  CB  PHE A   1      -1.202  10.330  19.242  0.00  0.00    +0.000 C 
BRANCH   9  10
ATOM     10  CG  PHE A   1      -2.154  10.531  18.082  0.00  0.00    +0.000 A 
ATOM     11  CD1 PHE A   1      -3.273  11.364  18.200  0.00  0.00    +0.000 A 
ATOM     12  CE1 PHE A   1      -4.147  11.529  17.124  0.00  0.00    +0.000 A 
ATOM     13  CZ  PHE A   1      -3.912  10.868  15.921  0.00  0.00    +0.000 A 
ATOM     14  CE2 PHE A   1      -2.803  10.037  15.790  0.00  0.00    +0.000 A 
ATOM     15  CD2 PHE A   1      -1.928   9.874  16.862  0.00  0.00    +0.000 A 
ENDBRANCH   9  10
ENDBRANCH   6   9
ENDBRANCH   2   6
ENDBRANCH   1   3
BRANCH   1  16
ATOM     16  N   UNK A   0       3.514   7.634  16.692  0.00  0.00    +0.000 NA
ATOM     17  H   UNK A   0       3.356   8.303  15.937  0.00  0.00    +0.000 HD
BRANCH  16  18
ATOM     18  S   UNK A   0       5.049   6.952  16.566  0.00  0.00    +0.000 S 
ATOM     19  O   UNK A   0       5.285   6.704  15.163  0.00  0.00    +0.000 OA
ATOM     20  O   UNK A   0       5.985   7.684  17.391  0.00  0.00    +0.000 OA
BRANCH  18  21
ATOM     21  C   UNK A   0       4.792   5.386  17.348  0.00  0.00    +0.000 A 
ATOM     22  C   UNK A   0       4.061   4.401  16.684  0.00  0.00    +0.000 A 
ATOM     23  C   UNK A   0       3.853   3.177  17.313  0.00  0.00    +0.000 A 
ATOM     24  C   UNK A   0       4.367   2.948  18.594  0.00  0.00    +0.000 A 
ATOM     25  C   UNK A   0       5.105   3.936  19.246  0.00  0.00    +0.000 A 
ATOM     26  C   UNK A   0       5.323   5.159  18.623  0.00  0.00    +0.000 A 
ENDBRANCH  18  21
ENDBRANCH  16  18
ENDBRANCH   1  16
BRANCH   1  27
ATOM     27  C   UNK A   0       2.230   6.969  18.713  0.00  0.00    +0.000 C 
BRANCH  27  28
ATOM     28  O   UNK A   0       2.535   6.802  20.102  0.00  0.00    +0.000 OA
BRANCH  28  29
ATOM     29  C   UNK A   0       1.471   6.221  20.850  0.00  0.00    +0.000 C 
BRANCH  29  30
ATOM     30  C   UNK A   0       1.533   4.726  20.722  0.00  0.00    +0.000 A 
ATOM     31  C   UNK A   0       2.267   3.968  21.651  0.00  0.00    +0.000 A 
ATOM     32  C   UNK A   0       2.331   2.584  21.541  0.00  0.00    +0.000 A 
ATOM     33  C   UNK A   0       1.656   1.938  20.509  0.00  0.00    +0.000 A 
ATOM     34  C   UNK A   0       0.920   2.677  19.584  0.00  0.00    +0.000 A 
ATOM     35  C   UNK A   0       0.858   4.067  19.688  0.00  0.00    +0.000 A 
ENDBRANCH  29  30
ENDBRANCH  28  29
ENDBRANCH  27  28
ENDBRANCH   1  27
TORSDOF 12
ENDMDL
MODEL 3
REMARK VINA RESULT:      -8.0      3.924      6.873
REMARK  Name = 
REMARK  12 active torsions:
REMARK  status: ('A' for Active; 'I' for Inactive)
REMARK    1  A    between atoms: C_2  and  CA_3
REMARK    2  A    between atoms: CA_3  and  CB_4
REMARK    3  A    between atoms: CA_3  and  N_11
REMARK    4  A    between atoms: CB_4  and  CG_5
REMARK    5  A    between atoms: C_12  and  C_14
REMARK    6  A    between atoms: C_14  and  C_15
REMARK    7  A    between atoms: C_14  and  N_24
REMARK    8  A    between atoms: C_15  and  O_16
REMARK    9  A    between atoms: O_16  and  C_17
REMARK   10  A    between atoms: C_17  and  C_18
REMARK   11  A    between atoms: N_24  and  S_25
REMARK   12  A    between atoms: S_25  and  C_28
REMARK                            x       y       z     vdW  Elec       q    Type
REMARK                         _______ _______ _______ _____ _____    ______ ____
ROOT
ATOM      1  C   UNK A   0       1.568   7.162  20.071  0.00  0.00    +0.000 C 
ENDROOT
BRANCH   1   3
ATOM      2  N   PHE A   1       0.915   9.504  20.281  0.00  0.00    +0.000 N 
ATOM      3  C   UNK A   0       1.450   8.416  20.923  0.00  0.00    +0.000 C 
ATOM      4  O   UNK A   0       1.803   8.417  22.099  0.00  0.00    +0.000 OA
ATOM      5  H   PHE A   1       0.648   9.457  19.301  0.00  0.00    +0.000 HD
BRANCH   2   6
ATOM      6  CA  PHE A   1       0.439  10.671  21.011  0.00  0.00    +0.000 C 
BRANCH   6   8
ATOM      7  O   PHE A   1      -0.468  10.440  23.255  0.00  0.00    +0.000 OA
ATOM      8  C   PHE A   1      -0.573  10.210  22.050  0.00  0.00    +0.000 C 
ENDBRANCH   6   8
BRANCH   6   9
ATOM      9  CB  PHE A   1      -0.137  11.812  20.154  0.00  0.00    +0.000 C 
BRANCH   9  10
ATOM     10  CG  PHE A   1      -1.269  11.412  19.231  0.00  0.00    +0.000 A 
ATOM     11  CD1 PHE A   1      -1.079  10.460  18.223  0.00  0.00    +0.000 A 
ATOM     12  CE1 PHE A   1      -2.130  10.111  17.373  0.00  0.00    +0.000 A 
ATOM     13  CZ  PHE A   1      -3.379  10.706  17.522  0.00  0.00    +0.000 A 
ATOM     14  CE2 PHE A   1      -3.582  11.656  18.519  0.00  0.00    +0.000 A 
ATOM     15  CD2 PHE A   1      -2.535  12.002  19.371  0.00  0.00    +0.000 A 
ENDBRANCH   9  10
ENDBRANCH   6   9
ENDBRANCH   2   6
ENDBRANCH   1   3
BRANCH   1  16
ATOM     16  N   UNK A   0       2.372   6.141  20.787  0.00  0.00    +0.000 NA
ATOM     17  H   UNK A   0       2.711   6.420  21.709  0.00  0.00    +0.000 HD
BRANCH  16  18
ATOM     18  S   UNK A   0       1.785   4.562  20.827  0.00  0.00    +0.000 S 
ATOM     19  O   UNK A   0       2.303   3.953  22.031  0.00  0.00    +0.000 OA
ATOM     20  O   UNK A   0       0.377   4.547  20.497  0.00  0.00    +0.000 OA
BRANCH  18  21
ATOM     21  C   UNK A   0       2.642   3.845  19.456  0.00  0.00    +0.000 A 
ATOM     22  C   UNK A   0       2.075   3.914  18.182  0.00  0.00    +0.000 A 
ATOM     23  C   UNK A   0       2.751   3.335  17.113  0.00  0.00    +0.000 A 
ATOM     24  C   UNK A   0       3.976   2.692  17.318  0.00  0.00    +0.000 A 
ATOM     25  C   UNK A   0       4.540   2.638  18.594  0.00  0.00    +0.000 A 
ATOM     26  C   UNK A   0       3.875   3.218  19.667  0.00  0.00    +0.000 A 
ENDBRANCH  18  21
ENDBRANCH  16  18
ENDBRANCH   1  16
BRANCH   1  27
ATOM     27  C   UNK A   0       2.232   7.533  18.734  0.00  0.00    +0.000 C 
BRANCH  27  28
ATOM     28  O   UNK A   0       3.499   6.895  18.532  0.00  0.00    +0.000 OA
BRANCH  28  29
ATOM     29  C   UNK A   0       4.113   7.236  17.292  0.00  0.00    +0.000 C 
BRANCH  29  30
ATOM     30  C   UNK A   0       5.223   6.267  17.005  0.00  0.00    +0.000 A 
ATOM     31  C   UNK A   0       5.379   5.736  15.712  0.00  0.00    +0.000 A 
ATOM     32  C   UNK A   0       6.403   4.838  15.435  0.00  0.00    +0.000 A 
ATOM     33  C   UNK A   0       7.290   4.465  16.442  0.00  0.00    +0.000 A 
ATOM     34  C   UNK A   0       7.149   4.988  17.727  0.00  0.00    +0.000 A 
ATOM     35  C   UNK A   0       6.119   5.886  18.009  0.00  0.00    +0.000 A 
ENDBRANCH  29  30
ENDBRANCH  28  29
ENDBRANCH  27  28
ENDBRANCH   1  27
TORSDOF 12
ENDMDL
MODEL 4
REMARK VINA RESULT:      -8.0      4.999      9.678
REMARK  Name = 
REMARK  12 active torsions:
REMARK  status: ('A' for Active; 'I' for Inactive)
REMARK    1  A    between atoms: C_2  and  CA_3
REMARK    2  A    between atoms: CA_3  and  CB_4
REMARK    3  A    between atoms: CA_3  and  N_11
REMARK    4  A    between atoms: CB_4  and  CG_5
REMARK    5  A    between atoms: C_12  and  C_14
REMARK    6  A    between atoms: C_14  and  C_15
REMARK    7  A    between atoms: C_14  and  N_24
REMARK    8  A    between atoms: C_15  and  O_16
REMARK    9  A    between atoms: O_16  and  C_17
REMARK   10  A    between atoms: C_17  and  C_18
REMARK   11  A    between atoms: N_24  and  S_25
REMARK   12  A    between atoms: S_25  and  C_28
REMARK                            x       y       z     vdW  Elec       q    Type
REMARK                         _______ _______ _______ _____ _____    ______ ____
ROOT
ATOM      1  C   UNK A   0       1.170   9.339  19.638  0.00  0.00    +0.000 C 
ENDROOT
BRANCH   1   3
ATOM      2  N   PHE A   1       2.440   7.653  18.415  0.00  0.00    +0.000 N 
ATOM      3  C   UNK A   0       1.827   7.968  19.601  0.00  0.00    +0.000 C 
ATOM      4  O   UNK A   0       1.806   7.229  20.581  0.00  0.00    +0.000 OA
ATOM      5  H   PHE A   1       2.421   8.294  17.626  0.00  0.00    +0.000 HD
BRANCH   2   6
ATOM      6  CA  PHE A   1       3.377   6.543  18.304  0.00  0.00    +0.000 C 
BRANCH   6   8
ATOM      7  O   PHE A   1       4.740   6.547  16.291  0.00  0.00    +0.000 OA
ATOM      8  C   PHE A   1       4.541   6.980  17.426  0.00  0.00    +0.000 C 
ENDBRANCH   6   8
BRANCH   6   9
ATOM      9  CB  PHE A   1       2.786   5.211  17.808  0.00  0.00    +0.000 C 
BRANCH   9  10
ATOM     10  CG  PHE A   1       2.275   4.292  18.897  0.00  0.00    +0.000 A 
ATOM     11  CD1 PHE A   1       1.129   3.512  18.707  0.00  0.00    +0.000 A 
ATOM     12  CE1 PHE A   1       0.665   2.678  19.725  0.00  0.00    +0.000 A 
ATOM     13  CZ  PHE A   1       1.340   2.613  20.941  0.00  0.00    +0.000 A 
ATOM     14  CE2 PHE A   1       2.481   3.384  21.144  0.00  0.00    +0.000 A 
ATOM     15  CD2 PHE A   1       2.947   4.213  20.127  0.00  0.00    +0.000 A 
ENDBRANCH   9  10
ENDBRANCH   6   9
ENDBRANCH   2   6
ENDBRANCH   1   3
BRANCH   1  16
ATOM     16  N   UNK A   0      -0.025   9.300  20.517  0.00  0.00    +0.000 NA
ATOM     17  H   UNK A   0      -0.571   8.438  20.473  0.00  0.00    +0.000 HD
BRANCH  16  18
ATOM     18  S   UNK A   0       0.155   9.803  22.115  0.00  0.00    +0.000 S 
ATOM     19  O   UNK A   0      -0.736   8.993  22.913  0.00  0.00    +0.000 OA
ATOM     20  O   UNK A   0       1.558   9.952  22.433  0.00  0.00    +0.000 OA
BRANCH  18  21
ATOM     21  C   UNK A   0      -0.530  11.432  22.039  0.00  0.00    +0.000 A 
ATOM     22  C   UNK A   0      -1.688  11.723  22.761  0.00  0.00    +0.000 A 
ATOM     23  C   UNK A   0      -2.226  13.004  22.683  0.00  0.00    +0.000 A 
ATOM     24  C   UNK A   0      -1.614  13.978  21.888  0.00  0.00    +0.000 A 
ATOM     25  C   UNK A   0      -0.451  13.680  21.177  0.00  0.00    +0.000 A 
ATOM     26  C   UNK A   0       0.098  12.405  21.253  0.00  0.00    +0.000 A 
ENDBRANCH  18  21
ENDBRANCH  16  18
ENDBRANCH   1  16
BRANCH   1  27
ATOM     27  C   UNK A   0       0.774   9.737  18.206  0.00  0.00    +0.000 C 
BRANCH  27  28
ATOM     28  O   UNK A   0      -0.361  10.609  18.151  0.00  0.00    +0.000 OA
BRANCH  28  29
ATOM     29  C   UNK A   0      -1.474  10.047  17.462  0.00  0.00    +0.000 C 
BRANCH  29  30
ATOM     30  C   UNK A   0      -2.732  10.738  17.901  0.00  0.00    +0.000 A 
ATOM     31  C   UNK A   0      -2.702  11.637  18.983  0.00  0.00    +0.000 A 
ATOM     32  C   UNK A   0      -3.862  12.282  19.398  0.00  0.00    +0.000 A 
ATOM     33  C   UNK A   0      -5.063  12.047  18.734  0.00  0.00    +0.000 A 
ATOM     34  C   UNK A   0      -5.104  11.163  17.656  0.00  0.00    +0.000 A 
ATOM     35  C   UNK A   0      -3.944  10.509  17.241  0.00  0.00    +0.000 A 
ENDBRANCH  29  30
ENDBRANCH  28  29
ENDBRANCH  27  28
ENDBRANCH   1  27
TORSDOF 12
ENDMDL
MODEL 5
REMARK VINA RESULT:      -8.0      3.449      6.871
REMARK  Name = 
REMARK  12 active torsions:
REMARK  status: ('A' for Active; 'I' for Inactive)
REMARK    1  A    between atoms: C_2  and  CA_3
REMARK    2  A    between atoms: CA_3  and  CB_4
REMARK    3  A    between atoms: CA_3  and  N_11
REMARK    4  A    between atoms: CB_4  and  CG_5
REMARK    5  A    between atoms: C_12  and  C_14
REMARK    6  A    between atoms: C_14  and  C_15
REMARK    7  A    between atoms: C_14  and  N_24
REMARK    8  A    between atoms: C_15  and  O_16
REMARK    9  A    between atoms: O_16  and  C_17
REMARK   10  A    between atoms: C_17  and  C_18
REMARK   11  A    between atoms: N_24  and  S_25
REMARK   12  A    between atoms: S_25  and  C_28
REMARK                            x       y       z     vdW  Elec       q    Type
REMARK                         _______ _______ _______ _____ _____    ______ ____
ROOT
ATOM      1  C   UNK A   0       3.705   6.160  18.033  0.00  0.00    +0.000 C 
ENDROOT
BRANCH   1   3
ATOM      2  N   PHE A   1       2.363   8.186  18.256  0.00  0.00    +0.000 N 
ATOM      3  C   UNK A   0       2.772   7.027  18.865  0.00  0.00    +0.000 C 
ATOM      4  O   UNK A   0       2.419   6.679  19.987  0.00  0.00    +0.000 OA
ATOM      5  H   PHE A   1       2.692   8.438  17.328  0.00  0.00    +0.000 HD
BRANCH   2   6
ATOM      6  CA  PHE A   1       1.240   8.965  18.760  0.00  0.00    +0.000 C 
BRANCH   6   8
ATOM      7  O   PHE A   1      -0.727   9.869  17.653  0.00  0.00    +0.000 OA
ATOM      8  C   PHE A   1       0.438   9.480  17.573  0.00  0.00    +0.000 C 
ENDBRANCH   6   8
BRANCH   6   9
ATOM      9  CB  PHE A   1       1.594  10.113  19.721  0.00  0.00    +0.000 C 
BRANCH   9  10
ATOM     10  CG  PHE A   1       0.683  10.247  20.923  0.00  0.00    +0.000 A 
ATOM     11  CD1 PHE A   1      -0.007  11.437  21.180  0.00  0.00    +0.000 A 
ATOM     12  CE1 PHE A   1      -0.834  11.547  22.298  0.00  0.00    +0.000 A 
ATOM     13  CZ  PHE A   1      -0.982  10.471  23.170  0.00  0.00    +0.000 A 
ATOM     14  CE2 PHE A   1      -0.302   9.282  22.928  0.00  0.00    +0.000 A 
ATOM     15  CD2 PHE A   1       0.521   9.170  21.809  0.00  0.00    +0.000 A 
ENDBRANCH   9  10
ENDBRANCH   6   9
ENDBRANCH   2   6
ENDBRANCH   1   3
BRANCH   1  16
ATOM     16  N   UNK A   0       4.550   5.330  18.926  0.00  0.00    +0.000 NA
ATOM     17  H   UNK A   0       4.518   5.582  19.915  0.00  0.00    +0.000 HD
BRANCH  16  18
ATOM     18  S   UNK A   0       4.484   3.656  18.741  0.00  0.00    +0.000 S 
ATOM     19  O   UNK A   0       4.512   3.390  17.321  0.00  0.00    +0.000 OA
ATOM     20  O   UNK A   0       5.396   3.019  19.666  0.00  0.00    +0.000 OA
BRANCH  18  21
ATOM     21  C   UNK A   0       2.847   3.314  19.316  0.00  0.00    +0.000 A 
ATOM     22  C   UNK A   0       1.841   3.033  18.391  0.00  0.00    +0.000 A 
ATOM     23  C   UNK A   0       0.553   2.779  18.853  0.00  0.00    +0.000 A 
ATOM     24  C   UNK A   0       0.278   2.809  20.224  0.00  0.00    +0.000 A 
ATOM     25  C   UNK A   0       1.293   3.080  21.142  0.00  0.00    +0.000 A 
ATOM     26  C   UNK A   0       2.584   3.331  20.690  0.00  0.00    +0.000 A 
ENDBRANCH  18  21
ENDBRANCH  16  18
ENDBRANCH   1  16
BRANCH   1  27
ATOM     27  C   UNK A   0       4.580   7.075  17.158  0.00  0.00    +0.000 C 
BRANCH  27  28
ATOM     28  O   UNK A   0       4.935   6.488  15.900  0.00  0.00    +0.000 OA
BRANCH  28  29
ATOM     29  C   UNK A   0       6.132   5.717  15.953  0.00  0.00    +0.000 C 
BRANCH  29  30
ATOM     30  C   UNK A   0       6.366   5.072  14.618  0.00  0.00    +0.000 A 
ATOM     31  C   UNK A   0       7.480   5.438  13.842  0.00  0.00    +0.000 A 
ATOM     32  C   UNK A   0       7.706   4.846  12.605  0.00  0.00    +0.000 A 
ATOM     33  C   UNK A   0       6.828   3.876  12.129  0.00  0.00    +0.000 A 
ATOM     34  C   UNK A   0       5.722   3.500  12.890  0.00  0.00    +0.000 A 
ATOM     35  C   UNK A   0       5.490   4.095  14.130  0.00  0.00    +0.000 A 
ENDBRANCH  29  30
ENDBRANCH  28  29
ENDBRANCH  27  28
ENDBRANCH   1  27
TORSDOF 12
ENDMDL
MODEL 6
REMARK VINA RESULT:      -7.9      3.755      6.510
REMARK  Name = 
REMARK  12 active torsions:
REMARK  status: ('A' for Active; 'I' for Inactive)
REMARK    1  A    between atoms: C_2  and  CA_3
REMARK    2  A    between atoms: CA_3  and  CB_4
REMARK    3  A    between atoms: CA_3  and  N_11
REMARK    4  A    between atoms: CB_4  and  CG_5
REMARK    5  A    between atoms: C_12  and  C_14
REMARK    6  A    between atoms: C_14  and  C_15
REMARK    7  A    between atoms: C_14  and  N_24
REMARK    8  A    between atoms: C_15  and  O_16
REMARK    9  A    between atoms: O_16  and  C_17
REMARK   10  A    between atoms: C_17  and  C_18
REMARK   11  A    between atoms: N_24  and  S_25
REMARK   12  A    between atoms: S_25  and  C_28
REMARK                            x       y       z     vdW  Elec       q    Type
REMARK                         _______ _______ _______ _____ _____    ______ ____
ROOT
ATOM      1  C   UNK A   0       4.370   5.053  17.489  0.00  0.00    +0.000 C 
ENDROOT
BRANCH   1   3
ATOM      2  N   PHE A   1       3.547   6.961  18.769  0.00  0.00    +0.000 N 
ATOM      3  C   UNK A   0       3.200   5.884  17.993  0.00  0.00    +0.000 C 
ATOM      4  O   UNK A   0       2.045   5.594  17.698  0.00  0.00    +0.000 OA
ATOM      5  H   PHE A   1       4.519   7.153  18.997  0.00  0.00    +0.000 HD
BRANCH   2   6
ATOM      6  CA  PHE A   1       2.604   8.030  19.067  0.00  0.00    +0.000 C 
BRANCH   6   8
ATOM      7  O   PHE A   1       1.251   6.678  20.568  0.00  0.00    +0.000 OA
ATOM      8  C   PHE A   1       1.903   7.705  20.378  0.00  0.00    +0.000 C 
ENDBRANCH   6   8
BRANCH   6   9
ATOM      9  CB  PHE A   1       1.581   8.352  17.964  0.00  0.00    +0.000 C 
BRANCH   9  10
ATOM     10  CG  PHE A   1       0.818   9.645  18.154  0.00  0.00    +0.000 A 
ATOM     11  CD1 PHE A   1       1.463  10.809  18.591  0.00  0.00    +0.000 A 
ATOM     12  CE1 PHE A   1       0.742  11.990  18.773  0.00  0.00    +0.000 A 
ATOM     13  CZ  PHE A   1      -0.627  12.023  18.519  0.00  0.00    +0.000 A 
ATOM     14  CE2 PHE A   1      -1.281  10.874  18.085  0.00  0.00    +0.000 A 
ATOM     15  CD2 PHE A   1      -0.562   9.695  17.900  0.00  0.00    +0.000 A 
ENDBRANCH   9  10
ENDBRANCH   6   9
ENDBRANCH   2   6
ENDBRANCH   1   3
BRANCH   1  16
ATOM     16  N   UNK A   0       5.138   5.827  16.482  0.00  0.00    +0.000 NA
ATOM     17  H   UNK A   0       4.980   6.836  16.493  0.00  0.00    +0.000 HD
BRANCH  16  18
ATOM     18  S   UNK A   0       6.781   5.490  16.314  0.00  0.00    +0.000 S 
ATOM     19  O   UNK A   0       7.476   6.754  16.369  0.00  0.00    +0.000 OA
ATOM     20  O   UNK A   0       7.145   4.369  17.152  0.00  0.00    +0.000 OA
BRANCH  18  21
ATOM     21  C   UNK A   0       6.841   4.920  14.640  0.00  0.00    +0.000 A 
ATOM     22  C   UNK A   0       7.736   5.511  13.747  0.00  0.00    +0.000 A 
ATOM     23  C   UNK A   0       7.766   5.065  12.429  0.00  0.00    +0.000 A 
ATOM     24  C   UNK A   0       6.908   4.042  12.013  0.00  0.00    +0.000 A 
ATOM     25  C   UNK A   0       6.024   3.450  12.915  0.00  0.00    +0.000 A 
ATOM     26  C   UNK A   0       5.991   3.885  14.235  0.00  0.00    +0.000 A 
ENDBRANCH  18  21
ENDBRANCH  16  18
ENDBRANCH   1  16
BRANCH   1  27
ATOM     27  C   UNK A   0       3.825   3.755  16.871  0.00  0.00    +0.000 C 
BRANCH  27  28
ATOM     28  O   UNK A   0       4.305   2.571  17.520  0.00  0.00    +0.000 OA
BRANCH  28  29
ATOM     29  C   UNK A   0       3.265   1.688  17.929  0.00  0.00    +0.000 C 
BRANCH  29  30
ATOM     30  C   UNK A   0       2.583   2.250  19.142  0.00  0.00    +0.000 A 
ATOM     31  C   UNK A   0       1.219   2.585  19.094  0.00  0.00    +0.000 A 
ATOM     32  C   UNK A   0       0.578   3.107  20.213  0.00  0.00    +0.000 A 
ATOM     33  C   UNK A   0       1.289   3.293  21.395  0.00  0.00    +0.000 A 
ATOM     34  C   UNK A   0       2.642   2.959  21.458  0.00  0.00    +0.000 A 
ATOM     35  C   UNK A   0       3.288   2.441  20.337  0.00  0.00    +0.000 A 
ENDBRANCH  29  30
ENDBRANCH  28  29
ENDBRANCH  27  28
ENDBRANCH   1  27
TORSDOF 12
ENDMDL
MODEL 7
REMARK VINA RESULT:      -7.9      3.510      6.274
REMARK  Name = 
REMARK  12 active torsions:
REMARK  status: ('A' for Active; 'I' for Inactive)
REMARK    1  A    between atoms: C_2  and  CA_3
REMARK    2  A    between atoms: CA_3  and  CB_4
REMARK    3  A    between atoms: CA_3  and  N_11
REMARK    4  A    between atoms: CB_4  and  CG_5
REMARK    5  A    between atoms: C_12  and  C_14
REMARK    6  A    between atoms: C_14  and  C_15
REMARK    7  A    between atoms: C_14  and  N_24
REMARK    8  A    between atoms: C_15  and  O_16
REMARK    9  A    between atoms: O_16  and  C_17
REMARK   10  A    between atoms: C_17  and  C_18
REMARK   11  A    between atoms: N_24  and  S_25
REMARK   12  A    between atoms: S_25  and  C_28
REMARK                            x       y       z     vdW  Elec       q    Type
REMARK                         _______ _______ _______ _____ _____    ______ ____
ROOT
ATOM      1  C   UNK A   0       2.432   6.288  19.290  0.00  0.00    +0.000 C 
ENDROOT
BRANCH   1   3
ATOM      2  N   PHE A   1       1.910   8.391  18.167  0.00  0.00    +0.000 N 
ATOM      3  C   UNK A   0       1.977   7.737  19.371  0.00  0.00    +0.000 C 
ATOM      4  O   UNK A   0       1.684   8.249  20.448  0.00  0.00    +0.000 OA
ATOM      5  H   PHE A   1       2.175   7.928  17.302  0.00  0.00    +0.000 HD
BRANCH   2   6
ATOM      6  CA  PHE A   1       1.203   9.655  18.017  0.00  0.00    +0.000 C 
BRANCH   6   8
ATOM      7  O   PHE A   1       1.984  11.877  18.623  0.00  0.00    +0.000 OA
ATOM      8  C   PHE A   1       2.217  10.788  18.097  0.00  0.00    +0.000 C 
ENDBRANCH   6   8
BRANCH   6   9
ATOM      9  CB  PHE A   1       0.036   9.894  18.990  0.00  0.00    +0.000 C 
BRANCH   9  10
ATOM     10  CG  PHE A   1      -1.259  10.337  18.343  0.00  0.00    +0.000 A 
ATOM     11  CD1 PHE A   1      -1.673   9.807  17.115  0.00  0.00    +0.000 A 
ATOM     12  CE1 PHE A   1      -2.864  10.234  16.527  0.00  0.00    +0.000 A 
ATOM     13  CZ  PHE A   1      -3.654  11.192  17.157  0.00  0.00    +0.000 A 
ATOM     14  CE2 PHE A   1      -3.254  11.728  18.378  0.00  0.00    +0.000 A 
ATOM     15  CD2 PHE A   1      -2.067  11.299  18.968  0.00  0.00    +0.000 A 
ENDBRANCH   9  10
ENDBRANCH   6   9
ENDBRANCH   2   6
ENDBRANCH   1   3
BRANCH   1  16
ATOM     16  N   UNK A   0       2.532   5.715  20.655  0.00  0.00    +0.000 NA
ATOM     17  H   UNK A   0       2.334   6.366  21.417  0.00  0.00    +0.000 HD
BRANCH  16  18
ATOM     18  S   UNK A   0       1.792   4.228  20.942  0.00  0.00    +0.000 S 
ATOM     19  O   UNK A   0       2.241   3.780  22.240  0.00  0.00    +0.000 OA
ATOM     20  O   UNK A   0       0.392   4.295  20.588  0.00  0.00    +0.000 OA
BRANCH  18  21
ATOM     21  C   UNK A   0       2.581   3.215  19.725  0.00  0.00    +0.000 A 
ATOM     22  C   UNK A   0       3.875   2.747  19.958  0.00  0.00    +0.000 A 
ATOM     23  C   UNK A   0       4.492   1.962  18.989  0.00  0.00    +0.000 A 
ATOM     24  C   UNK A   0       3.821   1.655  17.800  0.00  0.00    +0.000 A 
ATOM     25  C   UNK A   0       2.524   2.119  17.581  0.00  0.00    +0.000 A 
ATOM     26  C   UNK A   0       1.898   2.899  18.546  0.00  0.00    +0.000 A 
ENDBRANCH  18  21
ENDBRANCH  16  18
ENDBRANCH   1  16
BRANCH   1  27
ATOM     27  C   UNK A   0       3.796   6.238  18.582  0.00  0.00    +0.000 C 
BRANCH  27  28
ATOM     28  O   UNK A   0       3.733   5.680  17.264  0.00  0.00    +0.000 OA
BRANCH  28  29
ATOM     29  C   UNK A   0       4.943   5.047  16.858  0.00  0.00    +0.000 C 
BRANCH  29  30
ATOM     30  C   UNK A   0       6.109   5.761  17.479  0.00  0.00    +0.000 A 
ATOM     31  C   UNK A   0       6.798   5.181  18.559  0.00  0.00    +0.000 A 
ATOM     32  C   UNK A   0       7.878   5.834  19.141  0.00  0.00    +0.000 A 
ATOM     33  C   UNK A   0       8.291   7.069  18.648  0.00  0.00    +0.000 A 
ATOM     34  C   UNK A   0       7.620   7.652  17.574  0.00  0.00    +0.000 A 
ATOM     35  C   UNK A   0       6.532   7.003  16.991  0.00  0.00    +0.000 A 
ENDBRANCH  29  30
ENDBRANCH  28  29
ENDBRANCH  27  28
ENDBRANCH   1  27
TORSDOF 12
ENDMDL
MODEL 8
REMARK VINA RESULT:      -7.8      4.096      6.952
REMARK  Name = 
REMARK  12 active torsions:
REMARK  status: ('A' for Active; 'I' for Inactive)
REMARK    1  A    between atoms: C_2  and  CA_3
REMARK    2  A    between atoms: CA_3  and  CB_4
REMARK    3  A    between atoms: CA_3  and  N_11
REMARK    4  A    between atoms: CB_4  and  CG_5
REMARK    5  A    between atoms: C_12  and  C_14
REMARK    6  A    between atoms: C_14  and  C_15
REMARK    7  A    between atoms: C_14  and  N_24
REMARK    8  A    between atoms: C_15  and  O_16
REMARK    9  A    between atoms: O_16  and  C_17
REMARK   10  A    between atoms: C_17  and  C_18
REMARK   11  A    between atoms: N_24  and  S_25
REMARK   12  A    between atoms: S_25  and  C_28
REMARK                            x       y       z     vdW  Elec       q    Type
REMARK                         _______ _______ _______ _____ _____    ______ ____
ROOT
ATOM      1  C   UNK A   0       2.016   6.494  20.024  0.00  0.00    +0.000 C 
ENDROOT
BRANCH   1   3
ATOM      2  N   PHE A   1       1.341   8.808  19.648  0.00  0.00    +0.000 N 
ATOM      3  C   UNK A   0       1.328   7.754  20.525  0.00  0.00    +0.000 C 
ATOM      4  O   UNK A   0       0.796   7.787  21.631  0.00  0.00    +0.000 OA
ATOM      5  H   PHE A   1       1.805   8.736  18.746  0.00  0.00    +0.000 HD
BRANCH   2   6
ATOM      6  CA  PHE A   1       0.471   9.964  19.821  0.00  0.00    +0.000 C 
BRANCH   6   8
ATOM      7  O   PHE A   1      -0.969  10.292  17.889  0.00  0.00    +0.000 OA
ATOM      8  C   PHE A   1       0.109  10.505  18.445  0.00  0.00    +0.000 C 
ENDBRANCH   6   8
BRANCH   6   9
ATOM      9  CB  PHE A   1       1.013  11.085  20.725  0.00  0.00    +0.000 C 
BRANCH   9  10
ATOM     10  CG  PHE A   1      -0.029  11.789  21.567  0.00  0.00    +0.000 A 
ATOM     11  CD1 PHE A   1      -0.198  13.177  21.499  0.00  0.00    +0.000 A 
ATOM     12  CE1 PHE A   1      -1.156  13.812  22.291  0.00  0.00    +0.000 A 
ATOM     13  CZ  PHE A   1      -1.955  13.069  23.155  0.00  0.00    +0.000 A 
ATOM     14  CE2 PHE A   1      -1.798  11.689  23.234  0.00  0.00    +0.000 A 
ATOM     15  CD2 PHE A   1      -0.845  11.053  22.441  0.00  0.00    +0.000 A 
ENDBRANCH   9  10
ENDBRANCH   6   9
ENDBRANCH   2   6
ENDBRANCH   1   3
BRANCH   1  16
ATOM     16  N   UNK A   0       2.320   5.598  21.167  0.00  0.00    +0.000 NA
ATOM     17  H   UNK A   0       2.082   5.970  22.088  0.00  0.00    +0.000 HD
BRANCH  16  18
ATOM     18  S   UNK A   0       1.859   3.982  21.047  0.00  0.00    +0.000 S 
ATOM     19  O   UNK A   0       2.455   3.291  22.167  0.00  0.00    +0.000 OA
ATOM     20  O   UNK A   0       0.447   3.891  20.743  0.00  0.00    +0.000 OA
BRANCH  18  21
ATOM     21  C   UNK A   0       2.730   3.487  19.589  0.00  0.00    +0.000 A 
ATOM     22  C   UNK A   0       2.030   3.330  18.392  0.00  0.00    +0.000 A 
ATOM     23  C   UNK A   0       2.723   2.926  17.255  0.00  0.00    +0.000 A 
ATOM     24  C   UNK A   0       4.098   2.681  17.318  0.00  0.00    +0.000 A 
ATOM     25  C   UNK A   0       4.792   2.851  18.517  0.00  0.00    +0.000 A 
ATOM     26  C   UNK A   0       4.109   3.258  19.657  0.00  0.00    +0.000 A 
ENDBRANCH  18  21
ENDBRANCH  16  18
ENDBRANCH   1  16
BRANCH   1  27
ATOM     27  C   UNK A   0       3.309   6.894  19.293  0.00  0.00    +0.000 C 
BRANCH  27  28
ATOM     28  O   UNK A   0       3.242   6.706  17.874  0.00  0.00    +0.000 OA
BRANCH  28  29
ATOM     29  C   UNK A   0       4.303   7.342  17.168  0.00  0.00    +0.000 C 
BRANCH  29  30
ATOM     30  C   UNK A   0       5.329   6.316  16.783  0.00  0.00    +0.000 A 
ATOM     31  C   UNK A   0       6.389   6.015  17.656  0.00  0.00    +0.000 A 
ATOM     32  C   UNK A   0       7.344   5.067  17.309  0.00  0.00    +0.000 A 
ATOM     33  C   UNK A   0       7.249   4.400  16.090  0.00  0.00    +0.000 A 
ATOM     34  C   UNK A   0       6.199   4.684  15.218  0.00  0.00    +0.000 A 
ATOM     35  C   UNK A   0       5.242   5.639  15.561  0.00  0.00    +0.000 A 
ENDBRANCH  29  30
ENDBRANCH  28  29
ENDBRANCH  27  28
ENDBRANCH   1  27
TORSDOF 12
ENDMDL
MODEL 9
REMARK VINA RESULT:      -7.8      3.807      6.427
REMARK  Name = 
REMARK  12 active torsions:
REMARK  status: ('A' for Active; 'I' for Inactive)
REMARK    1  A    between atoms: C_2  and  CA_3
REMARK    2  A    between atoms: CA_3  and  CB_4
REMARK    3  A    between atoms: CA_3  and  N_11
REMARK    4  A    between atoms: CB_4  and  CG_5
REMARK    5  A    between atoms: C_12  and  C_14
REMARK    6  A    between atoms: C_14  and  C_15
REMARK    7  A    between atoms: C_14  and  N_24
REMARK    8  A    between atoms: C_15  and  O_16
REMARK    9  A    between atoms: O_16  and  C_17
REMARK   10  A    between atoms: C_17  and  C_18
REMARK   11  A    between atoms: N_24  and  S_25
REMARK   12  A    between atoms: S_25  and  C_28
REMARK                            x       y       z     vdW  Elec       q    Type
REMARK                         _______ _______ _______ _____ _____    ______ ____
ROOT
ATOM      1  C   UNK A   0       3.998   4.837  17.543  0.00  0.00    +0.000 C 
ENDROOT
BRANCH   1   3
ATOM      2  N   PHE A   1       2.985   6.536  18.972  0.00  0.00    +0.000 N 
ATOM      3  C   UNK A   0       2.753   5.550  18.047  0.00  0.00    +0.000 C 
ATOM      4  O   UNK A   0       1.639   5.253  17.626  0.00  0.00    +0.000 OA
ATOM      5  H   PHE A   1       3.927   6.739  19.299  0.00  0.00    +0.000 HD
BRANCH   2   6
ATOM      6  CA  PHE A   1       1.971   7.522  19.318  0.00  0.00    +0.000 C 
BRANCH   6   8
ATOM      7  O   PHE A   1       2.789   8.683  17.345  0.00  0.00    +0.000 OA
ATOM      8  C   PHE A   1       2.094   8.699  18.361  0.00  0.00    +0.000 C 
ENDBRANCH   6   8
BRANCH   6   9
ATOM      9  CB  PHE A   1       1.970   8.002  20.780  0.00  0.00    +0.000 C 
BRANCH   9  10
ATOM     10  CG  PHE A   1       0.909   9.028  21.117  0.00  0.00    +0.000 A 
ATOM     11  CD1 PHE A   1       0.310   9.805  20.119  0.00  0.00    +0.000 A 
ATOM     12  CE1 PHE A   1      -0.658  10.755  20.448  0.00  0.00    +0.000 A 
ATOM     13  CZ  PHE A   1      -1.040  10.937  21.775  0.00  0.00    +0.000 A 
ATOM     14  CE2 PHE A   1      -0.452  10.172  22.778  0.00  0.00    +0.000 A 
ATOM     15  CD2 PHE A   1       0.513   9.221  22.450  0.00  0.00    +0.000 A 
ENDBRANCH   9  10
ENDBRANCH   6   9
ENDBRANCH   2   6
ENDBRANCH   1   3
BRANCH   1  16
ATOM     16  N   UNK A   0       4.667   5.663  16.508  0.00  0.00    +0.000 NA
ATOM     17  H   UNK A   0       4.368   6.640  16.469  0.00  0.00    +0.000 HD
BRANCH  16  18
ATOM     18  S   UNK A   0       6.343   5.553  16.372  0.00  0.00    +0.000 S 
ATOM     19  O   UNK A   0       6.855   6.903  16.396  0.00  0.00    +0.000 OA
ATOM     20  O   UNK A   0       6.844   4.519  17.250  0.00  0.00    +0.000 OA
BRANCH  18  21
ATOM     21  C   UNK A   0       6.511   4.947  14.718  0.00  0.00    +0.000 A 
ATOM     22  C   UNK A   0       5.582   4.029  14.227  0.00  0.00    +0.000 A 
ATOM     23  C   UNK A   0       5.732   3.549  12.930  0.00  0.00    +0.000 A 
ATOM     24  C   UNK A   0       6.800   3.981  12.138  0.00  0.00    +0.000 A 
ATOM     25  C   UNK A   0       7.718   4.908  12.634  0.00  0.00    +0.000 A 
ATOM     26  C   UNK A   0       7.574   5.397  13.927  0.00  0.00    +0.000 A 
ENDBRANCH  18  21
ENDBRANCH  16  18
ENDBRANCH   1  16
BRANCH   1  27
ATOM     27  C   UNK A   0       3.586   3.474  16.963  0.00  0.00    +0.000 C 
BRANCH  27  28
ATOM     28  O   UNK A   0       4.301   2.372  17.536  0.00  0.00    +0.000 OA
BRANCH  28  29
ATOM     29  C   UNK A   0       3.456   1.422  18.179  0.00  0.00    +0.000 C 
BRANCH  29  30
ATOM     30  C   UNK A   0       2.695   2.102  19.281  0.00  0.00    +0.000 A 
ATOM     31  C   UNK A   0       1.310   2.312  19.157  0.00  0.00    +0.000 A 
ATOM     32  C   UNK A   0       0.596   2.940  20.171  0.00  0.00    +0.000 A 
ATOM     33  C   UNK A   0       1.253   3.358  21.325  0.00  0.00    +0.000 A 
ATOM     34  C   UNK A   0       2.625   3.150  21.464  0.00  0.00    +0.000 A 
ATOM     35  C   UNK A   0       3.345   2.525  20.446  0.00  0.00    +0.000 A 
ENDBRANCH  29  30
ENDBRANCH  28  29
ENDBRANCH  27  28
ENDBRANCH   1  27
TORSDOF 12
ENDMDL
