MODEL 1
REMARK VINA RESULT:      -7.3      0.000      0.000
REMARK  Name = 
REMARK  6 active torsions:
REMARK  status: ('A' for Active; 'I' for Inactive)
REMARK    1  A    between atoms: C_1  and  O_2
REMARK    2  A    between atoms: O_2  and  C_3
REMARK    3  A    between atoms: N_8  and  C_9
REMARK    4  A    between atoms: N_8  and  C_10
REMARK    5  A    between atoms: C_12  and  O_13
REMARK    6  A    between atoms: C_16  and  C_17
REMARK                            x       y       z     vdW  Elec       q    Type
REMARK                         _______ _______ _______ _____ _____    ______ ____
ROOT
ATOM      1  C   UNL     1       3.095   5.625  19.409  0.00  0.00    +0.000 A 
ATOM      2  C   UNL     1       2.352   6.378  20.339  0.00  0.00    +0.000 A 
ATOM      3  C   UNL     1       1.863   7.645  20.053  0.00  0.00    +0.000 A 
ATOM      4  N   UNL     1       1.143   8.302  20.982  0.00  0.00    +0.000 NA
ATOM      5  C   UNL     1       0.641   9.536  20.738  0.00  0.00    +0.000 A 
ATOM      6  N   UNL     1      -0.078  10.154  21.741  0.00  0.00    +0.000 N 
ATOM      7  C   UNL     1      -0.270   9.465  23.013  0.00  0.00    +0.000 C 
ATOM      8  C   UNL     1      -0.733  11.447  21.631  0.00  0.00    +0.000 C 
ATOM      9  C   UNL     1       0.875  10.128  19.503  0.00  0.00    +0.000 A 
ATOM     10  C   UNL     1       1.622   9.455  18.541  0.00  0.00    +0.000 A 
ATOM     11  C   UNL     1       2.140   8.187  18.799  0.00  0.00    +0.000 A 
ATOM     12  C   UNL     1       2.914   7.461  17.871  0.00  0.00    +0.000 A 
ATOM     13  C   UNL     1       3.413   6.180  18.155  0.00  0.00    +0.000 A 
ENDROOT
BRANCH  13  14
ATOM     14  C   UNL     1       4.218   5.497  17.143  0.00  0.00    +0.000 A 
ATOM     15  C   UNL     1       4.471   4.200  16.750  0.00  0.00    +0.000 A 
ATOM     16  N   UNL     1       5.360   4.173  15.699  0.00  0.00    +0.000 NA
ATOM     17  C   UNL     1       5.617   5.440  15.491  0.00  0.00    +0.000 A 
ATOM     18  O   UNL     1       4.970   6.304  16.315  0.00  0.00    +0.000 OA
ENDBRANCH  13  14
BRANCH   1  20
ATOM     19  C   UNL     1       2.681   3.557  20.489  0.00  0.00    +0.000 C 
ATOM     20  O   UNL     1       3.556   4.363  19.700  0.00  0.00    +0.000 OA
ENDBRANCH   1  20
BRANCH  10  21
ATOM     21  O   UNL     1       1.855  10.037  17.321  0.00  0.00    +0.000 OA
ATOM     22  H   UNL     1       2.397  10.834  17.443  0.00  0.00    +0.000 HD
ENDBRANCH  10  21
TORSDOF 3
ENDMDL
MODEL 2
REMARK VINA RESULT:      -7.1      1.115      1.226
REMARK  Name = 
REMARK  6 active torsions:
REMARK  status: ('A' for Active; 'I' for Inactive)
REMARK    1  A    between atoms: C_1  and  O_2
REMARK    2  A    between atoms: O_2  and  C_3
REMARK    3  A    between atoms: N_8  and  C_9
REMARK    4  A    between atoms: N_8  and  C_10
REMARK    5  A    between atoms: C_12  and  O_13
REMARK    6  A    between atoms: C_16  and  C_17
REMARK                            x       y       z     vdW  Elec       q    Type
REMARK                         _______ _______ _______ _____ _____    ______ ____
ROOT
ATOM      1  C   UNL     1       2.460   6.066  20.022  0.00  0.00    +0.000 A 
ATOM      2  C   UNL     1       1.716   6.987  20.784  0.00  0.00    +0.000 A 
ATOM      3  C   UNL     1       1.377   8.247  20.309  0.00  0.00    +0.000 A 
ATOM      4  N   UNL     1       0.647   9.072  21.084  0.00  0.00    +0.000 NA
ATOM      5  C   UNL     1       0.288  10.304  20.654  0.00  0.00    +0.000 A 
ATOM      6  N   UNL     1      -0.451  11.100  21.506  0.00  0.00    +0.000 N 
ATOM      7  C   UNL     1      -0.815  10.590  22.825  0.00  0.00    +0.000 C 
ATOM      8  C   UNL     1      -0.967  12.420  21.187  0.00  0.00    +0.000 C 
ATOM      9  C   UNL     1       0.682  10.718  19.387  0.00  0.00    +0.000 A 
ATOM     10  C   UNL     1       1.439   9.871  18.585  0.00  0.00    +0.000 A 
ATOM     11  C   UNL     1       1.811   8.605  19.035  0.00  0.00    +0.000 A 
ATOM     12  C   UNL     1       2.587   7.708  18.274  0.00  0.00    +0.000 A 
ATOM     13  C   UNL     1       2.935   6.434  18.749  0.00  0.00    +0.000 A 
ENDROOT
BRANCH  13  14
ATOM     14  C   UNL     1       3.754   5.566  17.903  0.00  0.00    +0.000 A 
ATOM     15  C   UNL     1       5.043   5.545  17.415  0.00  0.00    +0.000 A 
ATOM     16  N   UNL     1       5.250   4.434  16.629  0.00  0.00    +0.000 NA
ATOM     17  C   UNL     1       4.091   3.824  16.663  0.00  0.00    +0.000 A 
ATOM     18  O   UNL     1       3.137   4.437  17.407  0.00  0.00    +0.000 OA
ENDBRANCH  13  14
BRANCH   1  20
ATOM     19  C   UNL     1       1.657   4.005  20.874  0.00  0.00    +0.000 C 
ATOM     20  O   UNL     1       2.772   4.815  20.498  0.00  0.00    +0.000 OA
ENDBRANCH   1  20
BRANCH  10  21
ATOM     21  O   UNL     1       1.830  10.277  17.334  0.00  0.00    +0.000 OA
ATOM     22  H   UNL     1       2.663   9.836  17.098  0.00  0.00    +0.000 HD
ENDBRANCH  10  21
TORSDOF 3
ENDMDL
MODEL 3
REMARK VINA RESULT:      -6.8      1.858      7.192
REMARK  Name = 
REMARK  6 active torsions:
REMARK  status: ('A' for Active; 'I' for Inactive)
REMARK    1  A    between atoms: C_1  and  O_2
REMARK    2  A    between atoms: O_2  and  C_3
REMARK    3  A    between atoms: N_8  and  C_9
REMARK    4  A    between atoms: N_8  and  C_10
REMARK    5  A    between atoms: C_12  and  O_13
REMARK    6  A    between atoms: C_16  and  C_17
REMARK                            x       y       z     vdW  Elec       q    Type
REMARK                         _______ _______ _______ _____ _____    ______ ____
ROOT
ATOM      1  C   UNL     1       1.334   9.794  18.950  0.00  0.00    +0.000 A 
ATOM      2  C   UNL     1       2.197   9.100  18.079  0.00  0.00    +0.000 A 
ATOM      3  C   UNL     1       2.693   7.837  18.370  0.00  0.00    +0.000 A 
ATOM      4  N   UNL     1       3.499   7.222  17.483  0.00  0.00    +0.000 NA
ATOM      5  C   UNL     1       3.995   5.986  17.726  0.00  0.00    +0.000 A 
ATOM      6  N   UNL     1       4.823   5.421  16.777  0.00  0.00    +0.000 N 
ATOM      7  C   UNL     1       5.131   6.167  15.560  0.00  0.00    +0.000 C 
ATOM      8  C   UNL     1       5.395   4.087  16.848  0.00  0.00    +0.000 C 
ATOM      9  C   UNL     1       3.661   5.345  18.913  0.00  0.00    +0.000 A 
ATOM     10  C   UNL     1       2.832   5.978  19.833  0.00  0.00    +0.000 A 
ATOM     11  C   UNL     1       2.328   7.253  19.581  0.00  0.00    +0.000 A 
ATOM     12  C   UNL     1       1.495   7.950  20.480  0.00  0.00    +0.000 A 
ATOM     13  C   UNL     1       0.992   9.228  20.192  0.00  0.00    +0.000 A 
ENDROOT
BRANCH  13  14
ATOM     14  C   UNL     1       0.143   9.890  21.182  0.00  0.00    +0.000 A 
ATOM     15  C   UNL     1      -0.667  11.004  21.245  0.00  0.00    +0.000 A 
ATOM     16  N   UNL     1      -1.226  11.132  22.497  0.00  0.00    +0.000 NA
ATOM     17  C   UNL     1      -0.739  10.105  23.148  0.00  0.00    +0.000 A 
ATOM     18  O   UNL     1       0.092   9.306  22.430  0.00  0.00    +0.000 OA
ENDBRANCH  13  14
BRANCH   1  20
ATOM     19  C   UNL     1       1.794  12.095  18.616  0.00  0.00    +0.000 C 
ATOM     20  O   UNL     1       0.836  11.037  18.638  0.00  0.00    +0.000 OA
ENDBRANCH   1  20
BRANCH  10  21
ATOM     21  O   UNL     1       2.501   5.348  21.006  0.00  0.00    +0.000 OA
ATOM     22  H   UNL     1       2.400   6.011  21.710  0.00  0.00    +0.000 HD
ENDBRANCH  10  21
TORSDOF 3
ENDMDL
MODEL 4
REMARK VINA RESULT:      -6.5      1.690      7.072
REMARK  Name = 
REMARK  6 active torsions:
REMARK  status: ('A' for Active; 'I' for Inactive)
REMARK    1  A    between atoms: C_1  and  O_2
REMARK    2  A    between atoms: O_2  and  C_3
REMARK    3  A    between atoms: N_8  and  C_9
REMARK    4  A    between atoms: N_8  and  C_10
REMARK    5  A    between atoms: C_12  and  O_13
REMARK    6  A    between atoms: C_16  and  C_17
REMARK                            x       y       z     vdW  Elec       q    Type
REMARK                         _______ _______ _______ _____ _____    ______ ____
ROOT
ATOM      1  C   UNL     1       1.833   8.795  19.050  0.00  0.00    +0.000 A 
ATOM      2  C   UNL     1       2.657   8.248  18.047  0.00  0.00    +0.000 A 
ATOM      3  C   UNL     1       3.187   6.968  18.131  0.00  0.00    +0.000 A 
ATOM      4  N   UNL     1       3.952   6.501  17.126  0.00  0.00    +0.000 NA
ATOM      5  C   UNL     1       4.479   5.254  17.166  0.00  0.00    +0.000 A 
ATOM      6  N   UNL     1       5.262   4.846  16.106  0.00  0.00    +0.000 N 
ATOM      7  C   UNL     1       5.491   5.761  14.992  0.00  0.00    +0.000 C 
ATOM      8  C   UNL     1       5.856   3.528  15.959  0.00  0.00    +0.000 C 
ATOM      9  C   UNL     1       4.219   4.447  18.268  0.00  0.00    +0.000 A 
ATOM     10  C   UNL     1       3.433   4.927  19.310  0.00  0.00    +0.000 A 
ATOM     11  C   UNL     1       2.897   6.213  19.266  0.00  0.00    +0.000 A 
ATOM     12  C   UNL     1       2.104   6.759  20.295  0.00  0.00    +0.000 A 
ATOM     13  C   UNL     1       1.568   8.054  20.217  0.00  0.00    +0.000 A 
ENDROOT
BRANCH  13  14
ATOM     14  C   UNL     1       0.765   8.552  21.334  0.00  0.00    +0.000 A 
ATOM     15  C   UNL     1      -0.558   8.537  21.721  0.00  0.00    +0.000 A 
ATOM     16  N   UNL     1      -0.726   9.206  22.913  0.00  0.00    +0.000 NA
ATOM     17  C   UNL     1       0.488   9.603  23.206  0.00  0.00    +0.000 A 
ATOM     18  O   UNL     1       1.444   9.251  22.310  0.00  0.00    +0.000 OA
ENDBRANCH  13  14
BRANCH   1  20
ATOM     19  C   UNL     1       0.051  10.141  18.256  0.00  0.00    +0.000 C 
ATOM     20  O   UNL     1       1.300  10.057  18.943  0.00  0.00    +0.000 OA
ENDBRANCH   1  20
BRANCH  10  21
ATOM     21  O   UNL     1       3.176   4.132  20.398  0.00  0.00    +0.000 OA
ATOM     22  H   UNL     1       2.484   4.545  20.942  0.00  0.00    +0.000 HD
ENDBRANCH  10  21
TORSDOF 3
ENDMDL
MODEL 5
REMARK VINA RESULT:      -6.5      2.404      6.323
REMARK  Name = 
REMARK  6 active torsions:
REMARK  status: ('A' for Active; 'I' for Inactive)
REMARK    1  A    between atoms: C_1  and  O_2
REMARK    2  A    between atoms: O_2  and  C_3
REMARK    3  A    between atoms: N_8  and  C_9
REMARK    4  A    between atoms: N_8  and  C_10
REMARK    5  A    between atoms: C_12  and  O_13
REMARK    6  A    between atoms: C_16  and  C_17
REMARK                            x       y       z     vdW  Elec       q    Type
REMARK                         _______ _______ _______ _____ _____    ______ ____
ROOT
ATOM      1  C   UNL     1       0.481   9.145  20.825  0.00  0.00    +0.000 A 
ATOM      2  C   UNL     1       0.797   7.807  21.133  0.00  0.00    +0.000 A 
ATOM      3  C   UNL     1       1.637   7.037  20.340  0.00  0.00    +0.000 A 
ATOM      4  N   UNL     1       1.912   5.770  20.704  0.00  0.00    +0.000 NA
ATOM      5  C   UNL     1       2.734   4.990  19.962  0.00  0.00    +0.000 A 
ATOM      6  N   UNL     1       2.963   3.698  20.390  0.00  0.00    +0.000 N 
ATOM      7  C   UNL     1       2.319   3.224  21.611  0.00  0.00    +0.000 C 
ATOM      8  C   UNL     1       3.856   2.747  19.750  0.00  0.00    +0.000 C 
ATOM      9  C   UNL     1       3.301   5.514  18.807  0.00  0.00    +0.000 A 
ATOM     10  C   UNL     1       3.016   6.821  18.425  0.00  0.00    +0.000 A 
ATOM     11  C   UNL     1       2.166   7.618  19.190  0.00  0.00    +0.000 A 
ATOM     12  C   UNL     1       1.830   8.944  18.848  0.00  0.00    +0.000 A 
ATOM     13  C   UNL     1       0.979   9.727  19.645  0.00  0.00    +0.000 A 
ENDROOT
BRANCH  13  14
ATOM     14  C   UNL     1       0.669  11.090  19.215  0.00  0.00    +0.000 A 
ATOM     15  C   UNL     1       1.294  12.319  19.203  0.00  0.00    +0.000 A 
ATOM     16  N   UNL     1       0.471  13.280  18.661  0.00  0.00    +0.000 NA
ATOM     17  C   UNL     1      -0.616  12.611  18.367  0.00  0.00    +0.000 A 
ATOM     18  O   UNL     1      -0.580  11.288  18.667  0.00  0.00    +0.000 OA
ENDBRANCH  13  14
BRANCH   1  20
ATOM     19  C   UNL     1      -0.239   9.631  23.030  0.00  0.00    +0.000 C 
ATOM     20  O   UNL     1      -0.337   9.901  21.632  0.00  0.00    +0.000 OA
ENDBRANCH   1  20
BRANCH  10  21
ATOM     21  O   UNL     1       3.574   7.341  17.285  0.00  0.00    +0.000 OA
ATOM     22  H   UNL     1       3.717   8.295  17.403  0.00  0.00    +0.000 HD
ENDBRANCH  10  21
TORSDOF 3
ENDMDL
MODEL 6
REMARK VINA RESULT:      -6.3      2.497      6.829
REMARK  Name = 
REMARK  6 active torsions:
REMARK  status: ('A' for Active; 'I' for Inactive)
REMARK    1  A    between atoms: C_1  and  O_2
REMARK    2  A    between atoms: O_2  and  C_3
REMARK    3  A    between atoms: N_8  and  C_9
REMARK    4  A    between atoms: N_8  and  C_10
REMARK    5  A    between atoms: C_12  and  O_13
REMARK    6  A    between atoms: C_16  and  C_17
REMARK                            x       y       z     vdW  Elec       q    Type
REMARK                         _______ _______ _______ _____ _____    ______ ____
ROOT
ATOM      1  C   UNL     1       0.758   9.864  21.840  0.00  0.00    +0.000 A 
ATOM      2  C   UNL     1       1.108   8.506  21.706  0.00  0.00    +0.000 A 
ATOM      3  C   UNL     1       1.574   7.969  20.514  0.00  0.00    +0.000 A 
ATOM      4  N   UNL     1       1.909   6.666  20.461  0.00  0.00    +0.000 NA
ATOM      5  C   UNL     1       2.376   6.107  19.320  0.00  0.00    +0.000 A 
ATOM      6  N   UNL     1       2.690   4.763  19.336  0.00  0.00    +0.000 N 
ATOM      7  C   UNL     1       2.508   4.001  20.568  0.00  0.00    +0.000 C 
ATOM      8  C   UNL     1       3.254   4.019  18.223  0.00  0.00    +0.000 C 
ATOM      9  C   UNL     1       2.514   6.901  18.187  0.00  0.00    +0.000 A 
ATOM     10  C   UNL     1       2.165   8.246  18.236  0.00  0.00    +0.000 A 
ATOM     11  C   UNL     1       1.679   8.815  19.412  0.00  0.00    +0.000 A 
ATOM     12  C   UNL     1       1.299  10.168  19.520  0.00  0.00    +0.000 A 
ATOM     13  C   UNL     1       0.824  10.716  20.722  0.00  0.00    +0.000 A 
ENDROOT
BRANCH  13  14
ATOM     14  C   UNL     1       0.437  12.126  20.749  0.00  0.00    +0.000 A 
ATOM     15  C   UNL     1      -0.608  12.903  20.296  0.00  0.00    +0.000 A 
ATOM     16  N   UNL     1      -0.412  14.226  20.623  0.00  0.00    +0.000 NA
ATOM     17  C   UNL     1       0.736  14.210  21.254  0.00  0.00    +0.000 A 
ATOM     18  O   UNL     1       1.313  12.988  21.375  0.00  0.00    +0.000 OA
ENDBRANCH  13  14
BRANCH   1  20
ATOM     19  C   UNL     1      -1.097  10.342  23.235  0.00  0.00    +0.000 C 
ATOM     20  O   UNL     1       0.316  10.385  23.033  0.00  0.00    +0.000 OA
ENDBRANCH   1  20
BRANCH  10  21
ATOM     21  O   UNL     1       2.299   9.032  17.119  0.00  0.00    +0.000 OA
ATOM     22  H   UNL     1       2.984   8.656  16.541  0.00  0.00    +0.000 HD
ENDBRANCH  10  21
TORSDOF 3
ENDMDL
MODEL 7
REMARK VINA RESULT:      -6.3      2.491      3.968
REMARK  Name = 
REMARK  6 active torsions:
REMARK  status: ('A' for Active; 'I' for Inactive)
REMARK    1  A    between atoms: C_1  and  O_2
REMARK    2  A    between atoms: O_2  and  C_3
REMARK    3  A    between atoms: N_8  and  C_9
REMARK    4  A    between atoms: N_8  and  C_10
REMARK    5  A    between atoms: C_12  and  O_13
REMARK    6  A    between atoms: C_16  and  C_17
REMARK                            x       y       z     vdW  Elec       q    Type
REMARK                         _______ _______ _______ _____ _____    ______ ____
ROOT
ATOM      1  C   UNL     1       2.336   7.030  18.728  0.00  0.00    +0.000 A 
ATOM      2  C   UNL     1       2.052   8.388  18.485  0.00  0.00    +0.000 A 
ATOM      3  C   UNL     1       1.487   9.216  19.445  0.00  0.00    +0.000 A 
ATOM      4  N   UNL     1       1.260  10.511  19.151  0.00  0.00    +0.000 NA
ATOM      5  C   UNL     1       0.720  11.353  20.064  0.00  0.00    +0.000 A 
ATOM      6  N   UNL     1       0.505  12.664  19.690  0.00  0.00    +0.000 N 
ATOM      7  C   UNL     1       0.863  13.091  18.341  0.00  0.00    +0.000 C 
ATOM      8  C   UNL     1      -0.011  13.710  20.556  0.00  0.00    +0.000 C 
ATOM      9  C   UNL     1       0.398  10.865  21.325  0.00  0.00    +0.000 A 
ATOM     10  C   UNL     1       0.628   9.528  21.631  0.00  0.00    +0.000 A 
ATOM     11  C   UNL     1       1.180   8.664  20.686  0.00  0.00    +0.000 A 
ATOM     12  C   UNL     1       1.424   7.298  20.933  0.00  0.00    +0.000 A 
ATOM     13  C   UNL     1       1.992   6.455  19.965  0.00  0.00    +0.000 A 
ENDROOT
BRANCH  13  14
ATOM     14  C   UNL     1       2.202   5.046  20.295  0.00  0.00    +0.000 A 
ATOM     15  C   UNL     1       3.236   4.134  20.249  0.00  0.00    +0.000 A 
ATOM     16  N   UNL     1       2.820   2.901  20.699  0.00  0.00    +0.000 NA
ATOM     17  C   UNL     1       1.560   3.102  20.998  0.00  0.00    +0.000 A 
ATOM     18  O   UNL     1       1.109   4.364  20.787  0.00  0.00    +0.000 OA
ENDBRANCH  13  14
BRANCH   1  20
ATOM     19  C   UNL     1       4.250   6.573  17.407  0.00  0.00    +0.000 C 
ATOM     20  O   UNL     1       2.913   6.228  17.773  0.00  0.00    +0.000 OA
ENDBRANCH   1  20
BRANCH  10  21
ATOM     21  O   UNL     1       0.311   9.044  22.875  0.00  0.00    +0.000 OA
ATOM     22  H   UNL     1      -0.226   9.701  23.349  0.00  0.00    +0.000 HD
ENDBRANCH  10  21
TORSDOF 3
ENDMDL
MODEL 8
REMARK VINA RESULT:      -6.1      3.969      5.672
REMARK  Name = 
REMARK  6 active torsions:
REMARK  status: ('A' for Active; 'I' for Inactive)
REMARK    1  A    between atoms: C_1  and  O_2
REMARK    2  A    between atoms: O_2  and  C_3
REMARK    3  A    between atoms: N_8  and  C_9
REMARK    4  A    between atoms: N_8  and  C_10
REMARK    5  A    between atoms: C_12  and  O_13
REMARK    6  A    between atoms: C_16  and  C_17
REMARK                            x       y       z     vdW  Elec       q    Type
REMARK                         _______ _______ _______ _____ _____    ______ ____
ROOT
ATOM      1  C   UNL     1       5.529   5.866  16.554  0.00  0.00    +0.000 A 
ATOM      2  C   UNL     1       4.757   5.820  17.731  0.00  0.00    +0.000 A 
ATOM      3  C   UNL     1       4.179   4.648  18.199  0.00  0.00    +0.000 A 
ATOM      4  N   UNL     1       3.469   4.672  19.343  0.00  0.00    +0.000 NA
ATOM      5  C   UNL     1       2.897   3.549  19.837  0.00  0.00    +0.000 A 
ATOM      6  N   UNL     1       2.175   3.649  21.009  0.00  0.00    +0.000 N 
ATOM      7  C   UNL     1       2.055   4.947  21.667  0.00  0.00    +0.000 C 
ATOM      8  C   UNL     1       1.546   2.540  21.707  0.00  0.00    +0.000 C 
ATOM      9  C   UNL     1       3.052   2.352  19.147  0.00  0.00    +0.000 A 
ATOM     10  C   UNL     1       3.781   2.324  17.963  0.00  0.00    +0.000 A 
ATOM     11  C   UNL     1       4.363   3.485  17.455  0.00  0.00    +0.000 A 
ATOM     12  C   UNL     1       5.102   3.522  16.255  0.00  0.00    +0.000 A 
ATOM     13  C   UNL     1       5.687   4.704  15.776  0.00  0.00    +0.000 A 
ENDROOT
BRANCH  13  14
ATOM     14  C   UNL     1       6.428   4.662  14.516  0.00  0.00    +0.000 A 
ATOM     15  C   UNL     1       6.326   4.025  13.297  0.00  0.00    +0.000 A 
ATOM     16  N   UNL     1       7.365   4.386  12.469  0.00  0.00    +0.000 NA
ATOM     17  C   UNL     1       8.058   5.219  13.204  0.00  0.00    +0.000 A 
ATOM     18  O   UNL     1       7.563   5.442  14.448  0.00  0.00    +0.000 OA
ENDBRANCH  13  14
BRANCH   1  20
ATOM     19  C   UNL     1       6.966   7.683  17.053  0.00  0.00    +0.000 C 
ATOM     20  O   UNL     1       6.111   7.031  16.114  0.00  0.00    +0.000 OA
ENDBRANCH   1  20
BRANCH  10  21
ATOM     21  O   UNL     1       3.935   1.145  17.279  0.00  0.00    +0.000 OA
ATOM     22  H   UNL     1       4.351   0.487  17.861  0.00  0.00    +0.000 HD
ENDBRANCH  10  21
TORSDOF 3
ENDMDL
MODEL 9
REMARK VINA RESULT:      -6.1      2.646      7.189
REMARK  Name = 
REMARK  6 active torsions:
REMARK  status: ('A' for Active; 'I' for Inactive)
REMARK    1  A    between atoms: C_1  and  O_2
REMARK    2  A    between atoms: O_2  and  C_3
REMARK    3  A    between atoms: N_8  and  C_9
REMARK    4  A    between atoms: N_8  and  C_10
REMARK    5  A    between atoms: C_12  and  O_13
REMARK    6  A    between atoms: C_16  and  C_17
REMARK                            x       y       z     vdW  Elec       q    Type
REMARK                         _______ _______ _______ _____ _____    ______ ____
ROOT
ATOM      1  C   UNL     1       0.263  10.752  21.780  0.00  0.00    +0.000 A 
ATOM      2  C   UNL     1       0.663   9.402  21.733  0.00  0.00    +0.000 A 
ATOM      3  C   UNL     1       1.203   8.822  20.593  0.00  0.00    +0.000 A 
ATOM      4  N   UNL     1       1.582   7.530  20.624  0.00  0.00    +0.000 NA
ATOM      5  C   UNL     1       2.121   6.931  19.536  0.00  0.00    +0.000 A 
ATOM      6  N   UNL     1       2.477   5.602  19.636  0.00  0.00    +0.000 N 
ATOM      7  C   UNL     1       2.261   4.896  20.896  0.00  0.00    +0.000 C 
ATOM      8  C   UNL     1       3.117   4.822  18.590  0.00  0.00    +0.000 C 
ATOM      9  C   UNL     1       2.286   7.671  18.370  0.00  0.00    +0.000 A 
ATOM     10  C   UNL     1       1.892   9.004  18.333  0.00  0.00    +0.000 A 
ATOM     11  C   UNL     1       1.332   9.615  19.455  0.00  0.00    +0.000 A 
ATOM     12  C   UNL     1       0.903  10.957  19.474  0.00  0.00    +0.000 A 
ATOM     13  C   UNL     1       0.354  11.548  20.623  0.00  0.00    +0.000 A 
ENDROOT
BRANCH  13  14
ATOM     14  C   UNL     1      -0.079  12.944  20.559  0.00  0.00    +0.000 A 
ATOM     15  C   UNL     1       0.501  14.192  20.632  0.00  0.00    +0.000 A 
ATOM     16  N   UNL     1      -0.450  15.180  20.510  0.00  0.00    +0.000 NA
ATOM     17  C   UNL     1      -1.565  14.507  20.372  0.00  0.00    +0.000 A 
ATOM     18  O   UNL     1      -1.430  13.156  20.389  0.00  0.00    +0.000 OA
ENDBRANCH  13  14
BRANCH   1  20
ATOM     19  C   UNL     1      -1.612  10.990  23.210  0.00  0.00    +0.000 C 
ATOM     20  O   UNL     1      -0.252  11.316  22.923  0.00  0.00    +0.000 OA
ENDBRANCH   1  20
BRANCH  10  21
ATOM     21  O   UNL     1       2.053   9.736  17.184  0.00  0.00    +0.000 OA
ATOM     22  H   UNL     1       2.158   9.132  16.430  0.00  0.00    +0.000 HD
ENDBRANCH  10  21
TORSDOF 3
ENDMDL
