MODEL 1
REMARK VINA RESULT:      -8.0      0.000      0.000
REMARK  Name = 
REMARK  5 active torsions:
REMARK  status: ('A' for Active; 'I' for Inactive)
REMARK    1  A    between atoms: C_1  and  C_2
REMARK    2  A    between atoms: C_6  and  N_7
REMARK    3  A    between atoms: C_8  and  S_9
REMARK    4  A    between atoms: S_9  and  C_10
REMARK    5  A    between atoms: C_10  and  C_11
REMARK                            x       y       z     vdW  Elec       q    Type
REMARK                         _______ _______ _______ _____ _____    ______ ____
ROOT
ATOM      1  N   UNL     1       2.339   6.630  19.388  0.00  0.00    +0.000 N 
ATOM      2  C   UNL     1       1.756   7.860  19.671  0.00  0.00    +0.000 A 
ATOM      3  N   UNL     1       2.283   8.803  18.917  0.00  0.00    +0.000 NA
ATOM      4  N   UNL     1       3.222   8.212  18.108  0.00  0.00    +0.000 NA
ATOM      5  C   UNL     1       3.295   6.925  18.399  0.00  0.00    +0.000 A 
ATOM      6  N   UNL     1       4.118   5.994  17.827  0.00  0.00    +0.000 N 
ATOM      7  C   UNL     1       4.691   6.257  16.497  0.00  0.00    +0.000 C 
ATOM      8  C   UNL     1       4.894   4.889  15.803  0.00  0.00    +0.000 C 
ATOM      9  O   UNL     1       5.765   4.039  16.573  0.00  0.00    +0.000 OA
ATOM     10  C   UNL     1       5.230   3.828  17.894  0.00  0.00    +0.000 C 
ATOM     11  C   UNL     1       5.032   5.164  18.638  0.00  0.00    +0.000 C 
ENDROOT
BRANCH   1  17
ATOM     12  C   UNL     1       0.631   2.008  18.731  0.00  0.00    +0.000 C 
ATOM     13  C   UNL     1       1.229   3.062  19.617  0.00  0.00    +0.000 A 
ATOM     14  C   UNL     1       1.678   2.739  20.899  0.00  0.00    +0.000 A 
ATOM     15  C   UNL     1       2.271   3.713  21.706  0.00  0.00    +0.000 A 
ATOM     16  C   UNL     1       2.459   5.008  21.227  0.00  0.00    +0.000 A 
ATOM     17  C   UNL     1       2.033   5.346  19.942  0.00  0.00    +0.000 A 
ATOM     18  C   UNL     1       1.382   4.377  19.157  0.00  0.00    +0.000 A 
ENDBRANCH   1  17
BRANCH   2  19
ATOM     19  S   UNL     1       0.366   8.074  20.697  0.00  0.00    +0.000 S 
BRANCH  19  20
ATOM     20  C   UNL     1      -0.264   9.707  20.211  0.00  0.00    +0.000 C 
BRANCH  20  21
ATOM     21  C   UNL     1       0.524  10.818  20.920  0.00  0.00    +0.000 C 
ATOM     22  O   UNL     1       1.215  10.601  21.918  0.00  0.00    +0.000 OA
ATOM     23  N   UNL     1       0.455  12.093  20.367  0.00  0.00    +0.000 N 
ATOM     24  C   UNL     1       1.304  13.164  20.934  0.00  0.00    +0.000 C 
ATOM     25  C   UNL     1       1.765  14.168  19.849  0.00  0.00    +0.000 C 
ATOM     26  N   UNL     1       0.568  14.640  19.144  0.00  0.00    +0.000 N 
ATOM     27  C   UNL     1       0.569  15.910  18.596  0.00  0.00    +0.000 A 
ATOM     28  C   UNL     1      -0.659  16.552  18.394  0.00  0.00    +0.000 A 
ATOM     29  C   UNL     1      -0.695  17.868  17.952  0.00  0.00    +0.000 A 
ATOM     30  C   UNL     1       0.498  18.524  17.704  0.00  0.00    +0.000 A 
ATOM     31  C   UNL     1       1.674  17.827  17.916  0.00  0.00    +0.000 A 
ATOM     32  N   UNL     1       1.732  16.552  18.370  0.00  0.00    +0.000 NA
ATOM     33  C   UNL     1      -0.178  13.572  18.467  0.00  0.00    +0.000 C 
ATOM     34  C   UNL     1      -0.662  12.578  19.537  0.00  0.00    +0.000 C 
ENDBRANCH  20  21
ENDBRANCH  19  20
ENDBRANCH   2  19
TORSDOF 4
ENDMDL
MODEL 2
REMARK VINA RESULT:      -7.7      3.047      3.824
REMARK  Name = 
REMARK  5 active torsions:
REMARK  status: ('A' for Active; 'I' for Inactive)
REMARK    1  A    between atoms: C_1  and  C_2
REMARK    2  A    between atoms: C_6  and  N_7
REMARK    3  A    between atoms: C_8  and  S_9
REMARK    4  A    between atoms: S_9  and  C_10
REMARK    5  A    between atoms: C_10  and  C_11
REMARK                            x       y       z     vdW  Elec       q    Type
REMARK                         _______ _______ _______ _____ _____    ______ ____
ROOT
ATOM      1  N   UNL     1       2.427   6.703  19.188  0.00  0.00    +0.000 N 
ATOM      2  C   UNL     1       1.861   7.953  19.415  0.00  0.00    +0.000 A 
ATOM      3  N   UNL     1       2.416   8.857  18.633  0.00  0.00    +0.000 NA
ATOM      4  N   UNL     1       3.358   8.219  17.863  0.00  0.00    +0.000 NA
ATOM      5  C   UNL     1       3.403   6.943  18.205  0.00  0.00    +0.000 A 
ATOM      6  N   UNL     1       4.218   5.977  17.682  0.00  0.00    +0.000 N 
ATOM      7  C   UNL     1       4.816   6.178  16.352  0.00  0.00    +0.000 C 
ATOM      8  C   UNL     1       5.005   4.781  15.715  0.00  0.00    +0.000 C 
ATOM      9  O   UNL     1       5.848   3.946  16.532  0.00  0.00    +0.000 OA
ATOM     10  C   UNL     1       5.290   3.796  17.851  0.00  0.00    +0.000 C 
ATOM     11  C   UNL     1       5.104   5.163  18.539  0.00  0.00    +0.000 C 
ENDROOT
BRANCH   1  17
ATOM     12  C   UNL     1       0.672   2.080  18.677  0.00  0.00    +0.000 C 
ATOM     13  C   UNL     1       1.261   3.162  19.534  0.00  0.00    +0.000 A 
ATOM     14  C   UNL     1       1.674   2.887  20.840  0.00  0.00    +0.000 A 
ATOM     15  C   UNL     1       2.260   3.885  21.621  0.00  0.00    +0.000 A 
ATOM     16  C   UNL     1       2.478   5.157  21.094  0.00  0.00    +0.000 A 
ATOM     17  C   UNL     1       2.089   5.448  19.786  0.00  0.00    +0.000 A 
ATOM     18  C   UNL     1       1.445   4.456  19.025  0.00  0.00    +0.000 A 
ENDBRANCH   1  17
BRANCH   2  19
ATOM     19  S   UNL     1       0.460   8.231  20.409  0.00  0.00    +0.000 S 
BRANCH  19  20
ATOM     20  C   UNL     1       0.653   9.962  20.929  0.00  0.00    +0.000 C 
BRANCH  20  21
ATOM     21  C   UNL     1      -0.325  10.863  20.162  0.00  0.00    +0.000 C 
ATOM     22  O   UNL     1      -0.474  10.784  18.940  0.00  0.00    +0.000 OA
ATOM     23  N   UNL     1      -1.075  11.763  20.912  0.00  0.00    +0.000 N 
ATOM     24  C   UNL     1      -2.127  12.555  20.237  0.00  0.00    +0.000 C 
ATOM     25  C   UNL     1      -3.333  12.825  21.169  0.00  0.00    +0.000 C 
ATOM     26  N   UNL     1      -2.811  13.422  22.405  0.00  0.00    +0.000 N 
ATOM     27  C   UNL     1      -3.615  14.294  23.119  0.00  0.00    +0.000 A 
ATOM     28  C   UNL     1      -3.000  15.232  23.958  0.00  0.00    +0.000 A 
ATOM     29  C   UNL     1      -3.764  16.196  24.604  0.00  0.00    +0.000 A 
ATOM     30  C   UNL     1      -5.134  16.203  24.415  0.00  0.00    +0.000 A 
ATOM     31  C   UNL     1      -5.675  15.241  23.580  0.00  0.00    +0.000 A 
ATOM     32  N   UNL     1      -4.947  14.308  22.922  0.00  0.00    +0.000 NA
ATOM     33  C   UNL     1      -1.879  12.554  23.132  0.00  0.00    +0.000 C 
ATOM     34  C   UNL     1      -0.664  12.294  22.224  0.00  0.00    +0.000 C 
ENDBRANCH  20  21
ENDBRANCH  19  20
ENDBRANCH   2  19
TORSDOF 4
ENDMDL
MODEL 3
REMARK VINA RESULT:      -7.7      4.248     11.086
REMARK  Name = 
REMARK  5 active torsions:
REMARK  status: ('A' for Active; 'I' for Inactive)
REMARK    1  A    between atoms: C_1  and  C_2
REMARK    2  A    between atoms: C_6  and  N_7
REMARK    3  A    between atoms: C_8  and  S_9
REMARK    4  A    between atoms: S_9  and  C_10
REMARK    5  A    between atoms: C_10  and  C_11
REMARK                            x       y       z     vdW  Elec       q    Type
REMARK                         _______ _______ _______ _____ _____    ______ ____
ROOT
ATOM      1  N   UNL     1      -1.711  13.981  22.894  0.00  0.00    +0.000 N 
ATOM      2  C   UNL     1      -0.734  13.263  22.213  0.00  0.00    +0.000 A 
ATOM      3  N   UNL     1       0.421  13.895  22.268  0.00  0.00    +0.000 NA
ATOM      4  N   UNL     1       0.233  15.042  22.998  0.00  0.00    +0.000 NA
ATOM      5  C   UNL     1      -1.038  15.128  23.349  0.00  0.00    +0.000 A 
ATOM      6  N   UNL     1      -1.630  16.128  24.072  0.00  0.00    +0.000 N 
ATOM      7  C   UNL     1      -0.798  16.992  24.925  0.00  0.00    +0.000 C 
ATOM      8  C   UNL     1      -1.677  17.451  26.112  0.00  0.00    +0.000 C 
ATOM      9  O   UNL     1      -2.843  18.161  25.653  0.00  0.00    +0.000 OA
ATOM     10  C   UNL     1      -3.627  17.333  24.772  0.00  0.00    +0.000 C 
ATOM     11  C   UNL     1      -2.800  16.867  23.558  0.00  0.00    +0.000 C 
ENDROOT
BRANCH   1  17
ATOM     12  C   UNL     1      -6.274  13.269  21.050  0.00  0.00    +0.000 C 
ATOM     13  C   UNL     1      -5.319  13.248  22.208  0.00  0.00    +0.000 A 
ATOM     14  C   UNL     1      -5.702  12.697  23.434  0.00  0.00    +0.000 A 
ATOM     15  C   UNL     1      -4.798  12.641  24.496  0.00  0.00    +0.000 A 
ATOM     16  C   UNL     1      -3.490  13.097  24.336  0.00  0.00    +0.000 A 
ATOM     17  C   UNL     1      -3.083  13.635  23.115  0.00  0.00    +0.000 A 
ATOM     18  C   UNL     1      -4.015  13.743  22.067  0.00  0.00    +0.000 A 
ENDBRANCH   1  17
BRANCH   2  19
ATOM     19  S   UNL     1      -0.953  11.653  21.590  0.00  0.00    +0.000 S 
BRANCH  19  20
ATOM     20  C   UNL     1       0.745  11.105  21.243  0.00  0.00    +0.000 C 
BRANCH  20  21
ATOM     21  C   UNL     1       0.917  10.818  19.745  0.00  0.00    +0.000 C 
ATOM     22  O   UNL     1       0.757  11.687  18.884  0.00  0.00    +0.000 OA
ATOM     23  N   UNL     1       1.300   9.529  19.389  0.00  0.00    +0.000 N 
ATOM     24  C   UNL     1       1.611   9.241  17.971  0.00  0.00    +0.000 C 
ATOM     25  C   UNL     1       2.729   8.179  17.830  0.00  0.00    +0.000 C 
ATOM     26  N   UNL     1       2.331   7.009  18.622  0.00  0.00    +0.000 N 
ATOM     27  C   UNL     1       2.763   5.755  18.229  0.00  0.00    +0.000 A 
ATOM     28  C   UNL     1       2.016   4.638  18.624  0.00  0.00    +0.000 A 
ATOM     29  C   UNL     1       2.352   3.373  18.158  0.00  0.00    +0.000 A 
ATOM     30  C   UNL     1       3.440   3.238  17.313  0.00  0.00    +0.000 A 
ATOM     31  C   UNL     1       4.138   4.383  16.972  0.00  0.00    +0.000 A 
ATOM     32  N   UNL     1       3.813   5.628  17.395  0.00  0.00    +0.000 NA
ATOM     33  C   UNL     1       2.170   7.292  20.054  0.00  0.00    +0.000 C 
ATOM     34  C   UNL     1       1.046   8.331  20.210  0.00  0.00    +0.000 C 
ENDBRANCH  20  21
ENDBRANCH  19  20
ENDBRANCH   2  19
TORSDOF 4
ENDMDL
MODEL 4
REMARK VINA RESULT:      -7.7      1.233      1.493
REMARK  Name = 
REMARK  5 active torsions:
REMARK  status: ('A' for Active; 'I' for Inactive)
REMARK    1  A    between atoms: C_1  and  C_2
REMARK    2  A    between atoms: C_6  and  N_7
REMARK    3  A    between atoms: C_8  and  S_9
REMARK    4  A    between atoms: S_9  and  C_10
REMARK    5  A    between atoms: C_10  and  C_11
REMARK                            x       y       z     vdW  Elec       q    Type
REMARK                         _______ _______ _______ _____ _____    ______ ____
ROOT
ATOM      1  N   UNL     1       2.428   6.733  19.175  0.00  0.00    +0.000 N 
ATOM      2  C   UNL     1       1.850   7.979  19.394  0.00  0.00    +0.000 A 
ATOM      3  N   UNL     1       2.399   8.884  18.610  0.00  0.00    +0.000 NA
ATOM      4  N   UNL     1       3.348   8.252  17.845  0.00  0.00    +0.000 NA
ATOM      5  C   UNL     1       3.405   6.978  18.193  0.00  0.00    +0.000 A 
ATOM      6  N   UNL     1       4.231   6.017  17.677  0.00  0.00    +0.000 N 
ATOM      7  C   UNL     1       4.831   6.218  16.349  0.00  0.00    +0.000 C 
ATOM      8  C   UNL     1       5.035   4.820  15.719  0.00  0.00    +0.000 C 
ATOM      9  O   UNL     1       5.884   3.996  16.541  0.00  0.00    +0.000 OA
ATOM     10  C   UNL     1       5.323   3.848  17.859  0.00  0.00    +0.000 C 
ATOM     11  C   UNL     1       5.122   5.216  18.541  0.00  0.00    +0.000 C 
ENDROOT
BRANCH   1  17
ATOM     12  C   UNL     1       0.700   2.098  18.683  0.00  0.00    +0.000 C 
ATOM     13  C   UNL     1       1.286   3.186  19.535  0.00  0.00    +0.000 A 
ATOM     14  C   UNL     1       1.706   2.917  20.840  0.00  0.00    +0.000 A 
ATOM     15  C   UNL     1       2.288   3.921  21.616  0.00  0.00    +0.000 A 
ATOM     16  C   UNL     1       2.496   5.193  21.085  0.00  0.00    +0.000 A 
ATOM     17  C   UNL     1       2.100   5.477  19.778  0.00  0.00    +0.000 A 
ATOM     18  C   UNL     1       1.459   4.479  19.022  0.00  0.00    +0.000 A 
ENDBRANCH   1  17
BRANCH   2  19
ATOM     19  S   UNL     1       0.443   8.248  20.383  0.00  0.00    +0.000 S 
BRANCH  19  20
ATOM     20  C   UNL     1       1.099   9.183  21.796  0.00  0.00    +0.000 C 
BRANCH  20  21
ATOM     21  C   UNL     1       0.038  10.155  22.332  0.00  0.00    +0.000 C 
ATOM     22  O   UNL     1      -0.718   9.860  23.261  0.00  0.00    +0.000 OA
ATOM     23  N   UNL     1      -0.018  11.415  21.744  0.00  0.00    +0.000 N 
ATOM     24  C   UNL     1      -0.929  12.431  22.316  0.00  0.00    +0.000 C 
ATOM     25  C   UNL     1      -0.353  13.862  22.184  0.00  0.00    +0.000 C 
ATOM     26  N   UNL     1      -0.006  14.071  20.774  0.00  0.00    +0.000 N 
ATOM     27  C   UNL     1      -0.061  15.352  20.253  0.00  0.00    +0.000 A 
ATOM     28  C   UNL     1      -0.241  15.505  18.873  0.00  0.00    +0.000 A 
ATOM     29  C   UNL     1      -0.413  16.770  18.327  0.00  0.00    +0.000 A 
ATOM     30  C   UNL     1      -0.388  17.871  19.166  0.00  0.00    +0.000 A 
ATOM     31  C   UNL     1      -0.195  17.647  20.517  0.00  0.00    +0.000 A 
ATOM     32  N   UNL     1      -0.051  16.420  21.073  0.00  0.00    +0.000 NA
ATOM     33  C   UNL     1       1.010  13.139  20.271  0.00  0.00    +0.000 C 
ATOM     34  C   UNL     1       0.441  11.713  20.375  0.00  0.00    +0.000 C 
ENDBRANCH  20  21
ENDBRANCH  19  20
ENDBRANCH   2  19
TORSDOF 4
ENDMDL
MODEL 5
REMARK VINA RESULT:      -7.7      0.970      1.479
REMARK  Name = 
REMARK  5 active torsions:
REMARK  status: ('A' for Active; 'I' for Inactive)
REMARK    1  A    between atoms: C_1  and  C_2
REMARK    2  A    between atoms: C_6  and  N_7
REMARK    3  A    between atoms: C_8  and  S_9
REMARK    4  A    between atoms: S_9  and  C_10
REMARK    5  A    between atoms: C_10  and  C_11
REMARK                            x       y       z     vdW  Elec       q    Type
REMARK                         _______ _______ _______ _____ _____    ______ ____
ROOT
ATOM      1  N   UNL     1       2.957   6.287  18.398  0.00  0.00    +0.000 N 
ATOM      2  C   UNL     1       2.548   7.545  18.826  0.00  0.00    +0.000 A 
ATOM      3  N   UNL     1       3.217   8.486  18.191  0.00  0.00    +0.000 NA
ATOM      4  N   UNL     1       4.079   7.868  17.319  0.00  0.00    +0.000 NA
ATOM      5  C   UNL     1       3.963   6.558  17.454  0.00  0.00    +0.000 A 
ATOM      6  N   UNL     1       4.657   5.594  16.775  0.00  0.00    +0.000 N 
ATOM      7  C   UNL     1       5.288   5.929  15.488  0.00  0.00    +0.000 C 
ATOM      8  C   UNL     1       5.308   4.638  14.635  0.00  0.00    +0.000 C 
ATOM      9  O   UNL     1       6.035   3.587  15.299  0.00  0.00    +0.000 OA
ATOM     10  C   UNL     1       5.450   3.299  16.584  0.00  0.00    +0.000 C 
ATOM     11  C   UNL     1       5.429   4.552  17.482  0.00  0.00    +0.000 C 
ENDROOT
BRANCH   1  17
ATOM     12  C   UNL     1       2.193   2.942  21.995  0.00  0.00    +0.000 C 
ATOM     13  C   UNL     1       2.050   3.372  20.564  0.00  0.00    +0.000 A 
ATOM     14  C   UNL     1       1.262   2.634  19.678  0.00  0.00    +0.000 A 
ATOM     15  C   UNL     1       1.098   3.058  18.357  0.00  0.00    +0.000 A 
ATOM     16  C   UNL     1       1.684   4.243  17.919  0.00  0.00    +0.000 A 
ATOM     17  C   UNL     1       2.461   5.004  18.793  0.00  0.00    +0.000 A 
ATOM     18  C   UNL     1       2.672   4.541  20.104  0.00  0.00    +0.000 A 
ENDBRANCH   1  17
BRANCH   2  19
ATOM     19  S   UNL     1       1.183   7.832  19.867  0.00  0.00    +0.000 S 
BRANCH  19  20
ATOM     20  C   UNL     1       0.588   9.465  19.335  0.00  0.00    +0.000 C 
BRANCH  20  21
ATOM     21  C   UNL     1       0.793  10.498  20.452  0.00  0.00    +0.000 C 
ATOM     22  O   UNL     1       1.082  10.173  21.606  0.00  0.00    +0.000 OA
ATOM     23  N   UNL     1       0.672  11.839  20.101  0.00  0.00    +0.000 N 
ATOM     24  C   UNL     1       0.995  12.874  21.108  0.00  0.00    +0.000 C 
ATOM     25  C   UNL     1       1.611  14.137  20.460  0.00  0.00    +0.000 C 
ATOM     26  N   UNL     1       0.701  14.578  19.396  0.00  0.00    +0.000 N 
ATOM     27  C   UNL     1       0.643  15.923  19.078  0.00  0.00    +0.000 A 
ATOM     28  C   UNL     1      -0.522  16.417  18.477  0.00  0.00    +0.000 A 
ATOM     29  C   UNL     1      -0.664  17.779  18.245  0.00  0.00    +0.000 A 
ATOM     30  C   UNL     1       0.366  18.631  18.604  0.00  0.00    +0.000 A 
ATOM     31  C   UNL     1       1.492  18.074  19.184  0.00  0.00    +0.000 A 
ATOM     32  N   UNL     1       1.640  16.752  19.441  0.00  0.00    +0.000 NA
ATOM     33  C   UNL     1       0.513  13.584  18.332  0.00  0.00    +0.000 C 
ATOM     34  C   UNL     1      -0.121  12.330  18.959  0.00  0.00    +0.000 C 
ENDBRANCH  20  21
ENDBRANCH  19  20
ENDBRANCH   2  19
TORSDOF 4
ENDMDL
MODEL 6
REMARK VINA RESULT:      -7.7      3.198      4.069
REMARK  Name = 
REMARK  5 active torsions:
REMARK  status: ('A' for Active; 'I' for Inactive)
REMARK    1  A    between atoms: C_1  and  C_2
REMARK    2  A    between atoms: C_6  and  N_7
REMARK    3  A    between atoms: C_8  and  S_9
REMARK    4  A    between atoms: S_9  and  C_10
REMARK    5  A    between atoms: C_10  and  C_11
REMARK                            x       y       z     vdW  Elec       q    Type
REMARK                         _______ _______ _______ _____ _____    ______ ____
ROOT
ATOM      1  N   UNL     1       2.436   6.896  18.920  0.00  0.00    +0.000 N 
ATOM      2  C   UNL     1       1.852   8.151  19.049  0.00  0.00    +0.000 A 
ATOM      3  N   UNL     1       2.423   9.010  18.231  0.00  0.00    +0.000 NA
ATOM      4  N   UNL     1       3.395   8.336  17.532  0.00  0.00    +0.000 NA
ATOM      5  C   UNL     1       3.441   7.085  17.955  0.00  0.00    +0.000 A 
ATOM      6  N   UNL     1       4.281   6.097  17.519  0.00  0.00    +0.000 N 
ATOM      7  C   UNL     1       4.921   6.222  16.200  0.00  0.00    +0.000 C 
ATOM      8  C   UNL     1       5.143   4.790  15.658  0.00  0.00    +0.000 C 
ATOM      9  O   UNL     1       5.967   4.017  16.551  0.00  0.00    +0.000 OA
ATOM     10  C   UNL     1       5.368   3.944  17.858  0.00  0.00    +0.000 C 
ATOM     11  C   UNL     1       5.147   5.348  18.453  0.00  0.00    +0.000 C 
ENDROOT
BRANCH   1  17
ATOM     12  C   UNL     1       0.708   2.242  18.648  0.00  0.00    +0.000 C 
ATOM     13  C   UNL     1       1.276   3.376  19.451  0.00  0.00    +0.000 A 
ATOM     14  C   UNL     1       1.664   3.180  20.779  0.00  0.00    +0.000 A 
ATOM     15  C   UNL     1       2.230   4.226  21.511  0.00  0.00    +0.000 A 
ATOM     16  C   UNL     1       2.454   5.465  20.914  0.00  0.00    +0.000 A 
ATOM     17  C   UNL     1       2.090   5.676  19.584  0.00  0.00    +0.000 A 
ATOM     18  C   UNL     1       1.465   4.638  18.870  0.00  0.00    +0.000 A 
ENDBRANCH   1  17
BRANCH   2  19
ATOM     19  S   UNL     1       0.416   8.474  19.979  0.00  0.00    +0.000 S 
BRANCH  19  20
ATOM     20  C   UNL     1       0.146  10.253  19.724  0.00  0.00    +0.000 C 
BRANCH  20  21
ATOM     21  C   UNL     1      -0.927  10.482  18.651  0.00  0.00    +0.000 C 
ATOM     22  O   UNL     1      -0.873   9.947  17.541  0.00  0.00    +0.000 OA
ATOM     23  N   UNL     1      -1.998  11.302  18.993  0.00  0.00    +0.000 N 
ATOM     24  C   UNL     1      -3.123  11.442  18.042  0.00  0.00    +0.000 C 
ATOM     25  C   UNL     1      -4.476  11.624  18.772  0.00  0.00    +0.000 C 
ATOM     26  N   UNL     1      -4.324  12.739  19.714  0.00  0.00    +0.000 N 
ATOM     27  C   UNL     1      -5.432  13.505  20.031  0.00  0.00    +0.000 A 
ATOM     28  C   UNL     1      -5.231  14.816  20.482  0.00  0.00    +0.000 A 
ATOM     29  C   UNL     1      -6.318  15.652  20.704  0.00  0.00    +0.000 A 
ATOM     30  C   UNL     1      -7.594  15.164  20.485  0.00  0.00    +0.000 A 
ATOM     31  C   UNL     1      -7.719  13.857  20.050  0.00  0.00    +0.000 A 
ATOM     32  N   UNL     1      -6.673  13.032  19.804  0.00  0.00    +0.000 NA
ATOM     33  C   UNL     1      -3.298  12.511  20.739  0.00  0.00    +0.000 C 
ATOM     34  C   UNL     1      -1.943  12.351  20.027  0.00  0.00    +0.000 C 
ENDBRANCH  20  21
ENDBRANCH  19  20
ENDBRANCH   2  19
TORSDOF 4
ENDMDL
MODEL 7
REMARK VINA RESULT:      -7.6      3.168      3.834
REMARK  Name = 
REMARK  5 active torsions:
REMARK  status: ('A' for Active; 'I' for Inactive)
REMARK    1  A    between atoms: C_1  and  C_2
REMARK    2  A    between atoms: C_6  and  N_7
REMARK    3  A    between atoms: C_8  and  S_9
REMARK    4  A    between atoms: S_9  and  C_10
REMARK    5  A    between atoms: C_10  and  C_11
REMARK                            x       y       z     vdW  Elec       q    Type
REMARK                         _______ _______ _______ _____ _____    ______ ____
ROOT
ATOM      1  N   UNL     1       2.906   6.386  18.278  0.00  0.00    +0.000 N 
ATOM      2  C   UNL     1       2.478   7.658  18.639  0.00  0.00    +0.000 A 
ATOM      3  N   UNL     1       3.159   8.575  17.983  0.00  0.00    +0.000 NA
ATOM      4  N   UNL     1       4.049   7.925  17.163  0.00  0.00    +0.000 NA
ATOM      5  C   UNL     1       3.937   6.622  17.351  0.00  0.00    +0.000 A 
ATOM      6  N   UNL     1       4.654   5.634  16.735  0.00  0.00    +0.000 N 
ATOM      7  C   UNL     1       5.319   5.916  15.452  0.00  0.00    +0.000 C 
ATOM      8  C   UNL     1       5.370   4.589  14.658  0.00  0.00    +0.000 C 
ATOM      9  O   UNL     1       6.084   3.573  15.387  0.00  0.00    +0.000 OA
ATOM     10  C   UNL     1       5.465   3.338  16.667  0.00  0.00    +0.000 C 
ATOM     11  C   UNL     1       5.411   4.628  17.508  0.00  0.00    +0.000 C 
ENDROOT
BRANCH   1  17
ATOM     12  C   UNL     1       2.150   3.154  21.980  0.00  0.00    +0.000 C 
ATOM     13  C   UNL     1       2.000   3.541  20.538  0.00  0.00    +0.000 A 
ATOM     14  C   UNL     1       1.201   2.781  19.680  0.00  0.00    +0.000 A 
ATOM     15  C   UNL     1       1.030   3.167  18.349  0.00  0.00    +0.000 A 
ATOM     16  C   UNL     1       1.619   4.335  17.870  0.00  0.00    +0.000 A 
ATOM     17  C   UNL     1       2.406   5.117  18.715  0.00  0.00    +0.000 A 
ATOM     18  C   UNL     1       2.625   4.693  20.039  0.00  0.00    +0.000 A 
ENDBRANCH   1  17
BRANCH   2  19
ATOM     19  S   UNL     1       1.083   7.981  19.629  0.00  0.00    +0.000 S 
BRANCH  19  20
ATOM     20  C   UNL     1       1.358   9.686  20.194  0.00  0.00    +0.000 C 
BRANCH  20  21
ATOM     21  C   UNL     1       0.747   9.892  21.588  0.00  0.00    +0.000 C 
ATOM     22  O   UNL     1       1.258   9.423  22.607  0.00  0.00    +0.000 OA
ATOM     23  N   UNL     1      -0.405  10.669  21.663  0.00  0.00    +0.000 N 
ATOM     24  C   UNL     1      -0.952  11.008  22.996  0.00  0.00    +0.000 C 
ATOM     25  C   UNL     1      -1.610  12.409  23.009  0.00  0.00    +0.000 C 
ATOM     26  N   UNL     1      -2.587  12.449  21.914  0.00  0.00    +0.000 N 
ATOM     27  C   UNL     1      -3.702  13.259  22.040  0.00  0.00    +0.000 A 
ATOM     28  C   UNL     1      -4.847  12.939  21.299  0.00  0.00    +0.000 A 
ATOM     29  C   UNL     1      -6.020  13.659  21.481  0.00  0.00    +0.000 A 
ATOM     30  C   UNL     1      -6.033  14.700  22.393  0.00  0.00    +0.000 A 
ATOM     31  C   UNL     1      -4.864  14.967  23.084  0.00  0.00    +0.000 A 
ATOM     32  N   UNL     1      -3.716  14.262  22.939  0.00  0.00    +0.000 NA
ATOM     33  C   UNL     1      -1.994  12.254  20.586  0.00  0.00    +0.000 C 
ATOM     34  C   UNL     1      -1.355  10.855  20.552  0.00  0.00    +0.000 C 
ENDBRANCH  20  21
ENDBRANCH  19  20
ENDBRANCH   2  19
TORSDOF 4
ENDMDL
MODEL 8
REMARK VINA RESULT:      -7.6      2.895      3.888
REMARK  Name = 
REMARK  5 active torsions:
REMARK  status: ('A' for Active; 'I' for Inactive)
REMARK    1  A    between atoms: C_1  and  C_2
REMARK    2  A    between atoms: C_6  and  N_7
REMARK    3  A    between atoms: C_8  and  S_9
REMARK    4  A    between atoms: S_9  and  C_10
REMARK    5  A    between atoms: C_10  and  C_11
REMARK                            x       y       z     vdW  Elec       q    Type
REMARK                         _______ _______ _______ _____ _____    ______ ____
ROOT
ATOM      1  N   UNL     1       2.767   6.426  18.446  0.00  0.00    +0.000 N 
ATOM      2  C   UNL     1       2.260   7.658  18.844  0.00  0.00    +0.000 A 
ATOM      3  N   UNL     1       2.897   8.636  18.232  0.00  0.00    +0.000 NA
ATOM      4  N   UNL     1       3.835   8.069  17.406  0.00  0.00    +0.000 NA
ATOM      5  C   UNL     1       3.796   6.755  17.546  0.00  0.00    +0.000 A 
ATOM      6  N   UNL     1       4.580   5.833  16.908  0.00  0.00    +0.000 N 
ATOM      7  C   UNL     1       5.247   6.200  15.648  0.00  0.00    +0.000 C 
ATOM      8  C   UNL     1       5.388   4.908  14.808  0.00  0.00    +0.000 C 
ATOM      9  O   UNL     1       6.149   3.909  15.514  0.00  0.00    +0.000 OA
ATOM     10  C   UNL     1       5.525   3.592  16.773  0.00  0.00    +0.000 C 
ATOM     11  C   UNL     1       5.383   4.846  17.659  0.00  0.00    +0.000 C 
ENDROOT
BRANCH   1  17
ATOM     12  C   UNL     1       2.110   3.038  22.024  0.00  0.00    +0.000 C 
ATOM     13  C   UNL     1       1.977   3.461  20.590  0.00  0.00    +0.000 A 
ATOM     14  C   UNL     1       1.252   2.681  19.685  0.00  0.00    +0.000 A 
ATOM     15  C   UNL     1       1.095   3.097  18.361  0.00  0.00    +0.000 A 
ATOM     16  C   UNL     1       1.623   4.315  17.937  0.00  0.00    +0.000 A 
ATOM     17  C   UNL     1       2.335   5.116  18.829  0.00  0.00    +0.000 A 
ATOM     18  C   UNL     1       2.542   4.664  20.145  0.00  0.00    +0.000 A 
ENDBRANCH   1  17
BRANCH   2  19
ATOM     19  S   UNL     1       0.833   7.864  19.819  0.00  0.00    +0.000 S 
BRANCH  19  20
ATOM     20  C   UNL     1       1.031   9.537  20.501  0.00  0.00    +0.000 C 
BRANCH  20  21
ATOM     21  C   UNL     1       0.103  10.522  19.776  0.00  0.00    +0.000 C 
ATOM     22  O   UNL     1      -0.020  10.530  18.549  0.00  0.00    +0.000 OA
ATOM     23  N   UNL     1      -0.631  11.399  20.569  0.00  0.00    +0.000 N 
ATOM     24  C   UNL     1      -1.638  12.272  19.927  0.00  0.00    +0.000 C 
ATOM     25  C   UNL     1      -2.854  12.525  20.850  0.00  0.00    +0.000 C 
ATOM     26  N   UNL     1      -2.341  13.019  22.133  0.00  0.00    +0.000 N 
ATOM     27  C   UNL     1      -3.128  13.871  22.887  0.00  0.00    +0.000 A 
ATOM     28  C   UNL     1      -2.500  14.728  23.800  0.00  0.00    +0.000 A 
ATOM     29  C   UNL     1      -3.243  15.675  24.494  0.00  0.00    +0.000 A 
ATOM     30  C   UNL     1      -4.608  15.746  24.277  0.00  0.00    +0.000 A 
ATOM     31  C   UNL     1      -5.163  14.862  23.369  0.00  0.00    +0.000 A 
ATOM     32  N   UNL     1      -4.454  13.948  22.664  0.00  0.00    +0.000 NA
ATOM     33  C   UNL     1      -1.457  12.070  22.820  0.00  0.00    +0.000 C 
ATOM     34  C   UNL     1      -0.231  11.826  21.922  0.00  0.00    +0.000 C 
ENDBRANCH  20  21
ENDBRANCH  19  20
ENDBRANCH   2  19
TORSDOF 4
ENDMDL
MODEL 9
REMARK VINA RESULT:      -7.6      1.430      2.036
REMARK  Name = 
REMARK  5 active torsions:
REMARK  status: ('A' for Active; 'I' for Inactive)
REMARK    1  A    between atoms: C_1  and  C_2
REMARK    2  A    between atoms: C_6  and  N_7
REMARK    3  A    between atoms: C_8  and  S_9
REMARK    4  A    between atoms: S_9  and  C_10
REMARK    5  A    between atoms: C_10  and  C_11
REMARK                            x       y       z     vdW  Elec       q    Type
REMARK                         _______ _______ _______ _____ _____    ______ ____
ROOT
ATOM      1  N   UNL     1       2.774   6.333  18.504  0.00  0.00    +0.000 N 
ATOM      2  C   UNL     1       2.274   7.556  18.938  0.00  0.00    +0.000 A 
ATOM      3  N   UNL     1       2.908   8.547  18.345  0.00  0.00    +0.000 NA
ATOM      4  N   UNL     1       3.836   7.999  17.495  0.00  0.00    +0.000 NA
ATOM      5  C   UNL     1       3.795   6.682  17.602  0.00  0.00    +0.000 A 
ATOM      6  N   UNL     1       4.570   5.775  16.933  0.00  0.00    +0.000 N 
ATOM      7  C   UNL     1       5.224   6.171  15.675  0.00  0.00    +0.000 C 
ATOM      8  C   UNL     1       5.353   4.901  14.802  0.00  0.00    +0.000 C 
ATOM      9  O   UNL     1       6.118   3.882  15.474  0.00  0.00    +0.000 OA
ATOM     10  C   UNL     1       5.506   3.535  16.731  0.00  0.00    +0.000 C 
ATOM     11  C   UNL     1       5.377   4.767  17.650  0.00  0.00    +0.000 C 
ENDROOT
BRANCH   1  17
ATOM     12  C   UNL     1       2.122   2.866  22.006  0.00  0.00    +0.000 C 
ATOM     13  C   UNL     1       1.986   3.320  20.582  0.00  0.00    +0.000 A 
ATOM     14  C   UNL     1       1.260   2.561  19.661  0.00  0.00    +0.000 A 
ATOM     15  C   UNL     1       1.101   3.007  18.348  0.00  0.00    +0.000 A 
ATOM     16  C   UNL     1       1.629   4.234  17.950  0.00  0.00    +0.000 A 
ATOM     17  C   UNL     1       2.343   5.015  18.858  0.00  0.00    +0.000 A 
ATOM     18  C   UNL     1       2.551   4.533  20.163  0.00  0.00    +0.000 A 
ENDBRANCH   1  17
BRANCH   2  19
ATOM     19  S   UNL     1       0.859   7.741  19.933  0.00  0.00    +0.000 S 
BRANCH  19  20
ATOM     20  C   UNL     1       1.454   8.749  21.323  0.00  0.00    +0.000 C 
BRANCH  20  21
ATOM     21  C   UNL     1       0.313   9.608  21.887  0.00  0.00    +0.000 C 
ATOM     22  O   UNL     1      -0.465   9.188  22.748  0.00  0.00    +0.000 OA
ATOM     23  N   UNL     1       0.207  10.910  21.409  0.00  0.00    +0.000 N 
ATOM     24  C   UNL     1      -0.789  11.817  22.021  0.00  0.00    +0.000 C 
ATOM     25  C   UNL     1      -0.295  13.284  22.042  0.00  0.00    +0.000 C 
ATOM     26  N   UNL     1       0.101  13.639  20.674  0.00  0.00    +0.000 N 
ATOM     27  C   UNL     1      -0.007  14.956  20.265  0.00  0.00    +0.000 A 
ATOM     28  C   UNL     1      -0.135  15.221  18.896  0.00  0.00    +0.000 A 
ATOM     29  C   UNL     1      -0.358  16.519  18.454  0.00  0.00    +0.000 A 
ATOM     30  C   UNL     1      -0.437  17.539  19.385  0.00  0.00    +0.000 A 
ATOM     31  C   UNL     1      -0.293  17.207  20.720  0.00  0.00    +0.000 A 
ATOM     32  N   UNL     1      -0.099  15.945  21.174  0.00  0.00    +0.000 NA
ATOM     33  C   UNL     1       1.194  12.814  20.144  0.00  0.00    +0.000 C 
ATOM     34  C   UNL     1       0.708  11.355  20.096  0.00  0.00    +0.000 C 
ENDBRANCH  20  21
ENDBRANCH  19  20
ENDBRANCH   2  19
TORSDOF 4
ENDMDL
