MODEL 1
REMARK VINA RESULT:      -8.5      0.000      0.000
REMARK  Name = 
REMARK  6 active torsions:
REMARK  status: ('A' for Active; 'I' for Inactive)
REMARK    1  A    between atoms: C_1  and  C_2
REMARK    2  A    between atoms: C_4  and  C_5
REMARK    3  A    between atoms: C_5  and  C_6
REMARK    4  A    between atoms: C_6  and  N_7
REMARK    5  A    between atoms: C_8  and  C_10
REMARK    6  A    between atoms: C_13  and  N_14
REMARK                            x       y       z     vdW  Elec       q    Type
REMARK                         _______ _______ _______ _____ _____    ______ ____
ROOT
ATOM      1  C   UNL     1       3.130   5.486  18.823  0.00  0.00    +0.000 A 
ATOM      2  C   UNL     1       2.434   5.238  20.008  0.00  0.00    +0.000 A 
ATOM      3  C   UNL     1       1.716   6.269  20.620  0.00  0.00    +0.000 A 
ATOM      4  C   UNL     1       1.712   7.577  20.112  0.00  0.00    +0.000 A 
ATOM      5  C   UNL     1       2.399   7.821  18.924  0.00  0.00    +0.000 A 
ATOM      6  C   UNL     1       3.106   6.780  18.282  0.00  0.00    +0.000 A 
ENDROOT
BRANCH   4   7
ATOM      7  N   UNL     1       1.054   8.654  20.799  0.00  0.00    +0.000 N 
ATOM      8  C   UNL     1       0.500   9.705  20.105  0.00  0.00    +0.000 C 
ATOM      9  O   UNL     1       0.459   9.755  18.867  0.00  0.00    +0.000 OA
ATOM     10  N   UNL     1      -0.152  10.683  20.796  0.00  0.00    +0.000 N 
ATOM     11  C   UNL     1      -0.998  11.550  19.991  0.00  0.00    +0.000 C 
ATOM     12  C   UNL     1      -1.869  12.188  21.006  0.00  0.00    +0.000 A 
ATOM     13  C   UNL     1      -3.173  12.621  20.894  0.00  0.00    +0.000 A 
ATOM     14  C   UNL     1      -3.731  13.266  21.991  0.00  0.00    +0.000 A 
ATOM     15  C   UNL     1      -2.940  13.564  23.114  0.00  0.00    +0.000 A 
ATOM     16  C   UNL     1      -1.655  13.021  23.248  0.00  0.00    +0.000 A 
ATOM     17  C   UNL     1      -1.196  12.213  22.227  0.00  0.00    +0.000 A 
ATOM     18  C   UNL     1      -0.200  11.071  22.217  0.00  0.00    +0.000 C 
ATOM     19  H   UNL     1       0.674   8.464  21.702  0.00  0.00    +0.000 HD
ENDBRANCH   4   7
BRANCH   1  21
ATOM     20  N   UNL     1       4.330   4.657  16.848  0.00  0.00    +0.000 N 
ATOM     21  C   UNL     1       3.901   4.394  18.139  0.00  0.00    +0.000 C 
ATOM     22  O   UNL     1       4.138   3.349  18.736  0.00  0.00    +0.000 OA
ATOM     23  H   UNL     1       4.178   5.567  16.423  0.00  0.00    +0.000 HD
BRANCH  20  24
ATOM     24  C   UNL     1       5.125   3.733  16.066  0.00  0.00    +0.000 C 
BRANCH  24  25
ATOM     25  C   UNL     1       6.552   4.211  15.789  0.00  0.00    +0.000 C 
BRANCH  25  29
ATOM     26  C   UNL     1       7.850   8.610  17.698  0.00  0.00    +0.000 C 
ATOM     27  C   UNL     1       7.642   7.138  17.623  0.00  0.00    +0.000 A 
ATOM     28  N   UNL     1       7.184   6.496  16.568  0.00  0.00    +0.000 NA
ATOM     29  C   UNL     1       7.097   5.135  16.836  0.00  0.00    +0.000 A 
ATOM     30  C   UNL     1       7.503   4.775  18.107  0.00  0.00    +0.000 A 
ATOM     31  S   UNL     1       8.008   6.155  18.984  0.00  0.00    +0.000 S 
ENDBRANCH  25  29
ENDBRANCH  24  25
ENDBRANCH  20  24
ENDBRANCH   1  21
TORSDOF 5
ENDMDL
MODEL 2
REMARK VINA RESULT:      -8.5      3.477      4.046
REMARK  Name = 
REMARK  6 active torsions:
REMARK  status: ('A' for Active; 'I' for Inactive)
REMARK    1  A    between atoms: C_1  and  C_2
REMARK    2  A    between atoms: C_4  and  C_5
REMARK    3  A    between atoms: C_5  and  C_6
REMARK    4  A    between atoms: C_6  and  N_7
REMARK    5  A    between atoms: C_8  and  C_10
REMARK    6  A    between atoms: C_13  and  N_14
REMARK                            x       y       z     vdW  Elec       q    Type
REMARK                         _______ _______ _______ _____ _____    ______ ____
ROOT
ATOM      1  C   UNL     1       2.179   7.782  18.895  0.00  0.00    +0.000 A 
ATOM      2  C   UNL     1       1.516   8.342  19.990  0.00  0.00    +0.000 A 
ATOM      3  C   UNL     1       0.970   9.625  19.889  0.00  0.00    +0.000 A 
ATOM      4  C   UNL     1       1.111  10.404  18.731  0.00  0.00    +0.000 A 
ATOM      5  C   UNL     1       1.763   9.841  17.636  0.00  0.00    +0.000 A 
ATOM      6  C   UNL     1       2.295   8.535  17.717  0.00  0.00    +0.000 A 
ENDROOT
BRANCH   4   7
ATOM      7  N   UNL     1       0.633  11.758  18.667  0.00  0.00    +0.000 N 
ATOM      8  C   UNL     1       1.427  12.811  19.059  0.00  0.00    +0.000 C 
ATOM      9  O   UNL     1       2.608  12.676  19.410  0.00  0.00    +0.000 OA
ATOM     10  N   UNL     1       0.947  14.082  18.940  0.00  0.00    +0.000 N 
ATOM     11  C   UNL     1       1.948  15.132  19.034  0.00  0.00    +0.000 C 
ATOM     12  C   UNL     1       1.246  16.303  18.458  0.00  0.00    +0.000 A 
ATOM     13  C   UNL     1       1.757  17.372  17.752  0.00  0.00    +0.000 A 
ATOM     14  C   UNL     1       0.876  18.385  17.395  0.00  0.00    +0.000 A 
ATOM     15  C   UNL     1      -0.454  18.359  17.850  0.00  0.00    +0.000 A 
ATOM     16  C   UNL     1      -0.975  17.215  18.469  0.00  0.00    +0.000 A 
ATOM     17  C   UNL     1      -0.127  16.139  18.636  0.00  0.00    +0.000 A 
ATOM     18  C   UNL     1      -0.396  14.650  18.726  0.00  0.00    +0.000 C 
ATOM     19  H   UNL     1      -0.090  11.964  18.010  0.00  0.00    +0.000 HD
ENDBRANCH   4   7
BRANCH   1  21
ATOM     20  N   UNL     1       2.777   5.670  17.798  0.00  0.00    +0.000 N 
ATOM     21  C   UNL     1       2.766   6.403  18.973  0.00  0.00    +0.000 C 
ATOM     22  O   UNL     1       3.224   5.994  20.036  0.00  0.00    +0.000 OA
ATOM     23  H   UNL     1       2.458   6.078  16.925  0.00  0.00    +0.000 HD
BRANCH  20  24
ATOM     24  C   UNL     1       3.350   4.343  17.688  0.00  0.00    +0.000 C 
BRANCH  24  25
ATOM     25  C   UNL     1       4.652   4.287  16.887  0.00  0.00    +0.000 C 
BRANCH  25  29
ATOM     26  C   UNL     1       7.743   8.121  17.537  0.00  0.00    +0.000 C 
ATOM     27  C   UNL     1       7.125   6.785  17.759  0.00  0.00    +0.000 A 
ATOM     28  N   UNL     1       6.139   6.285  17.043  0.00  0.00    +0.000 NA
ATOM     29  C   UNL     1       5.789   5.028  17.523  0.00  0.00    +0.000 A 
ATOM     30  C   UNL     1       6.535   4.600  18.605  0.00  0.00    +0.000 A 
ATOM     31  S   UNL     1       7.698   5.781  19.030  0.00  0.00    +0.000 S 
ENDBRANCH  25  29
ENDBRANCH  24  25
ENDBRANCH  20  24
ENDBRANCH   1  21
TORSDOF 5
ENDMDL
MODEL 3
REMARK VINA RESULT:      -8.5      2.731      4.165
REMARK  Name = 
REMARK  6 active torsions:
REMARK  status: ('A' for Active; 'I' for Inactive)
REMARK    1  A    between atoms: C_1  and  C_2
REMARK    2  A    between atoms: C_4  and  C_5
REMARK    3  A    between atoms: C_5  and  C_6
REMARK    4  A    between atoms: C_6  and  N_7
REMARK    5  A    between atoms: C_8  and  C_10
REMARK    6  A    between atoms: C_13  and  N_14
REMARK                            x       y       z     vdW  Elec       q    Type
REMARK                         _______ _______ _______ _____ _____    ______ ____
ROOT
ATOM      1  C   UNL     1       2.917   7.584  18.389  0.00  0.00    +0.000 A 
ATOM      2  C   UNL     1       2.593   8.678  17.582  0.00  0.00    +0.000 A 
ATOM      3  C   UNL     1       1.650   9.610  18.024  0.00  0.00    +0.000 A 
ATOM      4  C   UNL     1       0.967   9.459  19.241  0.00  0.00    +0.000 A 
ATOM      5  C   UNL     1       1.300   8.373  20.049  0.00  0.00    +0.000 A 
ATOM      6  C   UNL     1       2.270   7.439  19.625  0.00  0.00    +0.000 A 
ENDROOT
BRANCH   4   7
ATOM      7  N   UNL     1      -0.070  10.367  19.645  0.00  0.00    +0.000 N 
ATOM      8  C   UNL     1      -1.110  10.680  18.799  0.00  0.00    +0.000 C 
ATOM      9  O   UNL     1      -1.263  10.152  17.688  0.00  0.00    +0.000 OA
ATOM     10  N   UNL     1      -2.094  11.513  19.241  0.00  0.00    +0.000 N 
ATOM     11  C   UNL     1      -3.310  11.513  18.443  0.00  0.00    +0.000 C 
ATOM     12  C   UNL     1      -4.300  12.131  19.356  0.00  0.00    +0.000 A 
ATOM     13  C   UNL     1      -5.657  11.909  19.458  0.00  0.00    +0.000 A 
ATOM     14  C   UNL     1      -6.369  12.694  20.355  0.00  0.00    +0.000 A 
ATOM     15  C   UNL     1      -5.733  13.748  21.034  0.00  0.00    +0.000 A 
ATOM     16  C   UNL     1      -4.339  13.883  20.997  0.00  0.00    +0.000 A 
ATOM     17  C   UNL     1      -3.630  12.963  20.252  0.00  0.00    +0.000 A 
ATOM     18  C   UNL     1      -2.213  12.439  20.382  0.00  0.00    +0.000 C 
ATOM     19  H   UNL     1      -0.245  10.467  20.623  0.00  0.00    +0.000 HD
ENDBRANCH   4   7
BRANCH   1  21
ATOM     20  N   UNL     1       4.374   5.677  18.903  0.00  0.00    +0.000 N 
ATOM     21  C   UNL     1       3.934   6.573  17.943  0.00  0.00    +0.000 C 
ATOM     22  O   UNL     1       4.308   6.559  16.775  0.00  0.00    +0.000 OA
ATOM     23  H   UNL     1       3.978   5.676  19.838  0.00  0.00    +0.000 HD
BRANCH  20  24
ATOM     24  C   UNL     1       5.315   4.609  18.629  0.00  0.00    +0.000 C 
BRANCH  24  25
ATOM     25  C   UNL     1       4.687   3.370  17.988  0.00  0.00    +0.000 C 
BRANCH  25  29
ATOM     26  C   UNL     1       1.367   2.698  21.621  0.00  0.00    +0.000 C 
ATOM     27  C   UNL     1       1.926   2.730  20.242  0.00  0.00    +0.000 A 
ATOM     28  N   UNL     1       3.167   3.051  19.941  0.00  0.00    +0.000 NA
ATOM     29  C   UNL     1       3.355   2.996  18.565  0.00  0.00    +0.000 A 
ATOM     30  C   UNL     1       2.234   2.623  17.848  0.00  0.00    +0.000 A 
ATOM     31  S   UNL     1       0.921   2.331  18.906  0.00  0.00    +0.000 S 
ENDBRANCH  25  29
ENDBRANCH  24  25
ENDBRANCH  20  24
ENDBRANCH   1  21
TORSDOF 5
ENDMDL
MODEL 4
REMARK VINA RESULT:      -8.4      3.721      4.757
REMARK  Name = 
REMARK  6 active torsions:
REMARK  status: ('A' for Active; 'I' for Inactive)
REMARK    1  A    between atoms: C_1  and  C_2
REMARK    2  A    between atoms: C_4  and  C_5
REMARK    3  A    between atoms: C_5  and  C_6
REMARK    4  A    between atoms: C_6  and  N_7
REMARK    5  A    between atoms: C_8  and  C_10
REMARK    6  A    between atoms: C_13  and  N_14
REMARK                            x       y       z     vdW  Elec       q    Type
REMARK                         _______ _______ _______ _____ _____    ______ ____
ROOT
ATOM      1  C   UNL     1       1.693   8.005  19.890  0.00  0.00    +0.000 A 
ATOM      2  C   UNL     1       1.914   8.574  18.633  0.00  0.00    +0.000 A 
ATOM      3  C   UNL     1       1.577   9.912  18.409  0.00  0.00    +0.000 A 
ATOM      4  C   UNL     1       0.969  10.702  19.395  0.00  0.00    +0.000 A 
ATOM      5  C   UNL     1       0.759  10.136  20.652  0.00  0.00    +0.000 A 
ATOM      6  C   UNL     1       1.119   8.793  20.898  0.00  0.00    +0.000 A 
ENDROOT
BRANCH   4   7
ATOM      7  N   UNL     1       0.537  12.046  19.129  0.00  0.00    +0.000 N 
ATOM      8  C   UNL     1       1.351  13.122  19.399  0.00  0.00    +0.000 C 
ATOM      9  O   UNL     1       2.516  13.005  19.805  0.00  0.00    +0.000 OA
ATOM     10  N   UNL     1       0.915  14.376  19.090  0.00  0.00    +0.000 N 
ATOM     11  C   UNL     1       1.945  15.402  19.072  0.00  0.00    +0.000 C 
ATOM     12  C   UNL     1       1.298  16.500  18.317  0.00  0.00    +0.000 A 
ATOM     13  C   UNL     1       1.864  17.447  17.489  0.00  0.00    +0.000 A 
ATOM     14  C   UNL     1       1.026  18.424  16.966  0.00  0.00    +0.000 A 
ATOM     15  C   UNL     1      -0.317  18.497  17.374  0.00  0.00    +0.000 A 
ATOM     16  C   UNL     1      -0.893  17.465  18.127  0.00  0.00    +0.000 A 
ATOM     17  C   UNL     1      -0.084  16.399  18.469  0.00  0.00    +0.000 A 
ATOM     18  C   UNL     1      -0.402  14.945  18.754  0.00  0.00    +0.000 C 
ATOM     19  H   UNL     1      -0.160  12.178  18.425  0.00  0.00    +0.000 HD
ENDBRANCH   4   7
BRANCH   1  21
ATOM     20  N   UNL     1       3.243   6.122  19.610  0.00  0.00    +0.000 N 
ATOM     21  C   UNL     1       2.055   6.573  20.161  0.00  0.00    +0.000 C 
ATOM     22  O   UNL     1       1.321   5.881  20.859  0.00  0.00    +0.000 OA
ATOM     23  H   UNL     1       3.857   6.753  19.105  0.00  0.00    +0.000 HD
BRANCH  20  24
ATOM     24  C   UNL     1       3.763   4.785  19.815  0.00  0.00    +0.000 C 
BRANCH  24  25
ATOM     25  C   UNL     1       3.767   3.915  18.557  0.00  0.00    +0.000 C 
BRANCH  25  29
ATOM     26  C   UNL     1       6.200   4.140  14.231  0.00  0.00    +0.000 C 
ATOM     27  C   UNL     1       5.972   4.221  15.700  0.00  0.00    +0.000 A 
ATOM     28  N   UNL     1       4.835   3.938  16.301  0.00  0.00    +0.000 NA
ATOM     29  C   UNL     1       4.958   4.131  17.672  0.00  0.00    +0.000 A 
ATOM     30  C   UNL     1       6.208   4.557  18.081  0.00  0.00    +0.000 A 
ATOM     31  S   UNL     1       7.252   4.715  16.734  0.00  0.00    +0.000 S 
ENDBRANCH  25  29
ENDBRANCH  24  25
ENDBRANCH  20  24
ENDBRANCH   1  21
TORSDOF 5
ENDMDL
MODEL 5
REMARK VINA RESULT:      -8.3      3.569      4.367
REMARK  Name = 
REMARK  6 active torsions:
REMARK  status: ('A' for Active; 'I' for Inactive)
REMARK    1  A    between atoms: C_1  and  C_2
REMARK    2  A    between atoms: C_4  and  C_5
REMARK    3  A    between atoms: C_5  and  C_6
REMARK    4  A    between atoms: C_6  and  N_7
REMARK    5  A    between atoms: C_8  and  C_10
REMARK    6  A    between atoms: C_13  and  N_14
REMARK                            x       y       z     vdW  Elec       q    Type
REMARK                         _______ _______ _______ _____ _____    ______ ____
ROOT
ATOM      1  C   UNL     1       1.947   7.636  19.310  0.00  0.00    +0.000 A 
ATOM      2  C   UNL     1       2.085   8.255  18.065  0.00  0.00    +0.000 A 
ATOM      3  C   UNL     1       1.727   9.598  17.914  0.00  0.00    +0.000 A 
ATOM      4  C   UNL     1       1.177  10.344  18.967  0.00  0.00    +0.000 A 
ATOM      5  C   UNL     1       1.049   9.729  20.211  0.00  0.00    +0.000 A 
ATOM      6  C   UNL     1       1.432   8.380  20.382  0.00  0.00    +0.000 A 
ENDROOT
BRANCH   4   7
ATOM      7  N   UNL     1       0.720  11.694  18.780  0.00  0.00    +0.000 N 
ATOM      8  C   UNL     1       1.464  12.763  19.224  0.00  0.00    +0.000 C 
ATOM      9  O   UNL     1       2.589  12.644  19.730  0.00  0.00    +0.000 OA
ATOM     10  N   UNL     1       1.012  14.027  18.987  0.00  0.00    +0.000 N 
ATOM     11  C   UNL     1       1.999  15.080  19.162  0.00  0.00    +0.000 C 
ATOM     12  C   UNL     1       1.385  16.225  18.448  0.00  0.00    +0.000 A 
ATOM     13  C   UNL     1       1.990  17.260  17.767  0.00  0.00    +0.000 A 
ATOM     14  C   UNL     1       1.169  18.256  17.254  0.00  0.00    +0.000 A 
ATOM     15  C   UNL     1      -0.209  18.252  17.534  0.00  0.00    +0.000 A 
ATOM     16  C   UNL     1      -0.813  17.138  18.131  0.00  0.00    +0.000 A 
ATOM     17  C   UNL     1      -0.001  16.070  18.454  0.00  0.00    +0.000 A 
ATOM     18  C   UNL     1      -0.289  14.587  18.576  0.00  0.00    +0.000 C 
ATOM     19  H   UNL     1       0.089  11.870  18.027  0.00  0.00    +0.000 HD
ENDBRANCH   4   7
BRANCH   1  21
ATOM     20  N   UNL     1       2.558   5.461  18.350  0.00  0.00    +0.000 N 
ATOM     21  C   UNL     1       2.333   6.198  19.502  0.00  0.00    +0.000 C 
ATOM     22  O   UNL     1       2.456   5.746  20.636  0.00  0.00    +0.000 OA
ATOM     23  H   UNL     1       2.521   5.899  17.435  0.00  0.00    +0.000 HD
BRANCH  20  24
ATOM     24  C   UNL     1       2.984   4.076  18.358  0.00  0.00    +0.000 C 
BRANCH  24  25
ATOM     25  C   UNL     1       3.585   3.598  17.035  0.00  0.00    +0.000 C 
BRANCH  25  29
ATOM     26  C   UNL     1       7.456   6.625  17.763  0.00  0.00    +0.000 C 
ATOM     27  C   UNL     1       6.588   5.622  17.088  0.00  0.00    +0.000 A 
ATOM     28  N   UNL     1       5.429   5.199  17.549  0.00  0.00    +0.000 NA
ATOM     29  C   UNL     1       4.887   4.255  16.685  0.00  0.00    +0.000 A 
ATOM     30  C   UNL     1       5.660   3.986  15.572  0.00  0.00    +0.000 A 
ATOM     31  S   UNL     1       7.087   4.930  15.596  0.00  0.00    +0.000 S 
ENDBRANCH  25  29
ENDBRANCH  24  25
ENDBRANCH  20  24
ENDBRANCH   1  21
TORSDOF 5
ENDMDL
MODEL 6
REMARK VINA RESULT:      -8.3      2.681      3.936
REMARK  Name = 
REMARK  6 active torsions:
REMARK  status: ('A' for Active; 'I' for Inactive)
REMARK    1  A    between atoms: C_1  and  C_2
REMARK    2  A    between atoms: C_4  and  C_5
REMARK    3  A    between atoms: C_5  and  C_6
REMARK    4  A    between atoms: C_6  and  N_7
REMARK    5  A    between atoms: C_8  and  C_10
REMARK    6  A    between atoms: C_13  and  N_14
REMARK                            x       y       z     vdW  Elec       q    Type
REMARK                         _______ _______ _______ _____ _____    ______ ____
ROOT
ATOM      1  C   UNL     1       2.888   7.489  18.487  0.00  0.00    +0.000 A 
ATOM      2  C   UNL     1       2.268   7.387  19.735  0.00  0.00    +0.000 A 
ATOM      3  C   UNL     1       1.342   8.356  20.132  0.00  0.00    +0.000 A 
ATOM      4  C   UNL     1       1.046   9.473  19.336  0.00  0.00    +0.000 A 
ATOM      5  C   UNL     1       1.657   9.569  18.087  0.00  0.00    +0.000 A 
ATOM      6  C   UNL     1       2.574   8.581  17.664  0.00  0.00    +0.000 A 
ENDROOT
BRANCH   4   7
ATOM      7  N   UNL     1       0.168  10.515  19.791  0.00  0.00    +0.000 N 
ATOM      8  C   UNL     1      -0.991  10.815  19.112  0.00  0.00    +0.000 C 
ATOM      9  O   UNL     1      -1.389  10.168  18.133  0.00  0.00    +0.000 OA
ATOM     10  N   UNL     1      -1.814  11.783  19.604  0.00  0.00    +0.000 N 
ATOM     11  C   UNL     1      -3.158  11.794  19.048  0.00  0.00    +0.000 C 
ATOM     12  C   UNL     1      -3.911  12.610  20.030  0.00  0.00    +0.000 A 
ATOM     13  C   UNL     1      -5.234  12.528  20.406  0.00  0.00    +0.000 A 
ATOM     14  C   UNL     1      -5.707  13.481  21.299  0.00  0.00    +0.000 A 
ATOM     15  C   UNL     1      -4.884  14.549  21.697  0.00  0.00    +0.000 A 
ATOM     16  C   UNL     1      -3.517  14.549  21.390  0.00  0.00    +0.000 A 
ATOM     17  C   UNL     1      -3.027  13.482  20.664  0.00  0.00    +0.000 A 
ATOM     18  C   UNL     1      -1.650  12.851  20.607  0.00  0.00    +0.000 C 
ATOM     19  H   UNL     1       0.192  10.752  20.761  0.00  0.00    +0.000 HD
ENDBRANCH   4   7
BRANCH   1  21
ATOM     20  N   UNL     1       4.410   5.638  19.015  0.00  0.00    +0.000 N 
ATOM     21  C   UNL     1       3.878   6.457  18.032  0.00  0.00    +0.000 C 
ATOM     22  O   UNL     1       4.155   6.361  16.841  0.00  0.00    +0.000 OA
ATOM     23  H   UNL     1       4.093   5.703  19.977  0.00  0.00    +0.000 HD
BRANCH  20  24
ATOM     24  C   UNL     1       5.341   4.561  18.741  0.00  0.00    +0.000 C 
BRANCH  24  25
ATOM     25  C   UNL     1       4.706   3.338  18.077  0.00  0.00    +0.000 C 
BRANCH  25  29
ATOM     26  C   UNL     1       1.334   2.648  21.660  0.00  0.00    +0.000 C 
ATOM     27  C   UNL     1       1.909   2.699  20.287  0.00  0.00    +0.000 A 
ATOM     28  N   UNL     1       3.159   3.005  20.006  0.00  0.00    +0.000 NA
ATOM     29  C   UNL     1       3.361   2.974  18.632  0.00  0.00    +0.000 A 
ATOM     30  C   UNL     1       2.242   2.636  17.895  0.00  0.00    +0.000 A 
ATOM     31  S   UNL     1       0.913   2.344  18.932  0.00  0.00    +0.000 S 
ENDBRANCH  25  29
ENDBRANCH  24  25
ENDBRANCH  20  24
ENDBRANCH   1  21
TORSDOF 5
ENDMDL
MODEL 7
REMARK VINA RESULT:      -8.3      0.861      1.276
REMARK  Name = 
REMARK  6 active torsions:
REMARK  status: ('A' for Active; 'I' for Inactive)
REMARK    1  A    between atoms: C_1  and  C_2
REMARK    2  A    between atoms: C_4  and  C_5
REMARK    3  A    between atoms: C_5  and  C_6
REMARK    4  A    between atoms: C_6  and  N_7
REMARK    5  A    between atoms: C_8  and  C_10
REMARK    6  A    between atoms: C_13  and  N_14
REMARK                            x       y       z     vdW  Elec       q    Type
REMARK                         _______ _______ _______ _____ _____    ______ ____
ROOT
ATOM      1  C   UNL     1       2.535   6.183  18.742  0.00  0.00    +0.000 A 
ATOM      2  C   UNL     1       2.564   7.407  18.069  0.00  0.00    +0.000 A 
ATOM      3  C   UNL     1       2.100   8.561  18.708  0.00  0.00    +0.000 A 
ATOM      4  C   UNL     1       1.549   8.528  19.997  0.00  0.00    +0.000 A 
ATOM      5  C   UNL     1       1.530   7.308  20.672  0.00  0.00    +0.000 A 
ATOM      6  C   UNL     1       2.021   6.141  20.047  0.00  0.00    +0.000 A 
ENDROOT
BRANCH   4   7
ATOM      7  N   UNL     1       0.985   9.699  20.610  0.00  0.00    +0.000 N 
ATOM      8  C   UNL     1      -0.112  10.327  20.066  0.00  0.00    +0.000 C 
ATOM      9  O   UNL     1      -0.723   9.892  19.080  0.00  0.00    +0.000 OA
ATOM     10  N   UNL     1      -0.639  11.410  20.706  0.00  0.00    +0.000 N 
ATOM     11  C   UNL     1      -1.975  11.791  20.277  0.00  0.00    +0.000 C 
ATOM     12  C   UNL     1      -2.436  12.661  21.385  0.00  0.00    +0.000 A 
ATOM     13  C   UNL     1      -3.711  12.857  21.873  0.00  0.00    +0.000 A 
ATOM     14  C   UNL     1      -3.874  13.803  22.877  0.00  0.00    +0.000 A 
ATOM     15  C   UNL     1      -2.790  14.603  23.280  0.00  0.00    +0.000 A 
ATOM     16  C   UNL     1      -1.489  14.311  22.849  0.00  0.00    +0.000 A 
ATOM     17  C   UNL     1      -1.325  13.235  22.001  0.00  0.00    +0.000 A 
ATOM     18  C   UNL     1      -0.150  12.306  21.769  0.00  0.00    +0.000 C 
ATOM     19  H   UNL     1       1.133   9.827  21.589  0.00  0.00    +0.000 HD
ENDBRANCH   4   7
BRANCH   1  21
ATOM     20  N   UNL     1       3.980   5.095  17.083  0.00  0.00    +0.000 N 
ATOM     21  C   UNL     1       3.036   4.931  18.084  0.00  0.00    +0.000 C 
ATOM     22  O   UNL     1       2.625   3.838  18.460  0.00  0.00    +0.000 OA
ATOM     23  H   UNL     1       4.348   6.014  16.860  0.00  0.00    +0.000 HD
BRANCH  20  24
ATOM     24  C   UNL     1       4.601   3.990  16.381  0.00  0.00    +0.000 C 
BRANCH  24  25
ATOM     25  C   UNL     1       6.070   4.222  16.024  0.00  0.00    +0.000 C 
BRANCH  25  29
ATOM     26  C   UNL     1       7.845   8.566  17.653  0.00  0.00    +0.000 C 
ATOM     27  C   UNL     1       7.544   7.108  17.640  0.00  0.00    +0.000 A 
ATOM     28  N   UNL     1       6.924   6.477  16.664  0.00  0.00    +0.000 NA
ATOM     29  C   UNL     1       6.792   5.130  16.974  0.00  0.00    +0.000 A 
ATOM     30  C   UNL     1       7.328   4.767  18.196  0.00  0.00    +0.000 A 
ATOM     31  S   UNL     1       8.015   6.129  18.971  0.00  0.00    +0.000 S 
ENDBRANCH  25  29
ENDBRANCH  24  25
ENDBRANCH  20  24
ENDBRANCH   1  21
TORSDOF 5
ENDMDL
MODEL 8
REMARK VINA RESULT:      -8.3      2.599      3.820
REMARK  Name = 
REMARK  6 active torsions:
REMARK  status: ('A' for Active; 'I' for Inactive)
REMARK    1  A    between atoms: C_1  and  C_2
REMARK    2  A    between atoms: C_4  and  C_5
REMARK    3  A    between atoms: C_5  and  C_6
REMARK    4  A    between atoms: C_6  and  N_7
REMARK    5  A    between atoms: C_8  and  C_10
REMARK    6  A    between atoms: C_13  and  N_14
REMARK                            x       y       z     vdW  Elec       q    Type
REMARK                         _______ _______ _______ _____ _____    ______ ____
ROOT
ATOM      1  C   UNL     1       2.535   7.765  18.657  0.00  0.00    +0.000 A 
ATOM      2  C   UNL     1       2.319   7.438  19.998  0.00  0.00    +0.000 A 
ATOM      3  C   UNL     1       1.382   8.157  20.745  0.00  0.00    +0.000 A 
ATOM      4  C   UNL     1       0.677   9.245  20.207  0.00  0.00    +0.000 A 
ATOM      5  C   UNL     1       0.886   9.563  18.866  0.00  0.00    +0.000 A 
ATOM      6  C   UNL     1       1.811   8.827  18.094  0.00  0.00    +0.000 A 
ENDROOT
BRANCH   4   7
ATOM      7  N   UNL     1      -0.212  10.040  21.007  0.00  0.00    +0.000 N 
ATOM      8  C   UNL     1       0.166  11.278  21.473  0.00  0.00    +0.000 C 
ATOM      9  O   UNL     1       1.244  11.814  21.177  0.00  0.00    +0.000 OA
ATOM     10  N   UNL     1      -0.727  12.016  22.192  0.00  0.00    +0.000 N 
ATOM     11  C   UNL     1      -0.389  13.423  22.340  0.00  0.00    +0.000 C 
ATOM     12  C   UNL     1      -1.679  14.025  22.755  0.00  0.00    +0.000 A 
ATOM     13  C   UNL     1      -2.178  15.286  22.505  0.00  0.00    +0.000 A 
ATOM     14  C   UNL     1      -3.393  15.621  23.088  0.00  0.00    +0.000 A 
ATOM     15  C   UNL     1      -4.013  14.739  23.991  0.00  0.00    +0.000 A 
ATOM     16  C   UNL     1      -3.545  13.427  24.143  0.00  0.00    +0.000 A 
ATOM     17  C   UNL     1      -2.445  13.053  23.397  0.00  0.00    +0.000 A 
ATOM     18  C   UNL     1      -1.998  11.704  22.870  0.00  0.00    +0.000 C 
ATOM     19  H   UNL     1      -1.193   9.881  20.907  0.00  0.00    +0.000 HD
ENDBRANCH   4   7
BRANCH   1  21
ATOM     20  N   UNL     1       4.177   5.952  18.456  0.00  0.00    +0.000 N 
ATOM     21  C   UNL     1       3.529   7.004  17.829  0.00  0.00    +0.000 C 
ATOM     22  O   UNL     1       3.709   7.312  16.655  0.00  0.00    +0.000 OA
ATOM     23  H   UNL     1       3.938   5.683  19.406  0.00  0.00    +0.000 HD
BRANCH  20  24
ATOM     24  C   UNL     1       5.128   5.085  17.788  0.00  0.00    +0.000 C 
BRANCH  24  25
ATOM     25  C   UNL     1       4.548   3.740  17.350  0.00  0.00    +0.000 C 
BRANCH  25  29
ATOM     26  C   UNL     1       2.097   2.776  21.562  0.00  0.00    +0.000 C 
ATOM     27  C   UNL     1       2.351   2.886  20.099  0.00  0.00    +0.000 A 
ATOM     28  N   UNL     1       3.488   3.276  19.560  0.00  0.00    +0.000 NA
ATOM     29  C   UNL     1       3.384   3.281  18.175  0.00  0.00    +0.000 A 
ATOM     30  C   UNL     1       2.152   2.882  17.691  0.00  0.00    +0.000 A 
ATOM     31  S   UNL     1       1.103   2.489  18.985  0.00  0.00    +0.000 S 
ENDBRANCH  25  29
ENDBRANCH  24  25
ENDBRANCH  20  24
ENDBRANCH   1  21
TORSDOF 5
ENDMDL
MODEL 9
REMARK VINA RESULT:      -8.2      2.743      3.298
REMARK  Name = 
REMARK  6 active torsions:
REMARK  status: ('A' for Active; 'I' for Inactive)
REMARK    1  A    between atoms: C_1  and  C_2
REMARK    2  A    between atoms: C_4  and  C_5
REMARK    3  A    between atoms: C_5  and  C_6
REMARK    4  A    between atoms: C_6  and  N_7
REMARK    5  A    between atoms: C_8  and  C_10
REMARK    6  A    between atoms: C_13  and  N_14
REMARK                            x       y       z     vdW  Elec       q    Type
REMARK                         _______ _______ _______ _____ _____    ______ ____
ROOT
ATOM      1  C   UNL     1       2.149   7.510  19.225  0.00  0.00    +0.000 A 
ATOM      2  C   UNL     1       2.061   8.400  18.152  0.00  0.00    +0.000 A 
ATOM      3  C   UNL     1       1.496   9.663  18.343  0.00  0.00    +0.000 A 
ATOM      4  C   UNL     1       0.957  10.059  19.576  0.00  0.00    +0.000 A 
ATOM      5  C   UNL     1       1.054   9.174  20.649  0.00  0.00    +0.000 A 
ATOM      6  C   UNL     1       1.647   7.905  20.474  0.00  0.00    +0.000 A 
ENDROOT
BRANCH   4   7
ATOM      7  N   UNL     1       0.289  11.321  19.741  0.00  0.00    +0.000 N 
ATOM      8  C   UNL     1       0.975  12.508  19.622  0.00  0.00    +0.000 C 
ATOM      9  O   UNL     1       2.168  12.573  19.293  0.00  0.00    +0.000 OA
ATOM     10  N   UNL     1       0.291  13.682  19.745  0.00  0.00    +0.000 N 
ATOM     11  C   UNL     1       0.995  14.860  19.264  0.00  0.00    +0.000 C 
ATOM     12  C   UNL     1      -0.095  15.854  19.120  0.00  0.00    +0.000 A 
ATOM     13  C   UNL     1      -0.221  16.894  18.224  0.00  0.00    +0.000 A 
ATOM     14  C   UNL     1      -1.319  17.733  18.365  0.00  0.00    +0.000 A 
ATOM     15  C   UNL     1      -2.189  17.582  19.458  0.00  0.00    +0.000 A 
ATOM     16  C   UNL     1      -2.104  16.457  20.289  0.00  0.00    +0.000 A 
ATOM     17  C   UNL     1      -1.122  15.530  20.006  0.00  0.00    +0.000 A 
ATOM     18  C   UNL     1      -1.041  14.038  20.264  0.00  0.00    +0.000 C 
ATOM     19  H   UNL     1      -0.693  11.353  19.565  0.00  0.00    +0.000 HD
ENDBRANCH   4   7
BRANCH   1  21
ATOM     20  N   UNL     1       2.809   5.658  17.756  0.00  0.00    +0.000 N 
ATOM     21  C   UNL     1       2.761   6.150  19.050  0.00  0.00    +0.000 C 
ATOM     22  O   UNL     1       3.205   5.551  20.024  0.00  0.00    +0.000 OA
ATOM     23  H   UNL     1       2.501   6.222  16.971  0.00  0.00    +0.000 HD
BRANCH  20  24
ATOM     24  C   UNL     1       3.410   4.386  17.406  0.00  0.00    +0.000 C 
BRANCH  24  25
ATOM     25  C   UNL     1       4.696   4.504  16.587  0.00  0.00    +0.000 C 
BRANCH  25  29
ATOM     26  C   UNL     1       7.867   8.195  17.586  0.00  0.00    +0.000 C 
ATOM     27  C   UNL     1       7.197   6.871  17.708  0.00  0.00    +0.000 A 
ATOM     28  N   UNL     1       6.234   6.441  16.919  0.00  0.00    +0.000 NA
ATOM     29  C   UNL     1       5.822   5.174  17.316  0.00  0.00    +0.000 A 
ATOM     30  C   UNL     1       6.498   4.667  18.409  0.00  0.00    +0.000 A 
ATOM     31  S   UNL     1       7.674   5.786  18.952  0.00  0.00    +0.000 S 
ENDBRANCH  25  29
ENDBRANCH  24  25
ENDBRANCH  20  24
ENDBRANCH   1  21
TORSDOF 5
ENDMDL
