MODEL 1
REMARK VINA RESULT:      -7.0      0.000      0.000
REMARK  Name = 
REMARK  11 active torsions:
REMARK  status: ('A' for Active; 'I' for Inactive)
REMARK    1  A    between atoms: C_1  and  C_2
REMARK    2  A    between atoms: C_2  and  C_3
REMARK    3  A    between atoms: C_3  and  C_4
REMARK    4  A    between atoms: C_4  and  C_5
REMARK    5  A    between atoms: C_5  and  C_6
REMARK    6  A    between atoms: C_6  and  C_7
REMARK    7  A    between atoms: C_7  and  C_8
REMARK    8  A    between atoms: C_8  and  N_9
REMARK    9  A    between atoms: C_10  and  C_11
REMARK   10  A    between atoms: C_14  and  S_15
REMARK   11  A    between atoms: S_15  and  C_16
REMARK                            x       y       z     vdW  Elec       q    Type
REMARK                         _______ _______ _______ _____ _____    ______ ____
ROOT
ATOM      1  N   UNL     1       4.110   4.541  19.165  0.00  0.00    +0.000 N 
ATOM      2  C   UNL     1       2.842   5.048  18.903  0.00  0.00    +0.000 A 
ATOM      3  C   UNL     1       2.131   3.921  18.523  0.00  0.00    +0.000 A 
ATOM      4  N   UNL     1       2.869   2.777  18.648  0.00  0.00    +0.000 NA
ATOM      5  C   UNL     1       4.035   3.165  19.092  0.00  0.00    +0.000 A 
ATOM      6  N   UNL     1       5.041   2.349  19.436  0.00  0.00    +0.000 N 
ATOM      7  H   UNL     1       4.956   1.377  19.155  0.00  0.00    +0.000 HD
ATOM      8  H   UNL     1       5.978   2.646  19.662  0.00  0.00    +0.000 HD
ENDROOT
BRANCH   2   9
ATOM      9  C   UNL     1       2.397   6.444  18.997  0.00  0.00    +0.000 A 
ATOM     10  C   UNL     1       1.979   6.979  20.227  0.00  0.00    +0.000 A 
ATOM     11  C   UNL     1       1.542   8.306  20.323  0.00  0.00    +0.000 A 
ATOM     12  C   UNL     1       1.517   9.105  19.178  0.00  0.00    +0.000 A 
ATOM     13  C   UNL     1       1.935   8.598  17.951  0.00  0.00    +0.000 A 
ATOM     14  C   UNL     1       2.411   7.290  17.877  0.00  0.00    +0.000 A 
BRANCH  12  15
ATOM     15  S   UNL     1       0.944  10.784  19.263  0.00  0.00    +0.000 S 
ATOM     16  C   UNL     1      -0.712  10.662  18.636  0.00  0.00    +0.000 C 
ATOM     17  O   UNL     1       0.875  11.150  20.666  0.00  0.00    +0.000 OA
ATOM     18  O   UNL     1       1.726  11.567  18.327  0.00  0.00    +0.000 OA
ENDBRANCH  12  15
ENDBRANCH   2   9
BRANCH   1  19
ATOM     19  C   UNL     1       5.320   5.296  19.439  0.00  0.00    +0.000 C 
BRANCH  19  20
ATOM     20  C   UNL     1       6.276   5.393  18.255  0.00  0.00    +0.000 C 
BRANCH  20  21
ATOM     21  C   UNL     1       5.946   6.616  17.400  0.00  0.00    +0.000 C 
BRANCH  21  22
ATOM     22  C   UNL     1       5.391   6.169  16.056  0.00  0.00    +0.000 C 
BRANCH  22  23
ATOM     23  C   UNL     1       5.832   4.751  15.714  0.00  0.00    +0.000 C 
BRANCH  23  24
ATOM     24  C   UNL     1       5.281   4.342  14.352  0.00  0.00    +0.000 C 
BRANCH  24  26
ATOM     25  C   UNL     1       5.847   3.173  12.209  0.00  0.00    +0.000 C 
ATOM     26  C   UNL     1       6.401   3.920  13.409  0.00  0.00    +0.000 C 
ENDBRANCH  24  26
ENDBRANCH  23  24
ENDBRANCH  22  23
ENDBRANCH  21  22
ENDBRANCH  20  21
ENDBRANCH  19  20
ENDBRANCH   1  19
TORSDOF 9
ENDMDL
MODEL 2
REMARK VINA RESULT:      -6.9      0.926      1.110
REMARK  Name = 
REMARK  11 active torsions:
REMARK  status: ('A' for Active; 'I' for Inactive)
REMARK    1  A    between atoms: C_1  and  C_2
REMARK    2  A    between atoms: C_2  and  C_3
REMARK    3  A    between atoms: C_3  and  C_4
REMARK    4  A    between atoms: C_4  and  C_5
REMARK    5  A    between atoms: C_5  and  C_6
REMARK    6  A    between atoms: C_6  and  C_7
REMARK    7  A    between atoms: C_7  and  C_8
REMARK    8  A    between atoms: C_8  and  N_9
REMARK    9  A    between atoms: C_10  and  C_11
REMARK   10  A    between atoms: C_14  and  S_15
REMARK   11  A    between atoms: S_15  and  C_16
REMARK                            x       y       z     vdW  Elec       q    Type
REMARK                         _______ _______ _______ _____ _____    ______ ____
ROOT
ATOM      1  N   UNL     1       4.089   4.734  19.146  0.00  0.00    +0.000 N 
ATOM      2  C   UNL     1       2.789   5.215  19.030  0.00  0.00    +0.000 A 
ATOM      3  C   UNL     1       2.044   4.057  18.870  0.00  0.00    +0.000 A 
ATOM      4  N   UNL     1       2.807   2.930  18.992  0.00  0.00    +0.000 NA
ATOM      5  C   UNL     1       4.022   3.357  19.217  0.00  0.00    +0.000 A 
ATOM      6  N   UNL     1       5.078   2.577  19.483  0.00  0.00    +0.000 N 
ATOM      7  H   UNL     1       4.965   1.582  19.312  0.00  0.00    +0.000 HD
ATOM      8  H   UNL     1       6.034   2.893  19.536  0.00  0.00    +0.000 HD
ENDROOT
BRANCH   2   9
ATOM      9  C   UNL     1       2.344   6.614  19.055  0.00  0.00    +0.000 A 
ATOM     10  C   UNL     1       1.915   7.205  20.255  0.00  0.00    +0.000 A 
ATOM     11  C   UNL     1       1.479   8.535  20.286  0.00  0.00    +0.000 A 
ATOM     12  C   UNL     1       1.465   9.281  19.106  0.00  0.00    +0.000 A 
ATOM     13  C   UNL     1       1.894   8.718  17.907  0.00  0.00    +0.000 A 
ATOM     14  C   UNL     1       2.369   7.407  17.898  0.00  0.00    +0.000 A 
BRANCH  12  15
ATOM     15  S   UNL     1       0.893  10.962  19.108  0.00  0.00    +0.000 S 
ATOM     16  C   UNL     1       0.725  11.314  20.840  0.00  0.00    +0.000 C 
ATOM     17  O   UNL     1       1.963  11.786  18.577  0.00  0.00    +0.000 OA
ATOM     18  O   UNL     1      -0.428  10.981  18.512  0.00  0.00    +0.000 OA
ENDBRANCH  12  15
ENDBRANCH   2   9
BRANCH   1  19
ATOM     19  C   UNL     1       5.316   5.511  19.163  0.00  0.00    +0.000 C 
BRANCH  19  20
ATOM     20  C   UNL     1       5.781   5.970  17.785  0.00  0.00    +0.000 C 
BRANCH  20  21
ATOM     21  C   UNL     1       7.092   5.282  17.406  0.00  0.00    +0.000 C 
BRANCH  21  22
ATOM     22  C   UNL     1       7.140   5.059  15.903  0.00  0.00    +0.000 C 
BRANCH  22  23
ATOM     23  C   UNL     1       6.263   3.885  15.485  0.00  0.00    +0.000 C 
BRANCH  23  24
ATOM     24  C   UNL     1       5.501   4.225  14.208  0.00  0.00    +0.000 C 
BRANCH  24  26
ATOM     25  C   UNL     1       5.070   3.258  11.936  0.00  0.00    +0.000 C 
ATOM     26  C   UNL     1       6.119   3.532  12.998  0.00  0.00    +0.000 C 
ENDBRANCH  24  26
ENDBRANCH  23  24
ENDBRANCH  22  23
ENDBRANCH  21  22
ENDBRANCH  20  21
ENDBRANCH  19  20
ENDBRANCH   1  19
TORSDOF 9
ENDMDL
MODEL 3
REMARK VINA RESULT:      -6.9      2.117      4.586
REMARK  Name = 
REMARK  11 active torsions:
REMARK  status: ('A' for Active; 'I' for Inactive)
REMARK    1  A    between atoms: C_1  and  C_2
REMARK    2  A    between atoms: C_2  and  C_3
REMARK    3  A    between atoms: C_3  and  C_4
REMARK    4  A    between atoms: C_4  and  C_5
REMARK    5  A    between atoms: C_5  and  C_6
REMARK    6  A    between atoms: C_6  and  C_7
REMARK    7  A    between atoms: C_7  and  C_8
REMARK    8  A    between atoms: C_8  and  N_9
REMARK    9  A    between atoms: C_10  and  C_11
REMARK   10  A    between atoms: C_14  and  S_15
REMARK   11  A    between atoms: S_15  and  C_16
REMARK                            x       y       z     vdW  Elec       q    Type
REMARK                         _______ _______ _______ _____ _____    ______ ____
ROOT
ATOM      1  N   UNL     1       4.450   5.054  17.024  0.00  0.00    +0.000 N 
ATOM      2  C   UNL     1       4.263   6.420  17.207  0.00  0.00    +0.000 A 
ATOM      3  C   UNL     1       5.181   6.977  16.331  0.00  0.00    +0.000 A 
ATOM      4  N   UNL     1       5.813   6.032  15.574  0.00  0.00    +0.000 NA
ATOM      5  C   UNL     1       5.317   4.888  15.963  0.00  0.00    +0.000 A 
ATOM      6  N   UNL     1       5.601   3.697  15.418  0.00  0.00    +0.000 N 
ATOM      7  H   UNL     1       6.395   3.663  14.786  0.00  0.00    +0.000 HD
ATOM      8  H   UNL     1       5.315   2.805  15.792  0.00  0.00    +0.000 HD
ENDROOT
BRANCH   2   9
ATOM      9  C   UNL     1       3.328   7.082  18.125  0.00  0.00    +0.000 A 
ATOM     10  C   UNL     1       3.045   6.524  19.382  0.00  0.00    +0.000 A 
ATOM     11  C   UNL     1       2.145   7.143  20.259  0.00  0.00    +0.000 A 
ATOM     12  C   UNL     1       1.517   8.329  19.873  0.00  0.00    +0.000 A 
ATOM     13  C   UNL     1       1.788   8.904  18.635  0.00  0.00    +0.000 A 
ATOM     14  C   UNL     1       2.721   8.303  17.790  0.00  0.00    +0.000 A 
BRANCH  12  15
ATOM     15  S   UNL     1       0.352   9.123  20.952  0.00  0.00    +0.000 S 
ATOM     16  C   UNL     1      -0.601  10.118  19.832  0.00  0.00    +0.000 C 
ATOM     17  O   UNL     1      -0.513   8.092  21.494  0.00  0.00    +0.000 OA
ATOM     18  O   UNL     1       1.092  10.010  21.827  0.00  0.00    +0.000 OA
ENDBRANCH  12  15
ENDBRANCH   2   9
BRANCH   1  19
ATOM     19  C   UNL     1       3.876   3.974  17.808  0.00  0.00    +0.000 C 
BRANCH  19  20
ATOM     20  C   UNL     1       2.661   3.314  17.163  0.00  0.00    +0.000 C 
BRANCH  20  21
ATOM     21  C   UNL     1       1.370   3.897  17.735  0.00  0.00    +0.000 C 
BRANCH  21  22
ATOM     22  C   UNL     1       0.806   2.959  18.792  0.00  0.00    +0.000 C 
BRANCH  22  23
ATOM     23  C   UNL     1       0.659   3.660  20.137  0.00  0.00    +0.000 C 
BRANCH  23  24
ATOM     24  C   UNL     1       1.313   2.830  21.237  0.00  0.00    +0.000 C 
BRANCH  24  26
ATOM     25  C   UNL     1       3.726   2.244  20.897  0.00  0.00    +0.000 C 
ATOM     26  C   UNL     1       2.756   3.262  21.469  0.00  0.00    +0.000 C 
ENDBRANCH  24  26
ENDBRANCH  23  24
ENDBRANCH  22  23
ENDBRANCH  21  22
ENDBRANCH  20  21
ENDBRANCH  19  20
ENDBRANCH   1  19
TORSDOF 9
ENDMDL
MODEL 4
REMARK VINA RESULT:      -6.9      2.581      4.013
REMARK  Name = 
REMARK  11 active torsions:
REMARK  status: ('A' for Active; 'I' for Inactive)
REMARK    1  A    between atoms: C_1  and  C_2
REMARK    2  A    between atoms: C_2  and  C_3
REMARK    3  A    between atoms: C_3  and  C_4
REMARK    4  A    between atoms: C_4  and  C_5
REMARK    5  A    between atoms: C_5  and  C_6
REMARK    6  A    between atoms: C_6  and  C_7
REMARK    7  A    between atoms: C_7  and  C_8
REMARK    8  A    between atoms: C_8  and  N_9
REMARK    9  A    between atoms: C_10  and  C_11
REMARK   10  A    between atoms: C_14  and  S_15
REMARK   11  A    between atoms: S_15  and  C_16
REMARK                            x       y       z     vdW  Elec       q    Type
REMARK                         _______ _______ _______ _____ _____    ______ ____
ROOT
ATOM      1  N   UNL     1       4.316   5.316  17.063  0.00  0.00    +0.000 N 
ATOM      2  C   UNL     1       3.195   5.437  17.878  0.00  0.00    +0.000 A 
ATOM      3  C   UNL     1       2.788   4.122  18.041  0.00  0.00    +0.000 A 
ATOM      4  N   UNL     1       3.656   3.237  17.465  0.00  0.00    +0.000 NA
ATOM      5  C   UNL     1       4.599   3.972  16.935  0.00  0.00    +0.000 A 
ATOM      6  N   UNL     1       5.702   3.499  16.340  0.00  0.00    +0.000 N 
ATOM      7  H   UNL     1       5.713   2.508  16.120  0.00  0.00    +0.000 HD
ATOM      8  H   UNL     1       6.367   4.057  15.825  0.00  0.00    +0.000 HD
ENDROOT
BRANCH   2   9
ATOM      9  C   UNL     1       2.600   6.670  18.407  0.00  0.00    +0.000 A 
ATOM     10  C   UNL     1       2.341   6.806  19.781  0.00  0.00    +0.000 A 
ATOM     11  C   UNL     1       1.762   7.975  20.292  0.00  0.00    +0.000 A 
ATOM     12  C   UNL     1       1.433   9.016  19.421  0.00  0.00    +0.000 A 
ATOM     13  C   UNL     1       1.689   8.906  18.057  0.00  0.00    +0.000 A 
ATOM     14  C   UNL     1       2.307   7.756  17.567  0.00  0.00    +0.000 A 
BRANCH  12  15
ATOM     15  S   UNL     1       0.675  10.499  20.036  0.00  0.00    +0.000 S 
ATOM     16  C   UNL     1       1.263  11.734  18.904  0.00  0.00    +0.000 C 
ATOM     17  O   UNL     1      -0.758  10.362  19.856  0.00  0.00    +0.000 OA
ATOM     18  O   UNL     1       1.239  10.776  21.342  0.00  0.00    +0.000 OA
ENDBRANCH  12  15
ENDBRANCH   2   9
BRANCH   1  19
ATOM     19  C   UNL     1       5.059   6.388  16.424  0.00  0.00    +0.000 C 
BRANCH  19  20
ATOM     20  C   UNL     1       5.907   7.217  17.384  0.00  0.00    +0.000 C 
BRANCH  20  21
ATOM     21  C   UNL     1       7.359   6.743  17.361  0.00  0.00    +0.000 C 
BRANCH  21  22
ATOM     22  C   UNL     1       8.194   7.596  18.303  0.00  0.00    +0.000 C 
BRANCH  22  23
ATOM     23  C   UNL     1       8.209   9.056  17.867  0.00  0.00    +0.000 C 
BRANCH  23  24
ATOM     24  C   UNL     1       9.005   9.895  18.862  0.00  0.00    +0.000 C 
BRANCH  24  26
ATOM     25  C   UNL     1      10.649  11.561  17.966  0.00  0.00    +0.000 C 
ATOM     26  C   UNL     1       9.201  11.318  18.351  0.00  0.00    +0.000 C 
ENDBRANCH  24  26
ENDBRANCH  23  24
ENDBRANCH  22  23
ENDBRANCH  21  22
ENDBRANCH  20  21
ENDBRANCH  19  20
ENDBRANCH   1  19
TORSDOF 9
ENDMDL
MODEL 5
REMARK VINA RESULT:      -6.9      0.955      1.556
REMARK  Name = 
REMARK  11 active torsions:
REMARK  status: ('A' for Active; 'I' for Inactive)
REMARK    1  A    between atoms: C_1  and  C_2
REMARK    2  A    between atoms: C_2  and  C_3
REMARK    3  A    between atoms: C_3  and  C_4
REMARK    4  A    between atoms: C_4  and  C_5
REMARK    5  A    between atoms: C_5  and  C_6
REMARK    6  A    between atoms: C_6  and  C_7
REMARK    7  A    between atoms: C_7  and  C_8
REMARK    8  A    between atoms: C_8  and  N_9
REMARK    9  A    between atoms: C_10  and  C_11
REMARK   10  A    between atoms: C_14  and  S_15
REMARK   11  A    between atoms: S_15  and  C_16
REMARK                            x       y       z     vdW  Elec       q    Type
REMARK                         _______ _______ _______ _____ _____    ______ ____
ROOT
ATOM      1  N   UNL     1       4.139   4.462  19.378  0.00  0.00    +0.000 N 
ATOM      2  C   UNL     1       2.838   4.934  19.235  0.00  0.00    +0.000 A 
ATOM      3  C   UNL     1       2.093   3.767  19.161  0.00  0.00    +0.000 A 
ATOM      4  N   UNL     1       2.858   2.652  19.358  0.00  0.00    +0.000 NA
ATOM      5  C   UNL     1       4.073   3.094  19.546  0.00  0.00    +0.000 A 
ATOM      6  N   UNL     1       5.131   2.334  19.861  0.00  0.00    +0.000 N 
ATOM      7  H   UNL     1       5.017   1.330  19.761  0.00  0.00    +0.000 HD
ATOM      8  H   UNL     1       6.087   2.654  19.887  0.00  0.00    +0.000 HD
ENDROOT
BRANCH   2   9
ATOM      9  C   UNL     1       2.394   6.331  19.165  0.00  0.00    +0.000 A 
ATOM     10  C   UNL     1       2.422   7.029  17.946  0.00  0.00    +0.000 A 
ATOM     11  C   UNL     1       2.010   8.366  17.873  0.00  0.00    +0.000 A 
ATOM     12  C   UNL     1       1.572   9.014  19.030  0.00  0.00    +0.000 A 
ATOM     13  C   UNL     1       1.528   8.339  20.246  0.00  0.00    +0.000 A 
ATOM     14  C   UNL     1       1.896   6.995  20.297  0.00  0.00    +0.000 A 
BRANCH  12  15
ATOM     15  S   UNL     1       1.068  10.715  18.974  0.00  0.00    +0.000 S 
ATOM     16  C   UNL     1       0.968  11.149  20.692  0.00  0.00    +0.000 C 
ATOM     17  O   UNL     1       2.154  11.471  18.376  0.00  0.00    +0.000 OA
ATOM     18  O   UNL     1      -0.268  10.764  18.415  0.00  0.00    +0.000 OA
ENDBRANCH  12  15
ENDBRANCH   2   9
BRANCH   1  19
ATOM     19  C   UNL     1       5.366   5.238  19.334  0.00  0.00    +0.000 C 
BRANCH  19  20
ATOM     20  C   UNL     1       5.708   5.786  17.952  0.00  0.00    +0.000 C 
BRANCH  20  21
ATOM     21  C   UNL     1       5.658   4.672  16.908  0.00  0.00    +0.000 C 
BRANCH  21  22
ATOM     22  C   UNL     1       6.308   5.146  15.618  0.00  0.00    +0.000 C 
BRANCH  22  23
ATOM     23  C   UNL     1       6.436   4.012  14.608  0.00  0.00    +0.000 C 
BRANCH  23  24
ATOM     24  C   UNL     1       5.333   4.114  13.559  0.00  0.00    +0.000 C 
BRANCH  24  26
ATOM     25  C   UNL     1       4.468   3.117  11.429  0.00  0.00    +0.000 C 
ATOM     26  C   UNL     1       5.689   3.320  12.307  0.00  0.00    +0.000 C 
ENDBRANCH  24  26
ENDBRANCH  23  24
ENDBRANCH  22  23
ENDBRANCH  21  22
ENDBRANCH  20  21
ENDBRANCH  19  20
ENDBRANCH   1  19
TORSDOF 9
ENDMDL
MODEL 6
REMARK VINA RESULT:      -6.8      2.085      3.592
REMARK  Name = 
REMARK  11 active torsions:
REMARK  status: ('A' for Active; 'I' for Inactive)
REMARK    1  A    between atoms: C_1  and  C_2
REMARK    2  A    between atoms: C_2  and  C_3
REMARK    3  A    between atoms: C_3  and  C_4
REMARK    4  A    between atoms: C_4  and  C_5
REMARK    5  A    between atoms: C_5  and  C_6
REMARK    6  A    between atoms: C_6  and  C_7
REMARK    7  A    between atoms: C_7  and  C_8
REMARK    8  A    between atoms: C_8  and  N_9
REMARK    9  A    between atoms: C_10  and  C_11
REMARK   10  A    between atoms: C_14  and  S_15
REMARK   11  A    between atoms: S_15  and  C_16
REMARK                            x       y       z     vdW  Elec       q    Type
REMARK                         _______ _______ _______ _____ _____    ______ ____
ROOT
ATOM      1  N   UNL     1       4.102   4.627  19.326  0.00  0.00    +0.000 N 
ATOM      2  C   UNL     1       2.808   5.122  19.454  0.00  0.00    +0.000 A 
ATOM      3  C   UNL     1       2.057   3.974  19.654  0.00  0.00    +0.000 A 
ATOM      4  N   UNL     1       2.837   2.857  19.757  0.00  0.00    +0.000 NA
ATOM      5  C   UNL     1       4.066   3.279  19.618  0.00  0.00    +0.000 A 
ATOM      6  N   UNL     1       5.162   2.517  19.737  0.00  0.00    +0.000 N 
ATOM      7  H   UNL     1       5.019   1.512  19.750  0.00  0.00    +0.000 HD
ATOM      8  H   UNL     1       6.100   2.811  19.511  0.00  0.00    +0.000 HD
ENDROOT
BRANCH   2   9
ATOM      9  C   UNL     1       2.371   6.521  19.375  0.00  0.00    +0.000 A 
ATOM     10  C   UNL     1       1.861   7.175  20.508  0.00  0.00    +0.000 A 
ATOM     11  C   UNL     1       1.431   8.507  20.438  0.00  0.00    +0.000 A 
ATOM     12  C   UNL     1       1.505   9.189  19.222  0.00  0.00    +0.000 A 
ATOM     13  C   UNL     1       2.015   8.563  18.088  0.00  0.00    +0.000 A 
ATOM     14  C   UNL     1       2.483   7.253  18.182  0.00  0.00    +0.000 A 
BRANCH  12  15
ATOM     15  S   UNL     1       0.944  10.869  19.096  0.00  0.00    +0.000 S 
ATOM     16  C   UNL     1       2.193  11.621  18.083  0.00  0.00    +0.000 C 
ATOM     17  O   UNL     1      -0.301  10.857  18.350  0.00  0.00    +0.000 OA
ATOM     18  O   UNL     1       1.015  11.460  20.417  0.00  0.00    +0.000 OA
ENDBRANCH  12  15
ENDBRANCH   2   9
BRANCH   1  19
ATOM     19  C   UNL     1       5.290   5.363  18.931  0.00  0.00    +0.000 C 
BRANCH  19  20
ATOM     20  C   UNL     1       5.688   5.167  17.472  0.00  0.00    +0.000 C 
BRANCH  20  21
ATOM     21  C   UNL     1       6.270   6.457  16.898  0.00  0.00    +0.000 C 
BRANCH  21  22
ATOM     22  C   UNL     1       7.424   6.933  17.769  0.00  0.00    +0.000 C 
BRANCH  22  23
ATOM     23  C   UNL     1       7.678   8.424  17.591  0.00  0.00    +0.000 C 
BRANCH  23  24
ATOM     24  C   UNL     1       8.690   8.913  18.623  0.00  0.00    +0.000 C 
BRANCH  24  26
ATOM     25  C   UNL     1       9.805  10.941  19.584  0.00  0.00    +0.000 C 
ATOM     26  C   UNL     1       9.043  10.378  18.398  0.00  0.00    +0.000 C 
ENDBRANCH  24  26
ENDBRANCH  23  24
ENDBRANCH  22  23
ENDBRANCH  21  22
ENDBRANCH  20  21
ENDBRANCH  19  20
ENDBRANCH   1  19
TORSDOF 9
ENDMDL
MODEL 7
REMARK VINA RESULT:      -6.8      2.067      4.446
REMARK  Name = 
REMARK  11 active torsions:
REMARK  status: ('A' for Active; 'I' for Inactive)
REMARK    1  A    between atoms: C_1  and  C_2
REMARK    2  A    between atoms: C_2  and  C_3
REMARK    3  A    between atoms: C_3  and  C_4
REMARK    4  A    between atoms: C_4  and  C_5
REMARK    5  A    between atoms: C_5  and  C_6
REMARK    6  A    between atoms: C_6  and  C_7
REMARK    7  A    between atoms: C_7  and  C_8
REMARK    8  A    between atoms: C_8  and  N_9
REMARK    9  A    between atoms: C_10  and  C_11
REMARK   10  A    between atoms: C_14  and  S_15
REMARK   11  A    between atoms: S_15  and  C_16
REMARK                            x       y       z     vdW  Elec       q    Type
REMARK                         _______ _______ _______ _____ _____    ______ ____
ROOT
ATOM      1  N   UNL     1       4.813   5.131  17.360  0.00  0.00    +0.000 N 
ATOM      2  C   UNL     1       4.351   6.430  17.176  0.00  0.00    +0.000 A 
ATOM      3  C   UNL     1       5.018   6.835  16.030  0.00  0.00    +0.000 A 
ATOM      4  N   UNL     1       5.753   5.825  15.476  0.00  0.00    +0.000 NA
ATOM      5  C   UNL     1       5.569   4.793  16.256  0.00  0.00    +0.000 A 
ATOM      6  N   UNL     1       6.045   3.561  16.032  0.00  0.00    +0.000 N 
ATOM      7  H   UNL     1       6.750   3.469  15.308  0.00  0.00    +0.000 HD
ATOM      8  H   UNL     1       6.008   2.797  16.690  0.00  0.00    +0.000 HD
ENDROOT
BRANCH   2   9
ATOM      9  C   UNL     1       3.403   7.172  18.015  0.00  0.00    +0.000 A 
ATOM     10  C   UNL     1       3.032   6.683  19.278  0.00  0.00    +0.000 A 
ATOM     11  C   UNL     1       2.120   7.380  20.080  0.00  0.00    +0.000 A 
ATOM     12  C   UNL     1       1.566   8.573  19.613  0.00  0.00    +0.000 A 
ATOM     13  C   UNL     1       1.926   9.081  18.368  0.00  0.00    +0.000 A 
ATOM     14  C   UNL     1       2.870   8.403  17.598  0.00  0.00    +0.000 A 
BRANCH  12  15
ATOM     15  S   UNL     1       0.387   9.466  20.596  0.00  0.00    +0.000 S 
ATOM     16  C   UNL     1      -0.332   8.188  21.597  0.00  0.00    +0.000 C 
ATOM     17  O   UNL     1       1.131  10.360  21.464  0.00  0.00    +0.000 OA
ATOM     18  O   UNL     1      -0.637   9.974  19.705  0.00  0.00    +0.000 OA
ENDBRANCH  12  15
ENDBRANCH   2   9
BRANCH   1  19
ATOM     19  C   UNL     1       4.583   4.270  18.508  0.00  0.00    +0.000 C 
BRANCH  19  20
ATOM     20  C   UNL     1       3.756   3.027  18.198  0.00  0.00    +0.000 C 
BRANCH  20  21
ATOM     21  C   UNL     1       2.657   3.353  17.188  0.00  0.00    +0.000 C 
BRANCH  21  22
ATOM     22  C   UNL     1       1.390   3.766  17.921  0.00  0.00    +0.000 C 
BRANCH  22  23
ATOM     23  C   UNL     1       0.885   2.654  18.831  0.00  0.00    +0.000 C 
BRANCH  23  24
ATOM     24  C   UNL     1       0.529   3.217  20.203  0.00  0.00    +0.000 C 
BRANCH  24  26
ATOM     25  C   UNL     1       2.454   3.832  21.685  0.00  0.00    +0.000 C 
ATOM     26  C   UNL     1       1.501   2.726  21.270  0.00  0.00    +0.000 C 
ENDBRANCH  24  26
ENDBRANCH  23  24
ENDBRANCH  22  23
ENDBRANCH  21  22
ENDBRANCH  20  21
ENDBRANCH  19  20
ENDBRANCH   1  19
TORSDOF 9
ENDMDL
MODEL 8
REMARK VINA RESULT:      -6.8      2.153      3.786
REMARK  Name = 
REMARK  11 active torsions:
REMARK  status: ('A' for Active; 'I' for Inactive)
REMARK    1  A    between atoms: C_1  and  C_2
REMARK    2  A    between atoms: C_2  and  C_3
REMARK    3  A    between atoms: C_3  and  C_4
REMARK    4  A    between atoms: C_4  and  C_5
REMARK    5  A    between atoms: C_5  and  C_6
REMARK    6  A    between atoms: C_6  and  C_7
REMARK    7  A    between atoms: C_7  and  C_8
REMARK    8  A    between atoms: C_8  and  N_9
REMARK    9  A    between atoms: C_10  and  C_11
REMARK   10  A    between atoms: C_14  and  S_15
REMARK   11  A    between atoms: S_15  and  C_16
REMARK                            x       y       z     vdW  Elec       q    Type
REMARK                         _______ _______ _______ _____ _____    ______ ____
ROOT
ATOM      1  N   UNL     1       4.048   4.940  19.114  0.00  0.00    +0.000 N 
ATOM      2  C   UNL     1       2.729   5.356  19.262  0.00  0.00    +0.000 A 
ATOM      3  C   UNL     1       2.023   4.164  19.228  0.00  0.00    +0.000 A 
ATOM      4  N   UNL     1       2.848   3.076  19.179  0.00  0.00    +0.000 NA
ATOM      5  C   UNL     1       4.061   3.561  19.172  0.00  0.00    +0.000 A 
ATOM      6  N   UNL     1       5.184   2.831  19.213  0.00  0.00    +0.000 N 
ATOM      7  H   UNL     1       5.087   1.834  19.049  0.00  0.00    +0.000 HD
ATOM      8  H   UNL     1       6.117   3.195  19.085  0.00  0.00    +0.000 HD
ENDROOT
BRANCH   2   9
ATOM      9  C   UNL     1       2.233   6.731  19.399  0.00  0.00    +0.000 A 
ATOM     10  C   UNL     1       2.245   7.607  18.301  0.00  0.00    +0.000 A 
ATOM     11  C   UNL     1       1.784   8.924  18.427  0.00  0.00    +0.000 A 
ATOM     12  C   UNL     1       1.313   9.372  19.662  0.00  0.00    +0.000 A 
ATOM     13  C   UNL     1       1.284   8.518  20.761  0.00  0.00    +0.000 A 
ATOM     14  C   UNL     1       1.702   7.196  20.613  0.00  0.00    +0.000 A 
BRANCH  12  15
ATOM     15  S   UNL     1       0.746  11.043  19.859  0.00  0.00    +0.000 S 
ATOM     16  C   UNL     1       1.744  11.933  18.692  0.00  0.00    +0.000 C 
ATOM     17  O   UNL     1      -0.633  11.091  19.410  0.00  0.00    +0.000 OA
ATOM     18  O   UNL     1       1.110  11.480  21.193  0.00  0.00    +0.000 OA
ENDBRANCH  12  15
ENDBRANCH   2   9
BRANCH   1  19
ATOM     19  C   UNL     1       5.217   5.776  18.906  0.00  0.00    +0.000 C 
BRANCH  19  20
ATOM     20  C   UNL     1       5.479   6.130  17.446  0.00  0.00    +0.000 C 
BRANCH  20  21
ATOM     21  C   UNL     1       6.976   6.091  17.146  0.00  0.00    +0.000 C 
BRANCH  21  22
ATOM     22  C   UNL     1       7.728   6.921  18.175  0.00  0.00    +0.000 C 
BRANCH  22  23
ATOM     23  C   UNL     1       7.931   8.353  17.696  0.00  0.00    +0.000 C 
BRANCH  23  24
ATOM     24  C   UNL     1       8.761   9.134  18.710  0.00  0.00    +0.000 C 
BRANCH  24  26
ATOM     25  C   UNL     1       9.635  11.399  19.333  0.00  0.00    +0.000 C 
ATOM     26  C   UNL     1       9.019  10.558  18.230  0.00  0.00    +0.000 C 
ENDBRANCH  24  26
ENDBRANCH  23  24
ENDBRANCH  22  23
ENDBRANCH  21  22
ENDBRANCH  20  21
ENDBRANCH  19  20
ENDBRANCH   1  19
TORSDOF 9
ENDMDL
MODEL 9
REMARK VINA RESULT:      -6.8      1.103      1.515
REMARK  Name = 
REMARK  11 active torsions:
REMARK  status: ('A' for Active; 'I' for Inactive)
REMARK    1  A    between atoms: C_1  and  C_2
REMARK    2  A    between atoms: C_2  and  C_3
REMARK    3  A    between atoms: C_3  and  C_4
REMARK    4  A    between atoms: C_4  and  C_5
REMARK    5  A    between atoms: C_5  and  C_6
REMARK    6  A    between atoms: C_6  and  C_7
REMARK    7  A    between atoms: C_7  and  C_8
REMARK    8  A    between atoms: C_8  and  N_9
REMARK    9  A    between atoms: C_10  and  C_11
REMARK   10  A    between atoms: C_14  and  S_15
REMARK   11  A    between atoms: S_15  and  C_16
REMARK                            x       y       z     vdW  Elec       q    Type
REMARK                         _______ _______ _______ _____ _____    ______ ____
ROOT
ATOM      1  N   UNL     1       3.990   4.357  19.356  0.00  0.00    +0.000 N 
ATOM      2  C   UNL     1       2.732   4.914  19.565  0.00  0.00    +0.000 A 
ATOM      3  C   UNL     1       1.967   3.819  19.932  0.00  0.00    +0.000 A 
ATOM      4  N   UNL     1       2.715   2.682  20.055  0.00  0.00    +0.000 NA
ATOM      5  C   UNL     1       3.938   3.040  19.763  0.00  0.00    +0.000 A 
ATOM      6  N   UNL     1       5.014   2.245  19.841  0.00  0.00    +0.000 N 
ATOM      7  H   UNL     1       4.840   1.251  19.953  0.00  0.00    +0.000 HD
ATOM      8  H   UNL     1       5.935   2.480  19.503  0.00  0.00    +0.000 HD
ENDROOT
BRANCH   2   9
ATOM      9  C   UNL     1       2.337   6.319  19.409  0.00  0.00    +0.000 A 
ATOM     10  C   UNL     1       1.856   7.052  20.507  0.00  0.00    +0.000 A 
ATOM     11  C   UNL     1       1.466   8.389  20.364  0.00  0.00    +0.000 A 
ATOM     12  C   UNL     1       1.550   8.999  19.112  0.00  0.00    +0.000 A 
ATOM     13  C   UNL     1       2.032   8.295  18.012  0.00  0.00    +0.000 A 
ATOM     14  C   UNL     1       2.461   6.978  18.176  0.00  0.00    +0.000 A 
BRANCH  12  15
ATOM     15  S   UNL     1       1.039  10.685  18.894  0.00  0.00    +0.000 S 
ATOM     16  C   UNL     1       0.878  11.263  20.564  0.00  0.00    +0.000 C 
ATOM     17  O   UNL     1       2.139  11.397  18.270  0.00  0.00    +0.000 OA
ATOM     18  O   UNL     1      -0.279  10.674  18.289  0.00  0.00    +0.000 OA
ENDBRANCH  12  15
ENDBRANCH   2   9
BRANCH   1  19
ATOM     19  C   UNL     1       5.157   5.008  18.788  0.00  0.00    +0.000 C 
BRANCH  19  20
ATOM     20  C   UNL     1       5.110   5.160  17.271  0.00  0.00    +0.000 C 
BRANCH  20  21
ATOM     21  C   UNL     1       5.441   3.833  16.590  0.00  0.00    +0.000 C 
BRANCH  21  22
ATOM     22  C   UNL     1       6.337   4.082  15.387  0.00  0.00    +0.000 C 
BRANCH  22  23
ATOM     23  C   UNL     1       5.521   4.282  14.116  0.00  0.00    +0.000 C 
BRANCH  23  24
ATOM     24  C   UNL     1       6.288   3.752  12.909  0.00  0.00    +0.000 C 
BRANCH  24  26
ATOM     25  C   UNL     1       5.836   1.736  11.490  0.00  0.00    +0.000 C 
ATOM     26  C   UNL     1       5.346   3.115  11.894  0.00  0.00    +0.000 C 
ENDBRANCH  24  26
ENDBRANCH  23  24
ENDBRANCH  22  23
ENDBRANCH  21  22
ENDBRANCH  20  21
ENDBRANCH  19  20
ENDBRANCH   1  19
TORSDOF 9
ENDMDL
