MODEL 1
REMARK VINA RESULT:      -8.6      0.000      0.000
REMARK  Name = 
REMARK  11 active torsions:
REMARK  status: ('A' for Active; 'I' for Inactive)
REMARK    1  A    between atoms: C_1  and  O_2
REMARK    2  A    between atoms: O_2  and  C_3
REMARK    3  A    between atoms: C_3  and  C_4
REMARK    4  A    between atoms: C_4  and  N_5
REMARK    5  A    between atoms: C_9  and  C_10
REMARK    6  A    between atoms: C_9  and  C_18
REMARK    7  A    between atoms: C_10  and  C_11
REMARK    8  A    between atoms: N_21  and  C_22
REMARK    9  A    between atoms: C_22  and  C_23
REMARK   10  A    between atoms: C_25  and  C_26
REMARK   11  A    between atoms: C_28  and  C_29
REMARK                            x       y       z     vdW  Elec       q    Type
REMARK                         _______ _______ _______ _____ _____    ______ ____
ROOT
ATOM      1  N   UNL     1       6.783   5.567  18.019  0.00  0.00    +0.000 N 
ATOM      2  C   UNL     1       7.332   4.467  17.445  0.00  0.00    +0.000 C 
ATOM      3  O   UNL     1       8.440   3.999  17.643  0.00  0.00    +0.000 OA
ATOM      4  N   UNL     1       6.438   3.953  16.548  0.00  0.00    +0.000 N 
ATOM      5  C   UNL     1       5.149   4.643  16.547  0.00  0.00    +0.000 C 
ATOM      6  C   UNL     1       5.548   5.811  17.490  0.00  0.00    +0.000 C 
ATOM      7  O   UNL     1       4.852   6.797  17.715  0.00  0.00    +0.000 OA
ATOM      8  H   UNL     1       6.683   3.170  15.954  0.00  0.00    +0.000 HD
ENDROOT
BRANCH   5   9
ATOM      9  C   UNL     1       4.052   3.671  17.099  0.00  0.00    +0.000 C 
ATOM     10  C   UNL     1       2.615   4.209  17.169  0.00  0.00    +0.000 C 
ATOM     11  C   UNL     1       2.300   5.041  18.412  0.00  0.00    +0.000 C 
ATOM     12  N   UNL     1       2.642   4.364  19.669  0.00  0.00    +0.000 NA
ATOM     13  C   UNL     1       4.011   3.826  19.673  0.00  0.00    +0.000 C 
ATOM     14  C   UNL     1       4.347   2.978  18.445  0.00  0.00    +0.000 C 
BRANCH  12  15
ATOM     15  C   UNL     1       2.492   5.299  20.812  0.00  0.00    +0.000 C 
BRANCH  15  16
ATOM     16  C   UNL     1       2.003   6.694  20.461  0.00  0.00    +0.000 A 
ATOM     17  C   UNL     1       2.321   7.283  19.227  0.00  0.00    +0.000 A 
ATOM     18  C   UNL     1       1.807   8.539  18.877  0.00  0.00    +0.000 A 
ATOM     19  C   UNL     1       2.132   9.185  17.562  0.00  0.00    +0.000 C 
ATOM     20  C   UNL     1       0.962   9.210  19.769  0.00  0.00    +0.000 A 
ATOM     21  C   UNL     1       0.622   8.640  20.999  0.00  0.00    +0.000 A 
ATOM     22  C   UNL     1      -0.331   9.343  21.922  0.00  0.00    +0.000 C 
ATOM     23  C   UNL     1       1.149   7.386  21.339  0.00  0.00    +0.000 A 
ENDBRANCH  15  16
ENDBRANCH  12  15
ENDBRANCH   5   9
BRANCH   1  24
ATOM     24  C   UNL     1       7.543   6.484  18.856  0.00  0.00    +0.000 C 
BRANCH  24  25
ATOM     25  C   UNL     1       8.177   7.610  18.031  0.00  0.00    +0.000 C 
BRANCH  25  27
ATOM     26  C   UNL     1       8.688   9.890  18.347  0.00  0.00    +0.000 C 
ATOM     27  O   UNL     1       8.744   8.587  18.909  0.00  0.00    +0.000 OA
ENDBRANCH  25  27
ENDBRANCH  24  25
ENDBRANCH   1  24
BRANCH   5  28
ATOM     28  C   UNL     1       4.847   5.237  15.143  0.00  0.00    +0.000 C 
BRANCH  28  29
ATOM     29  C   UNL     1       5.600   4.591  13.993  0.00  0.00    +0.000 A 
ATOM     30  C   UNL     1       5.002   3.602  13.195  0.00  0.00    +0.000 A 
ATOM     31  C   UNL     1       5.723   2.974  12.178  0.00  0.00    +0.000 A 
ATOM     32  C   UNL     1       7.036   3.349  11.937  0.00  0.00    +0.000 A 
ATOM     33  F   UNL     1       7.729   2.741  10.963  0.00  0.00    +0.000 F 
ATOM     34  C   UNL     1       7.642   4.345  12.691  0.00  0.00    +0.000 A 
ATOM     35  C   UNL     1       6.926   4.965  13.718  0.00  0.00    +0.000 A 
ENDBRANCH  28  29
ENDBRANCH   5  28
TORSDOF 8
ENDMDL
MODEL 2
REMARK VINA RESULT:      -8.6      0.320      1.718
REMARK  Name = 
REMARK  11 active torsions:
REMARK  status: ('A' for Active; 'I' for Inactive)
REMARK    1  A    between atoms: C_1  and  O_2
REMARK    2  A    between atoms: O_2  and  C_3
REMARK    3  A    between atoms: C_3  and  C_4
REMARK    4  A    between atoms: C_4  and  N_5
REMARK    5  A    between atoms: C_9  and  C_10
REMARK    6  A    between atoms: C_9  and  C_18
REMARK    7  A    between atoms: C_10  and  C_11
REMARK    8  A    between atoms: N_21  and  C_22
REMARK    9  A    between atoms: C_22  and  C_23
REMARK   10  A    between atoms: C_25  and  C_26
REMARK   11  A    between atoms: C_28  and  C_29
REMARK                            x       y       z     vdW  Elec       q    Type
REMARK                         _______ _______ _______ _____ _____    ______ ____
ROOT
ATOM      1  N   UNL     1       6.711   5.691  17.818  0.00  0.00    +0.000 N 
ATOM      2  C   UNL     1       7.262   4.547  17.339  0.00  0.00    +0.000 C 
ATOM      3  O   UNL     1       8.365   4.091  17.588  0.00  0.00    +0.000 OA
ATOM      4  N   UNL     1       6.375   3.966  16.476  0.00  0.00    +0.000 N 
ATOM      5  C   UNL     1       5.090   4.660  16.404  0.00  0.00    +0.000 C 
ATOM      6  C   UNL     1       5.484   5.897  17.255  0.00  0.00    +0.000 C 
ATOM      7  O   UNL     1       4.791   6.901  17.392  0.00  0.00    +0.000 OA
ATOM      8  H   UNL     1       6.624   3.138  15.949  0.00  0.00    +0.000 HD
ENDROOT
BRANCH   5   9
ATOM      9  C   UNL     1       3.981   3.740  17.019  0.00  0.00    +0.000 C 
ATOM     10  C   UNL     1       2.568   4.329  17.129  0.00  0.00    +0.000 C 
ATOM     11  C   UNL     1       2.328   5.199  18.362  0.00  0.00    +0.000 C 
ATOM     12  N   UNL     1       2.694   4.538  19.622  0.00  0.00    +0.000 NA
ATOM     13  C   UNL     1       4.043   3.952  19.588  0.00  0.00    +0.000 C 
ATOM     14  C   UNL     1       4.303   3.066  18.369  0.00  0.00    +0.000 C 
BRANCH  12  15
ATOM     15  C   UNL     1       2.619   5.502  20.747  0.00  0.00    +0.000 C 
BRANCH  15  16
ATOM     16  C   UNL     1       1.950   6.830  20.432  0.00  0.00    +0.000 A 
ATOM     17  C   UNL     1       1.083   7.439  21.352  0.00  0.00    +0.000 A 
ATOM     18  C   UNL     1       0.526   8.699  21.089  0.00  0.00    +0.000 A 
ATOM     19  C   UNL     1      -0.400   9.369  22.060  0.00  0.00    +0.000 C 
ATOM     20  C   UNL     1       0.844   9.356  19.894  0.00  0.00    +0.000 A 
ATOM     21  C   UNL     1       1.714   8.774  18.967  0.00  0.00    +0.000 A 
ATOM     22  C   UNL     1       2.092   9.514  17.717  0.00  0.00    +0.000 C 
ATOM     23  C   UNL     1       2.258   7.512  19.241  0.00  0.00    +0.000 A 
ENDBRANCH  15  16
ENDBRANCH  12  15
ENDBRANCH   5   9
BRANCH   1  24
ATOM     24  C   UNL     1       7.466   6.669  18.588  0.00  0.00    +0.000 C 
BRANCH  24  25
ATOM     25  C   UNL     1       8.124   7.718  17.683  0.00  0.00    +0.000 C 
BRANCH  25  27
ATOM     26  C   UNL     1       8.809   9.802  18.544  0.00  0.00    +0.000 C 
ATOM     27  O   UNL     1       7.711   9.026  18.087  0.00  0.00    +0.000 OA
ENDBRANCH  25  27
ENDBRANCH  24  25
ENDBRANCH   1  24
BRANCH   5  28
ATOM     28  C   UNL     1       4.808   5.142  14.953  0.00  0.00    +0.000 C 
BRANCH  28  29
ATOM     29  C   UNL     1       5.617   4.444  13.873  0.00  0.00    +0.000 A 
ATOM     30  C   UNL     1       6.932   4.839  13.579  0.00  0.00    +0.000 A 
ATOM     31  C   UNL     1       7.645   4.230  12.544  0.00  0.00    +0.000 A 
ATOM     32  C   UNL     1       7.055   3.206  11.817  0.00  0.00    +0.000 A 
ATOM     33  F   UNL     1       7.740   2.625  10.821  0.00  0.00    +0.000 F 
ATOM     34  C   UNL     1       5.768   2.775  12.107  0.00  0.00    +0.000 A 
ATOM     35  C   UNL     1       5.048   3.394  13.133  0.00  0.00    +0.000 A 
ENDBRANCH  28  29
ENDBRANCH   5  28
TORSDOF 8
ENDMDL
MODEL 3
REMARK VINA RESULT:      -8.5      2.375      4.098
REMARK  Name = 
REMARK  11 active torsions:
REMARK  status: ('A' for Active; 'I' for Inactive)
REMARK    1  A    between atoms: C_1  and  O_2
REMARK    2  A    between atoms: O_2  and  C_3
REMARK    3  A    between atoms: C_3  and  C_4
REMARK    4  A    between atoms: C_4  and  N_5
REMARK    5  A    between atoms: C_9  and  C_10
REMARK    6  A    between atoms: C_9  and  C_18
REMARK    7  A    between atoms: C_10  and  C_11
REMARK    8  A    between atoms: N_21  and  C_22
REMARK    9  A    between atoms: C_22  and  C_23
REMARK   10  A    between atoms: C_25  and  C_26
REMARK   11  A    between atoms: C_28  and  C_29
REMARK                            x       y       z     vdW  Elec       q    Type
REMARK                         _______ _______ _______ _____ _____    ______ ____
ROOT
ATOM      1  N   UNL     1       4.380   2.720  19.442  0.00  0.00    +0.000 N 
ATOM      2  C   UNL     1       4.161   1.990  18.319  0.00  0.00    +0.000 C 
ATOM      3  O   UNL     1       3.791   0.831  18.245  0.00  0.00    +0.000 OA
ATOM      4  N   UNL     1       4.457   2.765  17.233  0.00  0.00    +0.000 N 
ATOM      5  C   UNL     1       4.804   4.143  17.576  0.00  0.00    +0.000 C 
ATOM      6  C   UNL     1       4.853   3.959  19.117  0.00  0.00    +0.000 C 
ATOM      7  O   UNL     1       5.258   4.804  19.910  0.00  0.00    +0.000 OA
ATOM      8  H   UNL     1       4.433   2.384  16.295  0.00  0.00    +0.000 HD
ENDROOT
BRANCH   5   9
ATOM      9  C   UNL     1       3.682   5.098  17.043  0.00  0.00    +0.000 C 
ATOM     10  C   UNL     1       3.949   6.607  17.133  0.00  0.00    +0.000 C 
ATOM     11  C   UNL     1       3.638   7.234  18.491  0.00  0.00    +0.000 C 
ATOM     12  N   UNL     1       2.284   6.936  18.975  0.00  0.00    +0.000 NA
ATOM     13  C   UNL     1       1.962   5.502  18.920  0.00  0.00    +0.000 C 
ATOM     14  C   UNL     1       2.252   4.853  17.566  0.00  0.00    +0.000 C 
BRANCH  12  15
ATOM     15  C   UNL     1       2.123   7.410  20.373  0.00  0.00    +0.000 C 
BRANCH  15  16
ATOM     16  C   UNL     1       1.190   8.594  20.562  0.00  0.00    +0.000 A 
ATOM     17  C   UNL     1       0.569   8.835  21.798  0.00  0.00    +0.000 A 
ATOM     18  C   UNL     1      -0.233   9.970  21.990  0.00  0.00    +0.000 A 
ATOM     19  C   UNL     1      -0.902  10.248  23.303  0.00  0.00    +0.000 C 
ATOM     20  C   UNL     1      -0.410  10.873  20.935  0.00  0.00    +0.000 A 
ATOM     21  C   UNL     1       0.206  10.660  19.698  0.00  0.00    +0.000 A 
ATOM     22  C   UNL     1       0.055  11.666  18.594  0.00  0.00    +0.000 C 
ATOM     23  C   UNL     1       0.999   9.518  19.519  0.00  0.00    +0.000 A 
ENDBRANCH  15  16
ENDBRANCH  12  15
ENDBRANCH   5   9
BRANCH   1  24
ATOM     24  C   UNL     1       4.377   2.137  20.776  0.00  0.00    +0.000 C 
BRANCH  24  25
ATOM     25  C   UNL     1       5.465   1.067  20.929  0.00  0.00    +0.000 C 
BRANCH  25  27
ATOM     26  C   UNL     1       6.421  -0.443  22.467  0.00  0.00    +0.000 C 
ATOM     27  O   UNL     1       5.561   0.676  22.302  0.00  0.00    +0.000 OA
ENDBRANCH  25  27
ENDBRANCH  24  25
ENDBRANCH   1  24
BRANCH   5  28
ATOM     28  C   UNL     1       6.239   4.486  17.085  0.00  0.00    +0.000 C 
BRANCH  28  29
ATOM     29  C   UNL     1       6.430   4.454  15.578  0.00  0.00    +0.000 A 
ATOM     30  C   UNL     1       5.625   3.646  14.759  0.00  0.00    +0.000 A 
ATOM     31  C   UNL     1       5.848   3.580  13.382  0.00  0.00    +0.000 A 
ATOM     32  C   UNL     1       6.859   4.341  12.815  0.00  0.00    +0.000 A 
ATOM     33  F   UNL     1       7.075   4.273  11.494  0.00  0.00    +0.000 F 
ATOM     34  C   UNL     1       7.649   5.172  13.598  0.00  0.00    +0.000 A 
ATOM     35  C   UNL     1       7.437   5.228  14.978  0.00  0.00    +0.000 A 
ENDBRANCH  28  29
ENDBRANCH   5  28
TORSDOF 8
ENDMDL
MODEL 4
REMARK VINA RESULT:      -8.5      2.222      3.871
REMARK  Name = 
REMARK  11 active torsions:
REMARK  status: ('A' for Active; 'I' for Inactive)
REMARK    1  A    between atoms: C_1  and  O_2
REMARK    2  A    between atoms: O_2  and  C_3
REMARK    3  A    between atoms: C_3  and  C_4
REMARK    4  A    between atoms: C_4  and  N_5
REMARK    5  A    between atoms: C_9  and  C_10
REMARK    6  A    between atoms: C_9  and  C_18
REMARK    7  A    between atoms: C_10  and  C_11
REMARK    8  A    between atoms: N_21  and  C_22
REMARK    9  A    between atoms: C_22  and  C_23
REMARK   10  A    between atoms: C_25  and  C_26
REMARK   11  A    between atoms: C_28  and  C_29
REMARK                            x       y       z     vdW  Elec       q    Type
REMARK                         _______ _______ _______ _____ _____    ______ ____
ROOT
ATOM      1  N   UNL     1       4.387   2.942  19.553  0.00  0.00    +0.000 N 
ATOM      2  C   UNL     1       4.131   2.166  18.470  0.00  0.00    +0.000 C 
ATOM      3  O   UNL     1       3.674   1.036  18.456  0.00  0.00    +0.000 OA
ATOM      4  N   UNL     1       4.502   2.851  17.347  0.00  0.00    +0.000 N 
ATOM      5  C   UNL     1       4.948   4.217  17.617  0.00  0.00    +0.000 C 
ATOM      6  C   UNL     1       4.958   4.121  19.166  0.00  0.00    +0.000 C 
ATOM      7  O   UNL     1       5.414   4.978  19.918  0.00  0.00    +0.000 OA
ATOM      8  H   UNL     1       4.463   2.418  16.433  0.00  0.00    +0.000 HD
ENDROOT
BRANCH   5   9
ATOM      9  C   UNL     1       3.911   5.220  17.007  0.00  0.00    +0.000 C 
ATOM     10  C   UNL     1       4.219   6.717  17.155  0.00  0.00    +0.000 C 
ATOM     11  C   UNL     1       3.808   7.328  18.494  0.00  0.00    +0.000 C 
ATOM     12  N   UNL     1       2.406   7.069  18.848  0.00  0.00    +0.000 NA
ATOM     13  C   UNL     1       2.043   5.648  18.732  0.00  0.00    +0.000 C 
ATOM     14  C   UNL     1       2.432   5.016  17.395  0.00  0.00    +0.000 C 
BRANCH  12  15
ATOM     15  C   UNL     1       2.136   7.520  20.235  0.00  0.00    +0.000 C 
BRANCH  15  16
ATOM     16  C   UNL     1       1.175   8.689  20.371  0.00  0.00    +0.000 A 
ATOM     17  C   UNL     1       0.705   9.374  19.239  0.00  0.00    +0.000 A 
ATOM     18  C   UNL     1      -0.239  10.404  19.363  0.00  0.00    +0.000 A 
ATOM     19  C   UNL     1      -0.757  11.146  18.167  0.00  0.00    +0.000 C 
ATOM     20  C   UNL     1      -0.718  10.749  20.633  0.00  0.00    +0.000 A 
ATOM     21  C   UNL     1      -0.273  10.074  21.774  0.00  0.00    +0.000 A 
ATOM     22  C   UNL     1      -0.839  10.414  23.122  0.00  0.00    +0.000 C 
ATOM     23  C   UNL     1       0.674   9.051  21.635  0.00  0.00    +0.000 A 
ENDBRANCH  15  16
ENDBRANCH  12  15
ENDBRANCH   5   9
BRANCH   1  24
ATOM     24  C   UNL     1       4.318   2.441  20.918  0.00  0.00    +0.000 C 
BRANCH  24  25
ATOM     25  C   UNL     1       2.869   2.286  21.393  0.00  0.00    +0.000 C 
BRANCH  25  27
ATOM     26  C   UNL     1       0.953   3.523  20.795  0.00  0.00    +0.000 C 
ATOM     27  O   UNL     1       2.232   3.567  21.411  0.00  0.00    +0.000 OA
ENDBRANCH  25  27
ENDBRANCH  24  25
ENDBRANCH   1  24
BRANCH   5  28
ATOM     28  C   UNL     1       6.412   4.420  17.136  0.00  0.00    +0.000 C 
BRANCH  28  29
ATOM     29  C   UNL     1       6.604   4.409  15.629  0.00  0.00    +0.000 A 
ATOM     30  C   UNL     1       7.526   5.266  15.006  0.00  0.00    +0.000 A 
ATOM     31  C   UNL     1       7.652   5.289  13.616  0.00  0.00    +0.000 A 
ATOM     32  C   UNL     1       6.875   4.437  12.844  0.00  0.00    +0.000 A 
ATOM     33  F   UNL     1       6.994   4.464  11.509  0.00  0.00    +0.000 F 
ATOM     34  C   UNL     1       5.978   3.558  13.436  0.00  0.00    +0.000 A 
ATOM     35  C   UNL     1       5.841   3.545  14.826  0.00  0.00    +0.000 A 
ENDBRANCH  28  29
ENDBRANCH   5  28
TORSDOF 8
ENDMDL
MODEL 5
REMARK VINA RESULT:      -8.5      2.214      4.014
REMARK  Name = 
REMARK  11 active torsions:
REMARK  status: ('A' for Active; 'I' for Inactive)
REMARK    1  A    between atoms: C_1  and  O_2
REMARK    2  A    between atoms: O_2  and  C_3
REMARK    3  A    between atoms: C_3  and  C_4
REMARK    4  A    between atoms: C_4  and  N_5
REMARK    5  A    between atoms: C_9  and  C_10
REMARK    6  A    between atoms: C_9  and  C_18
REMARK    7  A    between atoms: C_10  and  C_11
REMARK    8  A    between atoms: N_21  and  C_22
REMARK    9  A    between atoms: C_22  and  C_23
REMARK   10  A    between atoms: C_25  and  C_26
REMARK   11  A    between atoms: C_28  and  C_29
REMARK                            x       y       z     vdW  Elec       q    Type
REMARK                         _______ _______ _______ _____ _____    ______ ____
ROOT
ATOM      1  N   UNL     1       4.440   2.909  19.537  0.00  0.00    +0.000 N 
ATOM      2  C   UNL     1       4.162   2.137  18.457  0.00  0.00    +0.000 C 
ATOM      3  O   UNL     1       3.708   1.005  18.449  0.00  0.00    +0.000 OA
ATOM      4  N   UNL     1       4.507   2.827  17.329  0.00  0.00    +0.000 N 
ATOM      5  C   UNL     1       4.956   4.192  17.594  0.00  0.00    +0.000 C 
ATOM      6  C   UNL     1       5.000   4.090  19.143  0.00  0.00    +0.000 C 
ATOM      7  O   UNL     1       5.471   4.946  19.887  0.00  0.00    +0.000 OA
ATOM      8  H   UNL     1       4.449   2.396  16.414  0.00  0.00    +0.000 HD
ENDROOT
BRANCH   5   9
ATOM      9  C   UNL     1       3.903   5.195  17.011  0.00  0.00    +0.000 C 
ATOM     10  C   UNL     1       4.210   6.693  17.159  0.00  0.00    +0.000 C 
ATOM     11  C   UNL     1       3.825   7.297  18.509  0.00  0.00    +0.000 C 
ATOM     12  N   UNL     1       2.432   7.031  18.892  0.00  0.00    +0.000 NA
ATOM     13  C   UNL     1       2.070   5.610  18.777  0.00  0.00    +0.000 C 
ATOM     14  C   UNL     1       2.433   4.985  17.429  0.00  0.00    +0.000 C 
BRANCH  12  15
ATOM     15  C   UNL     1       2.190   7.476  20.287  0.00  0.00    +0.000 C 
BRANCH  15  16
ATOM     16  C   UNL     1       1.182   8.601  20.453  0.00  0.00    +0.000 A 
ATOM     17  C   UNL     1       0.623   8.893  21.707  0.00  0.00    +0.000 A 
ATOM     18  C   UNL     1      -0.249   9.978  21.869  0.00  0.00    +0.000 A 
ATOM     19  C   UNL     1      -0.854  10.309  23.202  0.00  0.00    +0.000 C 
ATOM     20  C   UNL     1      -0.562  10.781  20.766  0.00  0.00    +0.000 A 
ATOM     21  C   UNL     1      -0.010  10.517  19.509  0.00  0.00    +0.000 A 
ATOM     22  C   UNL     1      -0.307  11.420  18.347  0.00  0.00    +0.000 C 
ATOM     23  C   UNL     1       0.856   9.425  19.360  0.00  0.00    +0.000 A 
ENDBRANCH  15  16
ENDBRANCH  12  15
ENDBRANCH   5   9
BRANCH   1  24
ATOM     24  C   UNL     1       4.403   2.403  20.902  0.00  0.00    +0.000 C 
BRANCH  24  25
ATOM     25  C   UNL     1       2.973   2.063  21.341  0.00  0.00    +0.000 C 
BRANCH  25  27
ATOM     26  C   UNL     1       1.254   3.669  21.193  0.00  0.00    +0.000 C 
ATOM     27  O   UNL     1       2.372   3.213  21.942  0.00  0.00    +0.000 OA
ENDBRANCH  25  27
ENDBRANCH  24  25
ENDBRANCH   1  24
BRANCH   5  28
ATOM     28  C   UNL     1       6.409   4.401  17.082  0.00  0.00    +0.000 C 
BRANCH  28  29
ATOM     29  C   UNL     1       6.560   4.442  15.570  0.00  0.00    +0.000 A 
ATOM     30  C   UNL     1       5.781   3.622  14.738  0.00  0.00    +0.000 A 
ATOM     31  C   UNL     1       5.970   3.625  13.355  0.00  0.00    +0.000 A 
ATOM     32  C   UNL     1       6.920   4.467  12.796  0.00  0.00    +0.000 A 
ATOM     33  F   UNL     1       7.104   4.466  11.467  0.00  0.00    +0.000 F 
ATOM     34  C   UNL     1       7.682   5.311  13.593  0.00  0.00    +0.000 A 
ATOM     35  C   UNL     1       7.504   5.298  14.979  0.00  0.00    +0.000 A 
ENDBRANCH  28  29
ENDBRANCH   5  28
TORSDOF 8
ENDMDL
MODEL 6
REMARK VINA RESULT:      -8.4      2.569      4.515
REMARK  Name = 
REMARK  11 active torsions:
REMARK  status: ('A' for Active; 'I' for Inactive)
REMARK    1  A    between atoms: C_1  and  O_2
REMARK    2  A    between atoms: O_2  and  C_3
REMARK    3  A    between atoms: C_3  and  C_4
REMARK    4  A    between atoms: C_4  and  N_5
REMARK    5  A    between atoms: C_9  and  C_10
REMARK    6  A    between atoms: C_9  and  C_18
REMARK    7  A    between atoms: C_10  and  C_11
REMARK    8  A    between atoms: N_21  and  C_22
REMARK    9  A    between atoms: C_22  and  C_23
REMARK   10  A    between atoms: C_25  and  C_26
REMARK   11  A    between atoms: C_28  and  C_29
REMARK                            x       y       z     vdW  Elec       q    Type
REMARK                         _______ _______ _______ _____ _____    ______ ____
ROOT
ATOM      1  N   UNL     1       2.943   3.154  18.512  0.00  0.00    +0.000 N 
ATOM      2  C   UNL     1       2.654   3.759  17.333  0.00  0.00    +0.000 C 
ATOM      3  O   UNL     1       1.597   3.741  16.727  0.00  0.00    +0.000 OA
ATOM      4  N   UNL     1       3.778   4.396  16.884  0.00  0.00    +0.000 N 
ATOM      5  C   UNL     1       4.896   4.339  17.824  0.00  0.00    +0.000 C 
ATOM      6  C   UNL     1       4.256   3.351  18.836  0.00  0.00    +0.000 C 
ATOM      7  O   UNL     1       4.849   2.831  19.777  0.00  0.00    +0.000 OA
ATOM      8  H   UNL     1       3.796   4.848  15.978  0.00  0.00    +0.000 HD
ENDROOT
BRANCH   5   9
ATOM      9  C   UNL     1       5.174   5.781  18.370  0.00  0.00    +0.000 C 
ATOM     10  C   UNL     1       4.336   6.247  19.569  0.00  0.00    +0.000 C 
ATOM     11  C   UNL     1       2.958   6.802  19.213  0.00  0.00    +0.000 C 
ATOM     12  N   UNL     1       3.000   7.858  18.193  0.00  0.00    +0.000 NA
ATOM     13  C   UNL     1       3.786   7.476  17.009  0.00  0.00    +0.000 C 
ATOM     14  C   UNL     1       5.175   6.929  17.339  0.00  0.00    +0.000 C 
BRANCH  12  15
ATOM     15  C   UNL     1       1.624   8.208  17.761  0.00  0.00    +0.000 C 
BRANCH  15  16
ATOM     16  C   UNL     1       1.149   9.600  18.144  0.00  0.00    +0.000 A 
ATOM     17  C   UNL     1       2.055  10.664  18.272  0.00  0.00    +0.000 A 
ATOM     18  C   UNL     1       1.604  11.962  18.554  0.00  0.00    +0.000 A 
ATOM     19  C   UNL     1       2.555  13.113  18.691  0.00  0.00    +0.000 C 
ATOM     20  C   UNL     1       0.232  12.195  18.705  0.00  0.00    +0.000 A 
ATOM     21  C   UNL     1      -0.691  11.154  18.572  0.00  0.00    +0.000 A 
ATOM     22  C   UNL     1      -2.163  11.429  18.679  0.00  0.00    +0.000 C 
ATOM     23  C   UNL     1      -0.225   9.861  18.297  0.00  0.00    +0.000 A 
ENDBRANCH  15  16
ENDBRANCH  12  15
ENDBRANCH   5   9
BRANCH   1  24
ATOM     24  C   UNL     1       2.044   2.207  19.156  0.00  0.00    +0.000 C 
BRANCH  24  25
ATOM     25  C   UNL     1       0.822   2.908  19.760  0.00  0.00    +0.000 C 
BRANCH  25  27
ATOM     26  C   UNL     1       1.938   2.774  21.832  0.00  0.00    +0.000 C 
ATOM     27  O   UNL     1       1.209   3.610  20.944  0.00  0.00    +0.000 OA
ENDBRANCH  25  27
ENDBRANCH  24  25
ENDBRANCH   1  24
BRANCH   5  28
ATOM     28  C   UNL     1       6.122   3.640  17.175  0.00  0.00    +0.000 C 
BRANCH  28  29
ATOM     29  C   UNL     1       6.368   3.989  15.717  0.00  0.00    +0.000 A 
ATOM     30  C   UNL     1       5.644   3.365  14.687  0.00  0.00    +0.000 A 
ATOM     31  C   UNL     1       5.919   3.651  13.348  0.00  0.00    +0.000 A 
ATOM     32  C   UNL     1       6.899   4.581  13.034  0.00  0.00    +0.000 A 
ATOM     33  F   UNL     1       7.165   4.851  11.748  0.00  0.00    +0.000 F 
ATOM     34  C   UNL     1       7.607   5.235  14.033  0.00  0.00    +0.000 A 
ATOM     35  C   UNL     1       7.344   4.939  15.373  0.00  0.00    +0.000 A 
ENDBRANCH  28  29
ENDBRANCH   5  28
TORSDOF 8
ENDMDL
MODEL 7
REMARK VINA RESULT:      -8.3      3.463      8.077
REMARK  Name = 
REMARK  11 active torsions:
REMARK  status: ('A' for Active; 'I' for Inactive)
REMARK    1  A    between atoms: C_1  and  O_2
REMARK    2  A    between atoms: O_2  and  C_3
REMARK    3  A    between atoms: C_3  and  C_4
REMARK    4  A    between atoms: C_4  and  N_5
REMARK    5  A    between atoms: C_9  and  C_10
REMARK    6  A    between atoms: C_9  and  C_18
REMARK    7  A    between atoms: C_10  and  C_11
REMARK    8  A    between atoms: N_21  and  C_22
REMARK    9  A    between atoms: C_22  and  C_23
REMARK   10  A    between atoms: C_25  and  C_26
REMARK   11  A    between atoms: C_28  and  C_29
REMARK                            x       y       z     vdW  Elec       q    Type
REMARK                         _______ _______ _______ _____ _____    ______ ____
ROOT
ATOM      1  N   UNL     1       2.349   3.949  19.477  0.00  0.00    +0.000 N 
ATOM      2  C   UNL     1       2.347   4.732  20.584  0.00  0.00    +0.000 C 
ATOM      3  O   UNL     1       2.223   4.379  21.745  0.00  0.00    +0.000 OA
ATOM      4  N   UNL     1       2.478   6.036  20.196  0.00  0.00    +0.000 N 
ATOM      5  C   UNL     1       2.689   6.197  18.758  0.00  0.00    +0.000 C 
ATOM      6  C   UNL     1       2.444   4.719  18.353  0.00  0.00    +0.000 C 
ATOM      7  O   UNL     1       2.351   4.317  17.197  0.00  0.00    +0.000 OA
ATOM      8  H   UNL     1       2.424   6.791  20.868  0.00  0.00    +0.000 HD
ENDROOT
BRANCH   5   9
ATOM      9  C   UNL     1       4.140   6.735  18.515  0.00  0.00    +0.000 C 
ATOM     10  C   UNL     1       4.530   7.061  17.066  0.00  0.00    +0.000 C 
ATOM     11  C   UNL     1       4.990   5.861  16.239  0.00  0.00    +0.000 C 
ATOM     12  N   UNL     1       6.058   5.085  16.881  0.00  0.00    +0.000 NA
ATOM     13  C   UNL     1       5.748   4.734  18.275  0.00  0.00    +0.000 C 
ATOM     14  C   UNL     1       5.298   5.921  19.128  0.00  0.00    +0.000 C 
BRANCH  12  15
ATOM     15  C   UNL     1       6.315   3.838  16.119  0.00  0.00    +0.000 C 
BRANCH  15  16
ATOM     16  C   UNL     1       6.483   4.007  14.618  0.00  0.00    +0.000 A 
ATOM     17  C   UNL     1       5.623   3.360  13.716  0.00  0.00    +0.000 A 
ATOM     18  C   UNL     1       5.735   3.577  12.336  0.00  0.00    +0.000 A 
ATOM     19  C   UNL     1       4.824   2.899  11.355  0.00  0.00    +0.000 C 
ATOM     20  C   UNL     1       6.715   4.453  11.854  0.00  0.00    +0.000 A 
ATOM     21  C   UNL     1       7.576   5.118  12.733  0.00  0.00    +0.000 A 
ATOM     22  C   UNL     1       8.583   6.099  12.208  0.00  0.00    +0.000 C 
ATOM     23  C   UNL     1       7.457   4.886  14.110  0.00  0.00    +0.000 A 
ENDBRANCH  15  16
ENDBRANCH  12  15
ENDBRANCH   5   9
BRANCH   1  24
ATOM     24  C   UNL     1       2.008   2.534  19.508  0.00  0.00    +0.000 C 
BRANCH  24  25
ATOM     25  C   UNL     1       3.043   1.684  18.761  0.00  0.00    +0.000 C 
BRANCH  25  27
ATOM     26  C   UNL     1       4.457   1.756  20.646  0.00  0.00    +0.000 C 
ATOM     27  O   UNL     1       4.353   1.989  19.248  0.00  0.00    +0.000 OA
ENDBRANCH  25  27
ENDBRANCH  24  25
ENDBRANCH   1  24
BRANCH   5  28
ATOM     28  C   UNL     1       1.560   7.063  18.133  0.00  0.00    +0.000 C 
BRANCH  28  29
ATOM     29  C   UNL     1       1.490   8.495  18.637  0.00  0.00    +0.000 A 
ATOM     30  C   UNL     1       0.970   8.796  19.906  0.00  0.00    +0.000 A 
ATOM     31  C   UNL     1       0.856  10.119  20.335  0.00  0.00    +0.000 A 
ATOM     32  C   UNL     1       1.287  11.147  19.508  0.00  0.00    +0.000 A 
ATOM     33  F   UNL     1       1.174  12.418  19.919  0.00  0.00    +0.000 F 
ATOM     34  C   UNL     1       1.835  10.875  18.261  0.00  0.00    +0.000 A 
ATOM     35  C   UNL     1       1.935   9.551  17.824  0.00  0.00    +0.000 A 
ENDBRANCH  28  29
ENDBRANCH   5  28
TORSDOF 8
ENDMDL
MODEL 8
REMARK VINA RESULT:      -8.3      5.972     10.783
REMARK  Name = 
REMARK  11 active torsions:
REMARK  status: ('A' for Active; 'I' for Inactive)
REMARK    1  A    between atoms: C_1  and  O_2
REMARK    2  A    between atoms: O_2  and  C_3
REMARK    3  A    between atoms: C_3  and  C_4
REMARK    4  A    between atoms: C_4  and  N_5
REMARK    5  A    between atoms: C_9  and  C_10
REMARK    6  A    between atoms: C_9  and  C_18
REMARK    7  A    between atoms: C_10  and  C_11
REMARK    8  A    between atoms: N_21  and  C_22
REMARK    9  A    between atoms: C_22  and  C_23
REMARK   10  A    between atoms: C_25  and  C_26
REMARK   11  A    between atoms: C_28  and  C_29
REMARK                            x       y       z     vdW  Elec       q    Type
REMARK                         _______ _______ _______ _____ _____    ______ ____
ROOT
ATOM      1  N   UNL     1       0.873  13.405  19.828  0.00  0.00    +0.000 N 
ATOM      2  C   UNL     1      -0.425  13.778  19.707  0.00  0.00    +0.000 C 
ATOM      3  O   UNL     1      -0.872  14.732  19.093  0.00  0.00    +0.000 OA
ATOM      4  N   UNL     1      -1.196  12.911  20.430  0.00  0.00    +0.000 N 
ATOM      5  C   UNL     1      -0.440  11.805  21.013  0.00  0.00    +0.000 C 
ATOM      6  C   UNL     1       0.979  12.321  20.653  0.00  0.00    +0.000 C 
ATOM      7  O   UNL     1       2.027  11.824  21.054  0.00  0.00    +0.000 OA
ATOM      8  H   UNL     1      -2.193  13.058  20.534  0.00  0.00    +0.000 HD
ENDROOT
BRANCH   5   9
ATOM      9  C   UNL     1      -0.873  10.470  20.316  0.00  0.00    +0.000 C 
ATOM     10  C   UNL     1      -0.255   9.170  20.852  0.00  0.00    +0.000 C 
ATOM     11  C   UNL     1       1.132   8.842  20.300  0.00  0.00    +0.000 C 
ATOM     12  N   UNL     1       1.194   8.857  18.833  0.00  0.00    +0.000 NA
ATOM     13  C   UNL     1       0.621  10.080  18.250  0.00  0.00    +0.000 C 
ATOM     14  C   UNL     1      -0.773  10.423  18.777  0.00  0.00    +0.000 C 
BRANCH  12  15
ATOM     15  C   UNL     1       2.600   8.723  18.378  0.00  0.00    +0.000 C 
BRANCH  15  16
ATOM     16  C   UNL     1       3.013   7.335  17.918  0.00  0.00    +0.000 A 
ATOM     17  C   UNL     1       4.245   7.121  17.280  0.00  0.00    +0.000 A 
ATOM     18  C   UNL     1       4.655   5.828  16.924  0.00  0.00    +0.000 A 
ATOM     19  C   UNL     1       5.969   5.577  16.245  0.00  0.00    +0.000 C 
ATOM     20  C   UNL     1       3.824   4.739  17.214  0.00  0.00    +0.000 A 
ATOM     21  C   UNL     1       2.597   4.925  17.859  0.00  0.00    +0.000 A 
ATOM     22  C   UNL     1       1.744   3.744  18.216  0.00  0.00    +0.000 C 
ATOM     23  C   UNL     1       2.199   6.224  18.203  0.00  0.00    +0.000 A 
ENDBRANCH  15  16
ENDBRANCH  12  15
ENDBRANCH   5   9
BRANCH   1  24
ATOM     24  C   UNL     1       1.979  14.233  19.370  0.00  0.00    +0.000 C 
BRANCH  24  25
ATOM     25  C   UNL     1       2.637  13.655  18.112  0.00  0.00    +0.000 C 
BRANCH  25  27
ATOM     26  C   UNL     1       4.336  15.062  18.943  0.00  0.00    +0.000 C 
ATOM     27  O   UNL     1       4.040  13.932  18.135  0.00  0.00    +0.000 OA
ENDBRANCH  25  27
ENDBRANCH  24  25
ENDBRANCH   1  24
BRANCH   5  28
ATOM     28  C   UNL     1      -0.575  11.804  22.562  0.00  0.00    +0.000 C 
BRANCH  28  29
ATOM     29  C   UNL     1      -1.677  12.693  23.114  0.00  0.00    +0.000 A 
ATOM     30  C   UNL     1      -3.001  12.236  23.208  0.00  0.00    +0.000 A 
ATOM     31  C   UNL     1      -4.016  13.081  23.662  0.00  0.00    +0.000 A 
ATOM     32  C   UNL     1      -3.707  14.377  24.048  0.00  0.00    +0.000 A 
ATOM     33  F   UNL     1      -4.683  15.188  24.480  0.00  0.00    +0.000 F 
ATOM     34  C   UNL     1      -2.400  14.843  23.995  0.00  0.00    +0.000 A 
ATOM     35  C   UNL     1      -1.386  14.004  23.527  0.00  0.00    +0.000 A 
ENDBRANCH  28  29
ENDBRANCH   5  28
TORSDOF 8
ENDMDL
MODEL 9
REMARK VINA RESULT:      -8.2      6.130     10.965
REMARK  Name = 
REMARK  11 active torsions:
REMARK  status: ('A' for Active; 'I' for Inactive)
REMARK    1  A    between atoms: C_1  and  O_2
REMARK    2  A    between atoms: O_2  and  C_3
REMARK    3  A    between atoms: C_3  and  C_4
REMARK    4  A    between atoms: C_4  and  N_5
REMARK    5  A    between atoms: C_9  and  C_10
REMARK    6  A    between atoms: C_9  and  C_18
REMARK    7  A    between atoms: C_10  and  C_11
REMARK    8  A    between atoms: N_21  and  C_22
REMARK    9  A    between atoms: C_22  and  C_23
REMARK   10  A    between atoms: C_25  and  C_26
REMARK   11  A    between atoms: C_28  and  C_29
REMARK                            x       y       z     vdW  Elec       q    Type
REMARK                         _______ _______ _______ _____ _____    ______ ____
ROOT
ATOM      1  N   UNL     1       1.037  13.367  19.708  0.00  0.00    +0.000 N 
ATOM      2  C   UNL     1      -0.246  13.777  19.551  0.00  0.00    +0.000 C 
ATOM      3  O   UNL     1      -0.654  14.699  18.865  0.00  0.00    +0.000 OA
ATOM      4  N   UNL     1      -1.051  12.993  20.329  0.00  0.00    +0.000 N 
ATOM      5  C   UNL     1      -0.338  11.906  20.997  0.00  0.00    +0.000 C 
ATOM      6  C   UNL     1       1.100  12.343  20.610  0.00  0.00    +0.000 C 
ATOM      7  O   UNL     1       2.128  11.839  21.054  0.00  0.00    +0.000 OA
ATOM      8  H   UNL     1      -2.043  13.183  20.415  0.00  0.00    +0.000 HD
ENDROOT
BRANCH   5   9
ATOM      9  C   UNL     1      -0.817  10.541  20.395  0.00  0.00    +0.000 C 
ATOM     10  C   UNL     1      -0.150   9.268  20.938  0.00  0.00    +0.000 C 
ATOM     11  C   UNL     1       1.190   8.919  20.292  0.00  0.00    +0.000 C 
ATOM     12  N   UNL     1       1.136   8.869  18.825  0.00  0.00    +0.000 NA
ATOM     13  C   UNL     1       0.510  10.063  18.236  0.00  0.00    +0.000 C 
ATOM     14  C   UNL     1      -0.840  10.426  18.857  0.00  0.00    +0.000 C 
BRANCH  12  15
ATOM     15  C   UNL     1       2.502   8.719  18.266  0.00  0.00    +0.000 C 
BRANCH  15  16
ATOM     16  C   UNL     1       2.937   7.295  17.964  0.00  0.00    +0.000 A 
ATOM     17  C   UNL     1       2.090   6.208  18.232  0.00  0.00    +0.000 A 
ATOM     18  C   UNL     1       2.465   4.902  17.885  0.00  0.00    +0.000 A 
ATOM     19  C   UNL     1       1.573   3.728  18.158  0.00  0.00    +0.000 C 
ATOM     20  C   UNL     1       3.698   4.684  17.259  0.00  0.00    +0.000 A 
ATOM     21  C   UNL     1       4.555   5.751  16.973  0.00  0.00    +0.000 A 
ATOM     22  C   UNL     1       5.848   5.511  16.250  0.00  0.00    +0.000 C 
ATOM     23  C   UNL     1       4.169   7.050  17.332  0.00  0.00    +0.000 A 
ENDBRANCH  15  16
ENDBRANCH  12  15
ENDBRANCH   5   9
BRANCH   1  24
ATOM     24  C   UNL     1       2.175  14.119  19.198  0.00  0.00    +0.000 C 
BRANCH  24  25
ATOM     25  C   UNL     1       2.588  15.242  20.158  0.00  0.00    +0.000 C 
BRANCH  25  27
ATOM     26  C   UNL     1       2.330  16.567  18.225  0.00  0.00    +0.000 C 
ATOM     27  O   UNL     1       3.088  16.352  19.407  0.00  0.00    +0.000 OA
ENDBRANCH  25  27
ENDBRANCH  24  25
ENDBRANCH   1  24
BRANCH   5  28
ATOM     28  C   UNL     1      -0.480  12.024  22.540  0.00  0.00    +0.000 C 
BRANCH  28  29
ATOM     29  C   UNL     1      -1.698  12.796  23.020  0.00  0.00    +0.000 A 
ATOM     30  C   UNL     1      -2.981  12.229  22.982  0.00  0.00    +0.000 A 
ATOM     31  C   UNL     1      -4.100  12.968  23.370  0.00  0.00    +0.000 A 
ATOM     32  C   UNL     1      -3.937  14.270  23.822  0.00  0.00    +0.000 A 
ATOM     33  F   UNL     1      -5.013  14.981  24.190  0.00  0.00    +0.000 F 
ATOM     34  C   UNL     1      -2.676  14.844  23.899  0.00  0.00    +0.000 A 
ATOM     35  C   UNL     1      -1.556  14.110  23.497  0.00  0.00    +0.000 A 
ENDBRANCH  28  29
ENDBRANCH   5  28
TORSDOF 8
ENDMDL
