MODEL 1
REMARK VINA RESULT:      -8.2      0.000      0.000
REMARK  Name = 
REMARK  9 active torsions:
REMARK  status: ('A' for Active; 'I' for Inactive)
REMARK    1  A    between atoms: C_1  and  C_2
REMARK    2  A    between atoms: C_6  and  C_7
REMARK    3  A    between atoms: N_9  and  C_10
REMARK    4  A    between atoms: C_10  and  N_12
REMARK    5  A    between atoms: N_12  and  C_13
REMARK    6  A    between atoms: C_13  and  C_14
REMARK    7  A    between atoms: C_14  and  C_15
REMARK    8  A    between atoms: C_18  and  S_19
REMARK    9  A    between atoms: S_19  and  N_20
REMARK                            x       y       z     vdW  Elec       q    Type
REMARK                         _______ _______ _______ _____ _____    ______ ____
ROOT
ATOM      1  N   UNL     1       7.552   7.027  16.858  0.00  0.00    +0.000 N 
ATOM      2  H   UNL     1       7.746   7.860  16.282  0.00  0.00    +0.000 HD
ENDROOT
BRANCH   1   3
ATOM      3  C   UNL     1       7.923   7.057  18.241  0.00  0.00    +0.000 C 
ATOM      4 SE   UNL     1       7.372   5.704  19.222  0.00  0.00    +0.000 Se
BRANCH   3   7
ATOM      5  C   UNL     1       8.610   9.470  18.421  0.00  0.00    +0.000 C 
ATOM      6  O   UNL     1       7.796   9.813  17.575  0.00  0.00    +0.000 OA
ATOM      7  N   UNL     1       8.717   8.144  18.773  0.00  0.00    +0.000 N 
ATOM      8  H   UNL     1       9.414   7.892  19.477  0.00  0.00    +0.000 HD
BRANCH   5  14
ATOM      9  C   UNL     1      12.159  13.123  18.167  0.00  0.00    +0.000 C 
ATOM     10  C   UNL     1      11.166  12.315  18.954  0.00  0.00    +0.000 A 
ATOM     11  C   UNL     1      11.006  12.540  20.327  0.00  0.00    +0.000 A 
ATOM     12  C   UNL     1      10.085  11.791  21.054  0.00  0.00    +0.000 A 
ATOM     13  C   UNL     1       9.322  10.809  20.422  0.00  0.00    +0.000 A 
ATOM     14  C   UNL     1       9.459  10.551  19.039  0.00  0.00    +0.000 A 
ATOM     15  C   UNL     1      10.395  11.326  18.312  0.00  0.00    +0.000 A 
ENDBRANCH   5  14
ENDBRANCH   3   7
ENDBRANCH   1   3
BRANCH   1  16
ATOM     16  C   UNL     1       6.934   5.875  16.233  0.00  0.00    +0.000 C 
BRANCH  16  17
ATOM     17  C   UNL     1       5.451   6.137  15.904  0.00  0.00    +0.000 C 
BRANCH  17  18
ATOM     18  C   UNL     1       4.560   5.355  16.839  0.00  0.00    +0.000 A 
ATOM     19  C   UNL     1       3.784   6.026  17.801  0.00  0.00    +0.000 A 
ATOM     20  C   UNL     1       2.995   5.308  18.701  0.00  0.00    +0.000 A 
ATOM     21  C   UNL     1       2.964   3.910  18.653  0.00  0.00    +0.000 A 
ATOM     22  C   UNL     1       3.713   3.233  17.682  0.00  0.00    +0.000 A 
ATOM     23  C   UNL     1       4.505   3.951  16.777  0.00  0.00    +0.000 A 
BRANCH  21  24
ATOM     24  S   UNL     1       2.000   2.985  19.853  0.00  0.00    +0.000 S 
ATOM     25  O   UNL     1       1.636   1.583  19.344  0.00  0.00    +0.000 OA
ATOM     26  O   UNL     1       2.791   2.649  21.126  0.00  0.00    +0.000 OA
BRANCH  24  27
ATOM     27  N   UNL     1       0.478   3.666  20.433  0.00  0.00    +0.000 NA
ATOM     28  H   UNL     1      -0.105   3.904  19.601  0.00  0.00    +0.000 HD
ATOM     29  H   UNL     1       0.695   4.544  20.954  0.00  0.00    +0.000 HD
ENDBRANCH  24  27
ENDBRANCH  21  24
ENDBRANCH  17  18
ENDBRANCH  16  17
ENDBRANCH   1  16
TORSDOF 8
ENDMDL
MODEL 2
REMARK VINA RESULT:      -7.9      0.873      1.910
REMARK  Name = 
REMARK  9 active torsions:
REMARK  status: ('A' for Active; 'I' for Inactive)
REMARK    1  A    between atoms: C_1  and  C_2
REMARK    2  A    between atoms: C_6  and  C_7
REMARK    3  A    between atoms: N_9  and  C_10
REMARK    4  A    between atoms: C_10  and  N_12
REMARK    5  A    between atoms: N_12  and  C_13
REMARK    6  A    between atoms: C_13  and  C_14
REMARK    7  A    between atoms: C_14  and  C_15
REMARK    8  A    between atoms: C_18  and  S_19
REMARK    9  A    between atoms: S_19  and  N_20
REMARK                            x       y       z     vdW  Elec       q    Type
REMARK                         _______ _______ _______ _____ _____    ______ ____
ROOT
ATOM      1  N   UNL     1       7.303   7.178  17.061  0.00  0.00    +0.000 N 
ATOM      2  H   UNL     1       7.168   8.119  16.660  0.00  0.00    +0.000 HD
ENDROOT
BRANCH   1   3
ATOM      3  C   UNL     1       7.906   7.073  18.356  0.00  0.00    +0.000 C 
ATOM      4 SE   UNL     1       7.645   5.557  19.213  0.00  0.00    +0.000 Se
BRANCH   3   7
ATOM      5  C   UNL     1       8.619   9.479  18.514  0.00  0.00    +0.000 C 
ATOM      6  O   UNL     1       7.852   9.814  17.622  0.00  0.00    +0.000 OA
ATOM      7  N   UNL     1       8.688   8.161  18.901  0.00  0.00    +0.000 N 
ATOM      8  H   UNL     1       9.346   7.916  19.645  0.00  0.00    +0.000 HD
BRANCH   5  14
ATOM      9  C   UNL     1       9.593  12.835  22.229  0.00  0.00    +0.000 C 
ATOM     10  C   UNL     1       9.950  12.193  20.919  0.00  0.00    +0.000 A 
ATOM     11  C   UNL     1      11.094  12.603  20.222  0.00  0.00    +0.000 A 
ATOM     12  C   UNL     1      11.423  12.007  19.008  0.00  0.00    +0.000 A 
ATOM     13  C   UNL     1      10.615  11.002  18.477  0.00  0.00    +0.000 A 
ATOM     14  C   UNL     1       9.452  10.563  19.149  0.00  0.00    +0.000 A 
ATOM     15  C   UNL     1       9.133  11.176  20.386  0.00  0.00    +0.000 A 
ENDBRANCH   5  14
ENDBRANCH   3   7
ENDBRANCH   1   3
BRANCH   1  16
ATOM     16  C   UNL     1       6.894   6.024  16.287  0.00  0.00    +0.000 C 
BRANCH  16  17
ATOM     17  C   UNL     1       5.387   6.065  15.962  0.00  0.00    +0.000 C 
BRANCH  17  18
ATOM     18  C   UNL     1       4.598   5.376  17.051  0.00  0.00    +0.000 A 
ATOM     19  C   UNL     1       4.694   3.984  17.219  0.00  0.00    +0.000 A 
ATOM     20  C   UNL     1       3.931   3.333  18.191  0.00  0.00    +0.000 A 
ATOM     21  C   UNL     1       3.065   4.063  19.012  0.00  0.00    +0.000 A 
ATOM     22  C   UNL     1       2.981   5.454  18.869  0.00  0.00    +0.000 A 
ATOM     23  C   UNL     1       3.746   6.109  17.897  0.00  0.00    +0.000 A 
BRANCH  21  24
ATOM     24  S   UNL     1       2.036   3.217  20.217  0.00  0.00    +0.000 S 
ATOM     25  O   UNL     1       0.802   4.045  20.603  0.00  0.00    +0.000 OA
ATOM     26  O   UNL     1       1.384   1.944  19.659  0.00  0.00    +0.000 OA
BRANCH  24  27
ATOM     27  N   UNL     1       2.750   2.723  21.754  0.00  0.00    +0.000 NA
ATOM     28  H   UNL     1       3.769   2.562  21.597  0.00  0.00    +0.000 HD
ATOM     29  H   UNL     1       2.308   1.823  22.040  0.00  0.00    +0.000 HD
ENDBRANCH  24  27
ENDBRANCH  21  24
ENDBRANCH  17  18
ENDBRANCH  16  17
ENDBRANCH   1  16
TORSDOF 8
ENDMDL
MODEL 3
REMARK VINA RESULT:      -7.6      0.895      1.022
REMARK  Name = 
REMARK  9 active torsions:
REMARK  status: ('A' for Active; 'I' for Inactive)
REMARK    1  A    between atoms: C_1  and  C_2
REMARK    2  A    between atoms: C_6  and  C_7
REMARK    3  A    between atoms: N_9  and  C_10
REMARK    4  A    between atoms: C_10  and  N_12
REMARK    5  A    between atoms: N_12  and  C_13
REMARK    6  A    between atoms: C_13  and  C_14
REMARK    7  A    between atoms: C_14  and  C_15
REMARK    8  A    between atoms: C_18  and  S_19
REMARK    9  A    between atoms: S_19  and  N_20
REMARK                            x       y       z     vdW  Elec       q    Type
REMARK                         _______ _______ _______ _____ _____    ______ ____
ROOT
ATOM      1  N   UNL     1       7.676   6.608  16.884  0.00  0.00    +0.000 N 
ATOM      2  H   UNL     1       8.466   6.671  16.223  0.00  0.00    +0.000 HD
ENDROOT
BRANCH   1   3
ATOM      3  C   UNL     1       7.937   6.832  18.275  0.00  0.00    +0.000 C 
ATOM      4 SE   UNL     1       7.432   5.554  19.375  0.00  0.00    +0.000 Se
BRANCH   3   7
ATOM      5  C   UNL     1       8.415   9.300  18.188  0.00  0.00    +0.000 C 
ATOM      6  O   UNL     1       7.662   9.459  17.238  0.00  0.00    +0.000 OA
ATOM      7  N   UNL     1       8.590   8.044  18.722  0.00  0.00    +0.000 N 
ATOM      8  H   UNL     1       9.233   7.946  19.510  0.00  0.00    +0.000 HD
BRANCH   5  14
ATOM      9  C   UNL     1      10.457  13.941  17.640  0.00  0.00    +0.000 C 
ATOM     10  C   UNL     1      10.110  12.757  18.496  0.00  0.00    +0.000 A 
ATOM     11  C   UNL     1      10.449  12.747  19.856  0.00  0.00    +0.000 A 
ATOM     12  C   UNL     1      10.127  11.648  20.647  0.00  0.00    +0.000 A 
ATOM     13  C   UNL     1       9.471  10.550  20.093  0.00  0.00    +0.000 A 
ATOM     14  C   UNL     1       9.115  10.522  18.725  0.00  0.00    +0.000 A 
ATOM     15  C   UNL     1       9.445  11.650  17.934  0.00  0.00    +0.000 A 
ENDBRANCH   5  14
ENDBRANCH   3   7
ENDBRANCH   1   3
BRANCH   1  16
ATOM     16  C   UNL     1       6.362   6.280  16.372  0.00  0.00    +0.000 C 
BRANCH  16  17
ATOM     17  C   UNL     1       5.248   6.951  17.199  0.00  0.00    +0.000 C 
BRANCH  17  18
ATOM     18  C   UNL     1       4.263   5.917  17.689  0.00  0.00    +0.000 A 
ATOM     19  C   UNL     1       3.314   6.255  18.670  0.00  0.00    +0.000 A 
ATOM     20  C   UNL     1       2.431   5.292  19.164  0.00  0.00    +0.000 A 
ATOM     21  C   UNL     1       2.479   3.979  18.683  0.00  0.00    +0.000 A 
ATOM     22  C   UNL     1       3.404   3.639  17.687  0.00  0.00    +0.000 A 
ATOM     23  C   UNL     1       4.289   4.603  17.189  0.00  0.00    +0.000 A 
BRANCH  21  24
ATOM     24  S   UNL     1       1.388   2.727  19.365  0.00  0.00    +0.000 S 
ATOM     25  O   UNL     1       0.138   2.517  18.499  0.00  0.00    +0.000 OA
ATOM     26  O   UNL     1       2.006   1.321  19.349  0.00  0.00    +0.000 OA
BRANCH  24  27
ATOM     27  N   UNL     1       0.773   2.932  21.007  0.00  0.00    +0.000 NA
ATOM     28  H   UNL     1       1.588   3.106  21.636  0.00  0.00    +0.000 HD
ATOM     29  H   UNL     1       0.313   2.040  21.293  0.00  0.00    +0.000 HD
ENDBRANCH  24  27
ENDBRANCH  21  24
ENDBRANCH  17  18
ENDBRANCH  16  17
ENDBRANCH   1  16
TORSDOF 8
ENDMDL
MODEL 4
REMARK VINA RESULT:      -7.5      0.564      1.460
REMARK  Name = 
REMARK  9 active torsions:
REMARK  status: ('A' for Active; 'I' for Inactive)
REMARK    1  A    between atoms: C_1  and  C_2
REMARK    2  A    between atoms: C_6  and  C_7
REMARK    3  A    between atoms: N_9  and  C_10
REMARK    4  A    between atoms: C_10  and  N_12
REMARK    5  A    between atoms: N_12  and  C_13
REMARK    6  A    between atoms: C_13  and  C_14
REMARK    7  A    between atoms: C_14  and  C_15
REMARK    8  A    between atoms: C_18  and  S_19
REMARK    9  A    between atoms: S_19  and  N_20
REMARK                            x       y       z     vdW  Elec       q    Type
REMARK                         _______ _______ _______ _____ _____    ______ ____
ROOT
ATOM      1  N   UNL     1       7.406   7.340  17.050  0.00  0.00    +0.000 N 
ATOM      2  H   UNL     1       8.053   7.386  16.248  0.00  0.00    +0.000 HD
ENDROOT
BRANCH   1   3
ATOM      3  C   UNL     1       7.962   7.197  18.363  0.00  0.00    +0.000 C 
ATOM      4 SE   UNL     1       7.695   5.647  19.153  0.00  0.00    +0.000 Se
BRANCH   3   7
ATOM      5  C   UNL     1       8.712   9.589  18.564  0.00  0.00    +0.000 C 
ATOM      6  O   UNL     1       8.059   9.925  17.587  0.00  0.00    +0.000 OA
ATOM      7  N   UNL     1       8.706   8.276  18.976  0.00  0.00    +0.000 N 
ATOM      8  H   UNL     1       9.270   8.029  19.792  0.00  0.00    +0.000 HD
BRANCH   5  14
ATOM      9  C   UNL     1       9.472  12.812  22.442  0.00  0.00    +0.000 C 
ATOM     10  C   UNL     1       9.892  12.231  21.122  0.00  0.00    +0.000 A 
ATOM     11  C   UNL     1      11.050  12.694  20.485  0.00  0.00    +0.000 A 
ATOM     12  C   UNL     1      11.437  12.155  19.262  0.00  0.00    +0.000 A 
ATOM     13  C   UNL     1      10.673  11.155  18.661  0.00  0.00    +0.000 A 
ATOM     14  C   UNL     1       9.497  10.664  19.271  0.00  0.00    +0.000 A 
ATOM     15  C   UNL     1       9.119  11.219  20.519  0.00  0.00    +0.000 A 
ENDBRANCH   5  14
ENDBRANCH   3   7
ENDBRANCH   1   3
BRANCH   1  16
ATOM     16  C   UNL     1       5.980   7.406  16.802  0.00  0.00    +0.000 C 
BRANCH  16  17
ATOM     17  C   UNL     1       5.483   6.169  16.027  0.00  0.00    +0.000 C 
BRANCH  17  18
ATOM     18  C   UNL     1       4.578   5.332  16.900  0.00  0.00    +0.000 A 
ATOM     19  C   UNL     1       3.652   5.953  17.756  0.00  0.00    +0.000 A 
ATOM     20  C   UNL     1       2.845   5.188  18.601  0.00  0.00    +0.000 A 
ATOM     21  C   UNL     1       2.948   3.793  18.602  0.00  0.00    +0.000 A 
ATOM     22  C   UNL     1       3.850   3.164  17.735  0.00  0.00    +0.000 A 
ATOM     23  C   UNL     1       4.659   3.928  16.885  0.00  0.00    +0.000 A 
BRANCH  21  24
ATOM     24  S   UNL     1       1.958   2.815  19.737  0.00  0.00    +0.000 S 
ATOM     25  O   UNL     1       1.695   1.401  19.200  0.00  0.00    +0.000 OA
ATOM     26  O   UNL     1       2.685   2.507  21.055  0.00  0.00    +0.000 OA
BRANCH  24  27
ATOM     27  N   UNL     1       0.373   3.417  20.225  0.00  0.00    +0.000 NA
ATOM     28  H   UNL     1      -0.131   3.729  19.365  0.00  0.00    +0.000 HD
ATOM     29  H   UNL     1       0.519   4.242  20.847  0.00  0.00    +0.000 HD
ENDBRANCH  24  27
ENDBRANCH  21  24
ENDBRANCH  17  18
ENDBRANCH  16  17
ENDBRANCH   1  16
TORSDOF 8
ENDMDL
MODEL 5
REMARK VINA RESULT:      -7.4      5.767      7.924
REMARK  Name = 
REMARK  9 active torsions:
REMARK  status: ('A' for Active; 'I' for Inactive)
REMARK    1  A    between atoms: C_1  and  C_2
REMARK    2  A    between atoms: C_6  and  C_7
REMARK    3  A    between atoms: N_9  and  C_10
REMARK    4  A    between atoms: C_10  and  N_12
REMARK    5  A    between atoms: N_12  and  C_13
REMARK    6  A    between atoms: C_13  and  C_14
REMARK    7  A    between atoms: C_14  and  C_15
REMARK    8  A    between atoms: C_18  and  S_19
REMARK    9  A    between atoms: S_19  and  N_20
REMARK                            x       y       z     vdW  Elec       q    Type
REMARK                         _______ _______ _______ _____ _____    ______ ____
ROOT
ATOM      1  N   UNL     1       4.844   4.632  18.998  0.00  0.00    +0.000 N 
ATOM      2  H   UNL     1       5.829   4.810  19.251  0.00  0.00    +0.000 HD
ENDROOT
BRANCH   1   3
ATOM      3  C   UNL     1       4.559   3.542  18.114  0.00  0.00    +0.000 C 
ATOM      4 SE   UNL     1       3.731   2.162  18.826  0.00  0.00    +0.000 Se
BRANCH   3   7
ATOM      5  C   UNL     1       6.035   4.240  16.201  0.00  0.00    +0.000 C 
ATOM      6  O   UNL     1       6.797   4.838  16.947  0.00  0.00    +0.000 OA
ATOM      7  N   UNL     1       4.930   3.603  16.716  0.00  0.00    +0.000 N 
ATOM      8  H   UNL     1       4.309   3.120  16.063  0.00  0.00    +0.000 HD
BRANCH   5  14
ATOM      9  C   UNL     1       5.373   2.585  11.423  0.00  0.00    +0.000 C 
ATOM     10  C   UNL     1       6.078   3.462  12.418  0.00  0.00    +0.000 A 
ATOM     11  C   UNL     1       7.105   4.317  12.000  0.00  0.00    +0.000 A 
ATOM     12  C   UNL     1       7.757   5.128  12.924  0.00  0.00    +0.000 A 
ATOM     13  C   UNL     1       7.397   5.091  14.270  0.00  0.00    +0.000 A 
ATOM     14  C   UNL     1       6.368   4.239  14.731  0.00  0.00    +0.000 A 
ATOM     15  C   UNL     1       5.710   3.423  13.777  0.00  0.00    +0.000 A 
ENDBRANCH   5  14
ENDBRANCH   3   7
ENDBRANCH   1   3
BRANCH   1  16
ATOM     16  C   UNL     1       3.817   5.501  19.536  0.00  0.00    +0.000 C 
BRANCH  16  17
ATOM     17  C   UNL     1       2.898   6.046  18.425  0.00  0.00    +0.000 C 
BRANCH  17  18
ATOM     18  C   UNL     1       2.296   7.366  18.843  0.00  0.00    +0.000 A 
ATOM     19  C   UNL     1       1.874   7.560  20.170  0.00  0.00    +0.000 A 
ATOM     20  C   UNL     1       1.273   8.761  20.554  0.00  0.00    +0.000 A 
ATOM     21  C   UNL     1       1.087   9.787  19.620  0.00  0.00    +0.000 A 
ATOM     22  C   UNL     1       1.528   9.612  18.302  0.00  0.00    +0.000 A 
ATOM     23  C   UNL     1       2.132   8.410  17.915  0.00  0.00    +0.000 A 
BRANCH  21  24
ATOM     24  S   UNL     1       0.255  11.304  20.099  0.00  0.00    +0.000 S 
ATOM     25  O   UNL     1      -1.265  11.216  19.898  0.00  0.00    +0.000 OA
ATOM     26  O   UNL     1       0.345  11.587  21.606  0.00  0.00    +0.000 OA
BRANCH  24  27
ATOM     27  N   UNL     1       0.727  12.818  19.325  0.00  0.00    +0.000 NA
ATOM     28  H   UNL     1       0.018  13.542  19.576  0.00  0.00    +0.000 HD
ATOM     29  H   UNL     1       0.708  12.673  18.292  0.00  0.00    +0.000 HD
ENDBRANCH  24  27
ENDBRANCH  21  24
ENDBRANCH  17  18
ENDBRANCH  16  17
ENDBRANCH   1  16
TORSDOF 8
ENDMDL
MODEL 6
REMARK VINA RESULT:      -7.3      5.403      8.194
REMARK  Name = 
REMARK  9 active torsions:
REMARK  status: ('A' for Active; 'I' for Inactive)
REMARK    1  A    between atoms: C_1  and  C_2
REMARK    2  A    between atoms: C_6  and  C_7
REMARK    3  A    between atoms: N_9  and  C_10
REMARK    4  A    between atoms: C_10  and  N_12
REMARK    5  A    between atoms: N_12  and  C_13
REMARK    6  A    between atoms: C_13  and  C_14
REMARK    7  A    between atoms: C_14  and  C_15
REMARK    8  A    between atoms: C_18  and  S_19
REMARK    9  A    between atoms: S_19  and  N_20
REMARK                            x       y       z     vdW  Elec       q    Type
REMARK                         _______ _______ _______ _____ _____    ______ ____
ROOT
ATOM      1  N   UNL     1       1.468   5.088  20.449  0.00  0.00    +0.000 N 
ATOM      2  H   UNL     1       0.513   4.841  20.147  0.00  0.00    +0.000 HD
ENDROOT
BRANCH   1   3
ATOM      3  C   UNL     1       2.457   4.053  20.483  0.00  0.00    +0.000 C 
ATOM      4 SE   UNL     1       2.158   2.730  21.604  0.00  0.00    +0.000 Se
BRANCH   3   7
ATOM      5  C   UNL     1       3.611   4.243  18.256  0.00  0.00    +0.000 C 
ATOM      6  O   UNL     1       2.546   4.306  17.657  0.00  0.00    +0.000 OA
ATOM      7  N   UNL     1       3.622   4.111  19.625  0.00  0.00    +0.000 N 
ATOM      8  H   UNL     1       4.530   4.052  20.092  0.00  0.00    +0.000 HD
BRANCH   5  14
ATOM      9  C   UNL     1       6.137   3.969  13.834  0.00  0.00    +0.000 C 
ATOM     10  C   UNL     1       6.119   4.193  15.319  0.00  0.00    +0.000 A 
ATOM     11  C   UNL     1       7.309   4.474  16.003  0.00  0.00    +0.000 A 
ATOM     12  C   UNL     1       7.290   4.681  17.380  0.00  0.00    +0.000 A 
ATOM     13  C   UNL     1       6.090   4.605  18.086  0.00  0.00    +0.000 A 
ATOM     14  C   UNL     1       4.870   4.320  17.431  0.00  0.00    +0.000 A 
ATOM     15  C   UNL     1       4.905   4.117  16.030  0.00  0.00    +0.000 A 
ENDBRANCH   5  14
ENDBRANCH   3   7
ENDBRANCH   1   3
BRANCH   1  16
ATOM     16  C   UNL     1       1.746   6.456  20.836  0.00  0.00    +0.000 C 
BRANCH  16  17
ATOM     17  C   UNL     1       2.328   7.270  19.664  0.00  0.00    +0.000 C 
BRANCH  17  18
ATOM     18  C   UNL     1       1.506   8.515  19.430  0.00  0.00    +0.000 A 
ATOM     19  C   UNL     1       0.657   9.000  20.440  0.00  0.00    +0.000 A 
ATOM     20  C   UNL     1      -0.143  10.123  20.214  0.00  0.00    +0.000 A 
ATOM     21  C   UNL     1      -0.103  10.781  18.980  0.00  0.00    +0.000 A 
ATOM     22  C   UNL     1       0.759  10.320  17.977  0.00  0.00    +0.000 A 
ATOM     23  C   UNL     1       1.563   9.196  18.200  0.00  0.00    +0.000 A 
BRANCH  21  24
ATOM     24  S   UNL     1      -1.179  12.184  18.670  0.00  0.00    +0.000 S 
ATOM     25  O   UNL     1      -1.772  12.754  19.966  0.00  0.00    +0.000 OA
ATOM     26  O   UNL     1      -0.428  13.405  18.117  0.00  0.00    +0.000 OA
BRANCH  24  27
ATOM     27  N   UNL     1      -2.562  11.978  17.592  0.00  0.00    +0.000 NA
ATOM     28  H   UNL     1      -3.431  12.110  18.155  0.00  0.00    +0.000 HD
ATOM     29  H   UNL     1      -2.544  11.000  17.227  0.00  0.00    +0.000 HD
ENDBRANCH  24  27
ENDBRANCH  21  24
ENDBRANCH  17  18
ENDBRANCH  16  17
ENDBRANCH   1  16
TORSDOF 8
ENDMDL
MODEL 7
REMARK VINA RESULT:      -7.3      5.748      7.943
REMARK  Name = 
REMARK  9 active torsions:
REMARK  status: ('A' for Active; 'I' for Inactive)
REMARK    1  A    between atoms: C_1  and  C_2
REMARK    2  A    between atoms: C_6  and  C_7
REMARK    3  A    between atoms: N_9  and  C_10
REMARK    4  A    between atoms: C_10  and  N_12
REMARK    5  A    between atoms: N_12  and  C_13
REMARK    6  A    between atoms: C_13  and  C_14
REMARK    7  A    between atoms: C_14  and  C_15
REMARK    8  A    between atoms: C_18  and  S_19
REMARK    9  A    between atoms: S_19  and  N_20
REMARK                            x       y       z     vdW  Elec       q    Type
REMARK                         _______ _______ _______ _____ _____    ______ ____
ROOT
ATOM      1  N   UNL     1       4.963   4.338  18.901  0.00  0.00    +0.000 N 
ATOM      2  H   UNL     1       5.929   4.206  19.238  0.00  0.00    +0.000 HD
ENDROOT
BRANCH   1   3
ATOM      3  C   UNL     1       4.437   3.390  17.965  0.00  0.00    +0.000 C 
ATOM      4 SE   UNL     1       3.211   2.288  18.583  0.00  0.00    +0.000 Se
BRANCH   3   7
ATOM      5  C   UNL     1       5.613   4.359  15.964  0.00  0.00    +0.000 C 
ATOM      6  O   UNL     1       5.902   5.381  16.571  0.00  0.00    +0.000 OA
ATOM      7  N   UNL     1       4.896   3.368  16.593  0.00  0.00    +0.000 N 
ATOM      8  H   UNL     1       4.665   2.530  16.053  0.00  0.00    +0.000 HD
BRANCH   5  14
ATOM      9  C   UNL     1       5.246   2.515  11.224  0.00  0.00    +0.000 C 
ATOM     10  C   UNL     1       5.932   3.381  12.242  0.00  0.00    +0.000 A 
ATOM     11  C   UNL     1       7.064   4.125  11.886  0.00  0.00    +0.000 A 
ATOM     12  C   UNL     1       7.698   4.926  12.830  0.00  0.00    +0.000 A 
ATOM     13  C   UNL     1       7.215   4.990  14.136  0.00  0.00    +0.000 A 
ATOM     14  C   UNL     1       6.077   4.252  14.535  0.00  0.00    +0.000 A 
ATOM     15  C   UNL     1       5.440   3.445  13.560  0.00  0.00    +0.000 A 
ENDBRANCH   5  14
ENDBRANCH   3   7
ENDBRANCH   1   3
BRANCH   1  16
ATOM     16  C   UNL     1       4.207   5.478  19.378  0.00  0.00    +0.000 C 
BRANCH  16  17
ATOM     17  C   UNL     1       3.163   5.939  18.341  0.00  0.00    +0.000 C 
BRANCH  17  18
ATOM     18  C   UNL     1       2.411   7.144  18.855  0.00  0.00    +0.000 A 
ATOM     19  C   UNL     1       2.126   8.218  17.994  0.00  0.00    +0.000 A 
ATOM     20  C   UNL     1       1.474   9.356  18.472  0.00  0.00    +0.000 A 
ATOM     21  C   UNL     1       1.091   9.437  19.816  0.00  0.00    +0.000 A 
ATOM     22  C   UNL     1       1.348   8.361  20.675  0.00  0.00    +0.000 A 
ATOM     23  C   UNL     1       2.001   7.218  20.198  0.00  0.00    +0.000 A 
BRANCH  21  24
ATOM     24  S   UNL     1       0.311  10.927  20.445  0.00  0.00    +0.000 S 
ATOM     25  O   UNL     1       1.072  12.195  20.031  0.00  0.00    +0.000 OA
ATOM     26  O   UNL     1      -1.070  11.188  19.825  0.00  0.00    +0.000 OA
BRANCH  24  27
ATOM     27  N   UNL     1       0.065  11.094  22.184  0.00  0.00    +0.000 NA
ATOM     28  H   UNL     1       0.722  11.825  22.533  0.00  0.00    +0.000 HD
ATOM     29  H   UNL     1       0.307  10.183  22.633  0.00  0.00    +0.000 HD
ENDBRANCH  24  27
ENDBRANCH  21  24
ENDBRANCH  17  18
ENDBRANCH  16  17
ENDBRANCH   1  16
TORSDOF 8
ENDMDL
MODEL 8
REMARK VINA RESULT:      -7.2      5.752      8.349
REMARK  Name = 
REMARK  9 active torsions:
REMARK  status: ('A' for Active; 'I' for Inactive)
REMARK    1  A    between atoms: C_1  and  C_2
REMARK    2  A    between atoms: C_6  and  C_7
REMARK    3  A    between atoms: N_9  and  C_10
REMARK    4  A    between atoms: C_10  and  N_12
REMARK    5  A    between atoms: N_12  and  C_13
REMARK    6  A    between atoms: C_13  and  C_14
REMARK    7  A    between atoms: C_14  and  C_15
REMARK    8  A    between atoms: C_18  and  S_19
REMARK    9  A    between atoms: S_19  and  N_20
REMARK                            x       y       z     vdW  Elec       q    Type
REMARK                         _______ _______ _______ _____ _____    ______ ____
ROOT
ATOM      1  N   UNL     1       3.759   5.199  18.705  0.00  0.00    +0.000 N 
ATOM      2  H   UNL     1       4.536   5.575  19.270  0.00  0.00    +0.000 HD
ENDROOT
BRANCH   1   3
ATOM      3  C   UNL     1       3.952   3.950  18.032  0.00  0.00    +0.000 C 
ATOM      4 SE   UNL     1       3.546   2.503  18.948  0.00  0.00    +0.000 Se
BRANCH   3   7
ATOM      5  C   UNL     1       5.618   4.465  16.220  0.00  0.00    +0.000 C 
ATOM      6  O   UNL     1       6.342   5.074  16.994  0.00  0.00    +0.000 OA
ATOM      7  N   UNL     1       4.445   3.908  16.671  0.00  0.00    +0.000 N 
ATOM      8  H   UNL     1       3.859   3.413  15.995  0.00  0.00    +0.000 HD
BRANCH   5  14
ATOM      9  C   UNL     1       5.222   2.631  11.477  0.00  0.00    +0.000 C 
ATOM     10  C   UNL     1       5.916   3.492  12.494  0.00  0.00    +0.000 A 
ATOM     11  C   UNL     1       7.050   4.231  12.133  0.00  0.00    +0.000 A 
ATOM     12  C   UNL     1       7.692   5.028  13.077  0.00  0.00    +0.000 A 
ATOM     13  C   UNL     1       7.215   5.092  14.385  0.00  0.00    +0.000 A 
ATOM     14  C   UNL     1       6.076   4.358  14.787  0.00  0.00    +0.000 A 
ATOM     15  C   UNL     1       5.430   3.556  13.814  0.00  0.00    +0.000 A 
ENDBRANCH   5  14
ENDBRANCH   3   7
ENDBRANCH   1   3
BRANCH   1  16
ATOM     16  C   UNL     1       2.530   5.962  18.613  0.00  0.00    +0.000 C 
BRANCH  16  17
ATOM     17  C   UNL     1       2.218   6.694  19.933  0.00  0.00    +0.000 C 
BRANCH  17  18
ATOM     18  C   UNL     1       1.737   8.098  19.653  0.00  0.00    +0.000 A 
ATOM     19  C   UNL     1       1.076   8.830  20.654  0.00  0.00    +0.000 A 
ATOM     20  C   UNL     1       0.586  10.111  20.388  0.00  0.00    +0.000 A 
ATOM     21  C   UNL     1       0.753  10.681  19.121  0.00  0.00    +0.000 A 
ATOM     22  C   UNL     1       1.433   9.969  18.125  0.00  0.00    +0.000 A 
ATOM     23  C   UNL     1       1.927   8.686  18.389  0.00  0.00    +0.000 A 
BRANCH  21  24
ATOM     24  S   UNL     1       0.065  12.300  18.762  0.00  0.00    +0.000 S 
ATOM     25  O   UNL     1      -0.507  12.975  20.017  0.00  0.00    +0.000 OA
ATOM     26  O   UNL     1       1.129  13.320  18.328  0.00  0.00    +0.000 OA
BRANCH  24  27
ATOM     27  N   UNL     1      -1.212  12.437  17.551  0.00  0.00    +0.000 NA
ATOM     28  H   UNL     1      -2.075  12.773  18.032  0.00  0.00    +0.000 HD
ATOM     29  H   UNL     1      -1.393  11.484  17.165  0.00  0.00    +0.000 HD
ENDBRANCH  24  27
ENDBRANCH  21  24
ENDBRANCH  17  18
ENDBRANCH  16  17
ENDBRANCH   1  16
TORSDOF 8
ENDMDL
MODEL 9
REMARK VINA RESULT:      -7.2      4.978      8.000
REMARK  Name = 
REMARK  9 active torsions:
REMARK  status: ('A' for Active; 'I' for Inactive)
REMARK    1  A    between atoms: C_1  and  C_2
REMARK    2  A    between atoms: C_6  and  C_7
REMARK    3  A    between atoms: N_9  and  C_10
REMARK    4  A    between atoms: C_10  and  N_12
REMARK    5  A    between atoms: N_12  and  C_13
REMARK    6  A    between atoms: C_13  and  C_14
REMARK    7  A    between atoms: C_14  and  C_15
REMARK    8  A    between atoms: C_18  and  S_19
REMARK    9  A    between atoms: S_19  and  N_20
REMARK                            x       y       z     vdW  Elec       q    Type
REMARK                         _______ _______ _______ _____ _____    ______ ____
ROOT
ATOM      1  N   UNL     1       6.040   6.517  16.338  0.00  0.00    +0.000 N 
ATOM      2  H   UNL     1       6.915   6.890  15.939  0.00  0.00    +0.000 HD
ENDROOT
BRANCH   1   3
ATOM      3  C   UNL     1       5.663   5.175  16.009  0.00  0.00    +0.000 C 
ATOM      4 SE   UNL     1       6.614   4.387  14.754  0.00  0.00    +0.000 Se
BRANCH   3   7
ATOM      5  C   UNL     1       4.593   4.031  17.977  0.00  0.00    +0.000 C 
ATOM      6  O   UNL     1       5.616   4.113  18.640  0.00  0.00    +0.000 OA
ATOM      7  N   UNL     1       4.566   4.523  16.693  0.00  0.00    +0.000 N 
ATOM      8  H   UNL     1       3.696   4.431  16.163  0.00  0.00    +0.000 HD
BRANCH   5  14
ATOM      9  C   UNL     1       1.800   2.789  22.059  0.00  0.00    +0.000 C 
ATOM     10  C   UNL     1       2.030   2.767  20.575  0.00  0.00    +0.000 A 
ATOM     11  C   UNL     1       1.122   2.114  19.731  0.00  0.00    +0.000 A 
ATOM     12  C   UNL     1       1.337   2.095  18.356  0.00  0.00    +0.000 A 
ATOM     13  C   UNL     1       2.457   2.719  17.811  0.00  0.00    +0.000 A 
ATOM     14  C   UNL     1       3.398   3.385  18.630  0.00  0.00    +0.000 A 
ATOM     15  C   UNL     1       3.162   3.400  20.027  0.00  0.00    +0.000 A 
ENDBRANCH   5  14
ENDBRANCH   3   7
ENDBRANCH   1   3
BRANCH   1  16
ATOM     16  C   UNL     1       5.240   7.374  17.189  0.00  0.00    +0.000 C 
BRANCH  16  17
ATOM     17  C   UNL     1       3.763   7.391  16.748  0.00  0.00    +0.000 C 
BRANCH  17  18
ATOM     18  C   UNL     1       2.877   7.807  17.898  0.00  0.00    +0.000 A 
ATOM     19  C   UNL     1       2.164   9.017  17.838  0.00  0.00    +0.000 A 
ATOM     20  C   UNL     1       1.380   9.431  18.917  0.00  0.00    +0.000 A 
ATOM     21  C   UNL     1       1.293   8.643  20.069  0.00  0.00    +0.000 A 
ATOM     22  C   UNL     1       1.979   7.424  20.128  0.00  0.00    +0.000 A 
ATOM     23  C   UNL     1       2.765   7.005  19.048  0.00  0.00    +0.000 A 
BRANCH  21  24
ATOM     24  S   UNL     1       0.338   9.209  21.481  0.00  0.00    +0.000 S 
ATOM     25  O   UNL     1      -0.676   8.157  21.950  0.00  0.00    +0.000 OA
ATOM     26  O   UNL     1       1.190   9.394  22.745  0.00  0.00    +0.000 OA
BRANCH  24  27
ATOM     27  N   UNL     1      -0.592  10.703  21.340  0.00  0.00    +0.000 NA
ATOM     28  H   UNL     1      -0.130  11.303  20.622  0.00  0.00    +0.000 HD
ATOM     29  H   UNL     1      -0.557  11.193  22.260  0.00  0.00    +0.000 HD
ENDBRANCH  24  27
ENDBRANCH  21  24
ENDBRANCH  17  18
ENDBRANCH  16  17
ENDBRANCH   1  16
TORSDOF 8
ENDMDL
