MODEL 1
REMARK VINA RESULT:      -6.5      0.000      0.000
REMARK  Name = 
REMARK  8 active torsions:
REMARK  status: ('A' for Active; 'I' for Inactive)
REMARK    1  A    between atoms: C_1  and  C_2
REMARK    2  A    between atoms: C_2  and  O_4
REMARK    3  A    between atoms: O_4  and  C_5
REMARK    4  A    between atoms: C_5  and  C_6
REMARK    5  A    between atoms: CA_7  and  C_8
REMARK    6  A    between atoms: CA_13  and  N_14
REMARK    7  A    between atoms: C_15  and  C_17
REMARK    8  A    between atoms: C_17  and  C_18
REMARK                            x       y       z     vdW  Elec       q    Type
REMARK                         _______ _______ _______ _____ _____    ______ ____
ROOT
ATOM      1  C   UNL     1       4.786   4.760  16.990  0.00  0.00    +0.000 C 
ATOM      2  CA  UNL     1       3.936   4.205  17.890  0.00  0.00    +0.000 C 
ATOM      3  N   UNL     1       2.966   4.953  18.502  0.00  0.00    +0.000 N 
ATOM      4  C   UNL     1       2.575   5.057  19.801  0.00  0.00    +0.000 C 
ATOM      5  O   UNL     1       2.828   4.456  20.817  0.00  0.00    +0.000 OA
ATOM      6  CA  UNL     1       1.829   6.379  19.475  0.00  0.00    +0.000 C 
ATOM      7  C   UNL     1       2.627   6.321  18.140  0.00  0.00    +0.000 C 
ATOM      8  S   UNL     1       4.174   7.277  18.033  0.00  0.00    +0.000 S 
ATOM      9  C   UNL     1       4.819   6.248  16.684  0.00  0.00    +0.000 C 
ENDROOT
BRANCH   6  10
ATOM     10  N   UNL     1       2.061   7.532  20.387  0.00  0.00    +0.000 N 
ATOM     11  C   UNL     1       1.054   7.978  21.216  0.00  0.00    +0.000 C 
ATOM     12  O   UNL     1      -0.077   7.495  21.183  0.00  0.00    +0.000 OA
ATOM     13  H   UNL     1       3.008   7.868  20.533  0.00  0.00    +0.000 HD
BRANCH  11  14
ATOM     14  C   UNL     1       1.437   9.108  22.154  0.00  0.00    +0.000 C 
BRANCH  14  15
ATOM     15  C   UNL     1       0.315  10.094  22.267  0.00  0.00    +0.000 A 
ATOM     16  C   UNL     1      -0.607  10.227  23.287  0.00  0.00    +0.000 A 
ATOM     17  C   UNL     1      -1.541  11.276  23.042  0.00  0.00    +0.000 A 
ATOM     18  C   UNL     1      -1.305  11.904  21.840  0.00  0.00    +0.000 A 
ATOM     19  S   UNL     1       0.027  11.225  21.012  0.00  0.00    +0.000 S 
ENDBRANCH  14  15
ENDBRANCH  11  14
ENDBRANCH   6  10
BRANCH   2  20
ATOM     20  C   UNL     1       3.946   2.733  18.207  0.00  0.00    +0.000 C 
ATOM     21  O   UNL     1       2.999   1.980  18.015  0.00  0.00    +0.000 OA
ENDBRANCH   2  20
BRANCH   1  22
ATOM     22  C   UNL     1       5.832   4.006  16.192  0.00  0.00    +0.000 C 
BRANCH  22  23
ATOM     23  O   UNL     1       5.527   4.108  14.793  0.00  0.00    +0.000 OA
BRANCH  23  25
ATOM     24  C   UNL     1       6.469   3.774  12.670  0.00  0.00    +0.000 C 
ATOM     25  C   UNL     1       6.579   4.454  14.000  0.00  0.00    +0.000 C 
ATOM     26  O   UNL     1       7.490   5.198  14.326  0.00  0.00    +0.000 OA
ENDBRANCH  23  25
ENDBRANCH  22  23
ENDBRANCH   1  22
TORSDOF 7
ENDMDL
MODEL 2
REMARK VINA RESULT:      -6.4      4.569      7.464
REMARK  Name = 
REMARK  8 active torsions:
REMARK  status: ('A' for Active; 'I' for Inactive)
REMARK    1  A    between atoms: C_1  and  C_2
REMARK    2  A    between atoms: C_2  and  O_4
REMARK    3  A    between atoms: O_4  and  C_5
REMARK    4  A    between atoms: C_5  and  C_6
REMARK    5  A    between atoms: CA_7  and  C_8
REMARK    6  A    between atoms: CA_13  and  N_14
REMARK    7  A    between atoms: C_15  and  C_17
REMARK    8  A    between atoms: C_17  and  C_18
REMARK                            x       y       z     vdW  Elec       q    Type
REMARK                         _______ _______ _______ _____ _____    ______ ____
ROOT
ATOM      1  C   UNL     1       3.923   4.530  17.453  0.00  0.00    +0.000 C 
ATOM      2  CA  UNL     1       5.162   4.364  16.927  0.00  0.00    +0.000 C 
ATOM      3  N   UNL     1       6.189   5.210  17.252  0.00  0.00    +0.000 N 
ATOM      4  C   UNL     1       7.119   5.853  16.495  0.00  0.00    +0.000 C 
ATOM      5  O   UNL     1       7.453   5.805  15.335  0.00  0.00    +0.000 OA
ATOM      6  CA  UNL     1       7.434   6.804  17.680  0.00  0.00    +0.000 C 
ATOM      7  C   UNL     1       6.124   6.225  18.292  0.00  0.00    +0.000 C 
ATOM      8  S   UNL     1       4.587   7.174  18.061  0.00  0.00    +0.000 S 
ATOM      9  C   UNL     1       3.542   5.714  18.328  0.00  0.00    +0.000 C 
ENDROOT
BRANCH   6  10
ATOM     10  N   UNL     1       7.491   8.261  17.384  0.00  0.00    +0.000 N 
ATOM     11  C   UNL     1       8.299   9.092  18.130  0.00  0.00    +0.000 C 
ATOM     12  O   UNL     1       8.938   8.680  19.097  0.00  0.00    +0.000 OA
ATOM     13  H   UNL     1       7.082   8.610  16.523  0.00  0.00    +0.000 HD
BRANCH  11  14
ATOM     14  C   UNL     1       8.331  10.541  17.682  0.00  0.00    +0.000 C 
BRANCH  14  15
ATOM     15  C   UNL     1       9.503  11.248  18.290  0.00  0.00    +0.000 A 
ATOM     16  C   UNL     1      10.760  11.443  17.749  0.00  0.00    +0.000 A 
ATOM     17  C   UNL     1      11.626  12.155  18.629  0.00  0.00    +0.000 A 
ATOM     18  C   UNL     1      11.004  12.474  19.815  0.00  0.00    +0.000 A 
ATOM     19  S   UNL     1       9.391  11.911  19.867  0.00  0.00    +0.000 S 
ENDBRANCH  14  15
ENDBRANCH  11  14
ENDBRANCH   6  10
BRANCH   2  20
ATOM     20  C   UNL     1       5.508   3.204  16.032  0.00  0.00    +0.000 C 
ATOM     21  O   UNL     1       5.816   3.313  14.851  0.00  0.00    +0.000 OA
ENDBRANCH   2  20
BRANCH   1  22
ATOM     22  C   UNL     1       2.745   3.603  17.232  0.00  0.00    +0.000 C 
BRANCH  22  23
ATOM     23  O   UNL     1       1.612   4.089  17.967  0.00  0.00    +0.000 OA
BRANCH  23  25
ATOM     24  C   UNL     1       1.096   3.565  20.194  0.00  0.00    +0.000 C 
ATOM     25  C   UNL     1       0.998   3.163  18.755  0.00  0.00    +0.000 C 
ATOM     26  O   UNL     1       0.460   2.145  18.353  0.00  0.00    +0.000 OA
ENDBRANCH  23  25
ENDBRANCH  22  23
ENDBRANCH   1  22
TORSDOF 7
ENDMDL
MODEL 3
REMARK VINA RESULT:      -6.3      4.544      7.244
REMARK  Name = 
REMARK  8 active torsions:
REMARK  status: ('A' for Active; 'I' for Inactive)
REMARK    1  A    between atoms: C_1  and  C_2
REMARK    2  A    between atoms: C_2  and  O_4
REMARK    3  A    between atoms: O_4  and  C_5
REMARK    4  A    between atoms: C_5  and  C_6
REMARK    5  A    between atoms: CA_7  and  C_8
REMARK    6  A    between atoms: CA_13  and  N_14
REMARK    7  A    between atoms: C_15  and  C_17
REMARK    8  A    between atoms: C_17  and  C_18
REMARK                            x       y       z     vdW  Elec       q    Type
REMARK                         _______ _______ _______ _____ _____    ______ ____
ROOT
ATOM      1  C   UNL     1       3.947   4.422  17.140  0.00  0.00    +0.000 C 
ATOM      2  CA  UNL     1       5.204   4.285  16.650  0.00  0.00    +0.000 C 
ATOM      3  N   UNL     1       6.216   5.111  17.058  0.00  0.00    +0.000 N 
ATOM      4  C   UNL     1       7.172   5.795  16.372  0.00  0.00    +0.000 C 
ATOM      5  O   UNL     1       7.548   5.813  15.225  0.00  0.00    +0.000 OA
ATOM      6  CA  UNL     1       7.443   6.677  17.620  0.00  0.00    +0.000 C 
ATOM      7  C   UNL     1       6.113   6.066  18.151  0.00  0.00    +0.000 C 
ATOM      8  S   UNL     1       4.584   7.027  17.919  0.00  0.00    +0.000 S 
ATOM      9  C   UNL     1       3.532   5.555  18.065  0.00  0.00    +0.000 C 
ENDROOT
BRANCH   6  10
ATOM     10  N   UNL     1       7.509   8.149  17.409  0.00  0.00    +0.000 N 
ATOM     11  C   UNL     1       8.324   8.930  18.200  0.00  0.00    +0.000 C 
ATOM     12  O   UNL     1       8.964   8.459  19.139  0.00  0.00    +0.000 OA
ATOM     13  H   UNL     1       7.099   8.550  16.571  0.00  0.00    +0.000 HD
BRANCH  11  14
ATOM     14  C   UNL     1       8.364  10.403  17.836  0.00  0.00    +0.000 C 
BRANCH  14  15
ATOM     15  C   UNL     1       9.432  11.104  18.619  0.00  0.00    +0.000 A 
ATOM     16  C   UNL     1       9.462  11.373  19.974  0.00  0.00    +0.000 A 
ATOM     17  C   UNL     1      10.643  12.072  20.362  0.00  0.00    +0.000 A 
ATOM     18  C   UNL     1      11.470  12.319  19.290  0.00  0.00    +0.000 A 
ATOM     19  S   UNL     1      10.821  11.719  17.827  0.00  0.00    +0.000 S 
ENDBRANCH  14  15
ENDBRANCH  11  14
ENDBRANCH   6  10
BRANCH   2  20
ATOM     20  C   UNL     1       5.583   3.178  15.703  0.00  0.00    +0.000 C 
ATOM     21  O   UNL     1       5.803   3.337  14.508  0.00  0.00    +0.000 OA
ENDBRANCH   2  20
BRANCH   1  22
ATOM     22  C   UNL     1       2.778   3.509  16.824  0.00  0.00    +0.000 C 
BRANCH  22  23
ATOM     23  O   UNL     1       2.895   2.303  17.594  0.00  0.00    +0.000 OA
BRANCH  23  25
ATOM     24  C   UNL     1       0.887   2.525  18.786  0.00  0.00    +0.000 C 
ATOM     25  C   UNL     1       2.375   2.371  18.851  0.00  0.00    +0.000 C 
ATOM     26  O   UNL     1       3.025   2.329  19.883  0.00  0.00    +0.000 OA
ENDBRANCH  23  25
ENDBRANCH  22  23
ENDBRANCH   1  22
TORSDOF 7
ENDMDL
MODEL 4
REMARK VINA RESULT:      -6.3      1.073      1.150
REMARK  Name = 
REMARK  8 active torsions:
REMARK  status: ('A' for Active; 'I' for Inactive)
REMARK    1  A    between atoms: C_1  and  C_2
REMARK    2  A    between atoms: C_2  and  O_4
REMARK    3  A    between atoms: O_4  and  C_5
REMARK    4  A    between atoms: C_5  and  C_6
REMARK    5  A    between atoms: CA_7  and  C_8
REMARK    6  A    between atoms: CA_13  and  N_14
REMARK    7  A    between atoms: C_15  and  C_17
REMARK    8  A    between atoms: C_17  and  C_18
REMARK                            x       y       z     vdW  Elec       q    Type
REMARK                         _______ _______ _______ _____ _____    ______ ____
ROOT
ATOM      1  C   UNL     1       4.082   4.532  17.544  0.00  0.00    +0.000 C 
ATOM      2  CA  UNL     1       3.396   4.011  18.592  0.00  0.00    +0.000 C 
ATOM      3  N   UNL     1       2.470   4.756  19.271  0.00  0.00    +0.000 N 
ATOM      4  C   UNL     1       2.247   4.951  20.600  0.00  0.00    +0.000 C 
ATOM      5  O   UNL     1       2.672   4.453  21.615  0.00  0.00    +0.000 OA
ATOM      6  CA  UNL     1       1.381   6.197  20.277  0.00  0.00    +0.000 C 
ATOM      7  C   UNL     1       1.998   6.068  18.853  0.00  0.00    +0.000 C 
ATOM      8  S   UNL     1       3.451   7.093  18.461  0.00  0.00    +0.000 S 
ATOM      9  C   UNL     1       3.978   5.988  17.121  0.00  0.00    +0.000 C 
ENDROOT
BRANCH   6  10
ATOM     10  N   UNL     1       1.655   7.435  21.056  0.00  0.00    +0.000 N 
ATOM     11  C   UNL     1       0.616   8.221  21.503  0.00  0.00    +0.000 C 
ATOM     12  O   UNL     1      -0.555   7.973  21.221  0.00  0.00    +0.000 OA
ATOM     13  H   UNL     1       2.592   7.600  21.414  0.00  0.00    +0.000 HD
BRANCH  11  14
ATOM     14  C   UNL     1       1.021   9.413  22.352  0.00  0.00    +0.000 C 
BRANCH  14  15
ATOM     15  C   UNL     1      -0.046  10.463  22.318  0.00  0.00    +0.000 A 
ATOM     16  C   UNL     1      -1.075  10.667  23.217  0.00  0.00    +0.000 A 
ATOM     17  C   UNL     1      -1.909  11.764  22.850  0.00  0.00    +0.000 A 
ATOM     18  C   UNL     1      -1.493  12.356  21.679  0.00  0.00    +0.000 A 
ATOM     19  S   UNL     1      -0.112  11.587  21.025  0.00  0.00    +0.000 S 
ENDBRANCH  14  15
ENDBRANCH  11  14
ENDBRANCH   6  10
BRANCH   2  20
ATOM     20  C   UNL     1       3.544   2.575  19.019  0.00  0.00    +0.000 C 
ATOM     21  O   UNL     1       4.438   2.161  19.748  0.00  0.00    +0.000 OA
ENDBRANCH   2  20
BRANCH   1  22
ATOM     22  C   UNL     1       5.060   3.770  16.672  0.00  0.00    +0.000 C 
BRANCH  22  23
ATOM     23  O   UNL     1       6.381   4.299  16.863  0.00  0.00    +0.000 OA
BRANCH  23  25
ATOM     24  C   UNL     1       6.602   4.244  14.528  0.00  0.00    +0.000 C 
ATOM     25  C   UNL     1       6.885   4.984  15.799  0.00  0.00    +0.000 C 
ATOM     26  O   UNL     1       7.492   6.040  15.868  0.00  0.00    +0.000 OA
ENDBRANCH  23  25
ENDBRANCH  22  23
ENDBRANCH   1  22
TORSDOF 7
ENDMDL
MODEL 5
REMARK VINA RESULT:      -6.1      0.897      1.113
REMARK  Name = 
REMARK  8 active torsions:
REMARK  status: ('A' for Active; 'I' for Inactive)
REMARK    1  A    between atoms: C_1  and  C_2
REMARK    2  A    between atoms: C_2  and  O_4
REMARK    3  A    between atoms: O_4  and  C_5
REMARK    4  A    between atoms: C_5  and  C_6
REMARK    5  A    between atoms: CA_7  and  C_8
REMARK    6  A    between atoms: CA_13  and  N_14
REMARK    7  A    between atoms: C_15  and  C_17
REMARK    8  A    between atoms: C_17  and  C_18
REMARK                            x       y       z     vdW  Elec       q    Type
REMARK                         _______ _______ _______ _____ _____    ______ ____
ROOT
ATOM      1  C   UNL     1       4.733   4.840  17.293  0.00  0.00    +0.000 C 
ATOM      2  CA  UNL     1       3.950   4.316  18.270  0.00  0.00    +0.000 C 
ATOM      3  N   UNL     1       2.932   5.043  18.826  0.00  0.00    +0.000 N 
ATOM      4  C   UNL     1       2.558   5.252  20.118  0.00  0.00    +0.000 C 
ATOM      5  O   UNL     1       2.881   4.786  21.184  0.00  0.00    +0.000 OA
ATOM      6  CA  UNL     1       1.696   6.465  19.676  0.00  0.00    +0.000 C 
ATOM      7  C   UNL     1       2.471   6.331  18.332  0.00  0.00    +0.000 C 
ATOM      8  S   UNL     1       3.928   7.395  18.083  0.00  0.00    +0.000 S 
ATOM      9  C   UNL     1       4.633   6.285  16.832  0.00  0.00    +0.000 C 
ENDROOT
BRANCH   6  10
ATOM     10  N   UNL     1       1.845   7.724  20.455  0.00  0.00    +0.000 N 
ATOM     11  C   UNL     1       0.811   8.185  21.240  0.00  0.00    +0.000 C 
ATOM     12  O   UNL     1      -0.282   7.621  21.272  0.00  0.00    +0.000 OA
ATOM     13  H   UNL     1       2.766   8.141  20.554  0.00  0.00    +0.000 HD
BRANCH  11  14
ATOM     14  C   UNL     1       1.113   9.435  22.046  0.00  0.00    +0.000 C 
BRANCH  14  15
ATOM     15  C   UNL     1       0.169  10.536  21.672  0.00  0.00    +0.000 A 
ATOM     16  C   UNL     1       0.097  11.234  20.482  0.00  0.00    +0.000 A 
ATOM     17  C   UNL     1      -0.927  12.226  20.495  0.00  0.00    +0.000 A 
ATOM     18  C   UNL     1      -1.598  12.257  21.696  0.00  0.00    +0.000 A 
ATOM     19  S   UNL     1      -0.989  11.103  22.801  0.00  0.00    +0.000 S 
ENDBRANCH  14  15
ENDBRANCH  11  14
ENDBRANCH   6  10
BRANCH   2  20
ATOM     20  C   UNL     1       4.092   2.893  18.739  0.00  0.00    +0.000 C 
ATOM     21  O   UNL     1       4.812   2.541  19.666  0.00  0.00    +0.000 OA
ENDBRANCH   2  20
BRANCH   1  22
ATOM     22  C   UNL     1       5.824   4.094  16.550  0.00  0.00    +0.000 C 
BRANCH  22  23
ATOM     23  O   UNL     1       5.492   4.032  15.155  0.00  0.00    +0.000 OA
BRANCH  23  25
ATOM     24  C   UNL     1       6.296   3.779  12.965  0.00  0.00    +0.000 C 
ATOM     25  C   UNL     1       6.492   4.409  14.310  0.00  0.00    +0.000 C 
ATOM     26  O   UNL     1       7.422   5.141  14.605  0.00  0.00    +0.000 OA
ENDBRANCH  23  25
ENDBRANCH  22  23
ENDBRANCH   1  22
TORSDOF 7
ENDMDL
MODEL 6
REMARK VINA RESULT:      -6.0      1.196      1.682
REMARK  Name = 
REMARK  8 active torsions:
REMARK  status: ('A' for Active; 'I' for Inactive)
REMARK    1  A    between atoms: C_1  and  C_2
REMARK    2  A    between atoms: C_2  and  O_4
REMARK    3  A    between atoms: O_4  and  C_5
REMARK    4  A    between atoms: C_5  and  C_6
REMARK    5  A    between atoms: CA_7  and  C_8
REMARK    6  A    between atoms: CA_13  and  N_14
REMARK    7  A    between atoms: C_15  and  C_17
REMARK    8  A    between atoms: C_17  and  C_18
REMARK                            x       y       z     vdW  Elec       q    Type
REMARK                         _______ _______ _______ _____ _____    ______ ____
ROOT
ATOM      1  C   UNL     1       4.490   5.003  17.151  0.00  0.00    +0.000 C 
ATOM      2  CA  UNL     1       3.716   4.426  18.103  0.00  0.00    +0.000 C 
ATOM      3  N   UNL     1       2.728   5.133  18.735  0.00  0.00    +0.000 N 
ATOM      4  C   UNL     1       2.386   5.255  20.047  0.00  0.00    +0.000 C 
ATOM      5  O   UNL     1       2.720   4.704  21.068  0.00  0.00    +0.000 OA
ATOM      6  CA  UNL     1       1.545   6.516  19.715  0.00  0.00    +0.000 C 
ATOM      7  C   UNL     1       2.288   6.464  18.348  0.00  0.00    +0.000 C 
ATOM      8  S   UNL     1       3.765   7.510  18.144  0.00  0.00    +0.000 S 
ATOM      9  C   UNL     1       4.416   6.480  16.799  0.00  0.00    +0.000 C 
ENDROOT
BRANCH   6  10
ATOM     10  N   UNL     1       1.742   7.710  20.581  0.00  0.00    +0.000 N 
ATOM     11  C   UNL     1       0.731   8.142  21.412  0.00  0.00    +0.000 C 
ATOM     12  O   UNL     1      -0.378   7.609  21.419  0.00  0.00    +0.000 OA
ATOM     13  H   UNL     1       2.676   8.093  20.696  0.00  0.00    +0.000 HD
BRANCH  11  14
ATOM     14  C   UNL     1       1.080   9.321  22.302  0.00  0.00    +0.000 C 
BRANCH  14  15
ATOM     15  C   UNL     1       0.022  10.377  22.206  0.00  0.00    +0.000 A 
ATOM     16  C   UNL     1      -0.969  10.680  23.120  0.00  0.00    +0.000 A 
ATOM     17  C   UNL     1      -1.806  11.747  22.679  0.00  0.00    +0.000 A 
ATOM     18  C   UNL     1      -1.431  12.217  21.441  0.00  0.00    +0.000 A 
ATOM     19  S   UNL     1      -0.085  11.371  20.814  0.00  0.00    +0.000 S 
ENDBRANCH  14  15
ENDBRANCH  11  14
ENDBRANCH   6  10
BRANCH   2  20
ATOM     20  C   UNL     1       3.833   2.969  18.463  0.00  0.00    +0.000 C 
ATOM     21  O   UNL     1       2.955   2.138  18.268  0.00  0.00    +0.000 OA
ENDBRANCH   2  20
BRANCH   1  22
ATOM     22  C   UNL     1       5.547   4.290  16.330  0.00  0.00    +0.000 C 
BRANCH  22  23
ATOM     23  O   UNL     1       6.723   5.110  16.253  0.00  0.00    +0.000 OA
BRANCH  23  25
ATOM     24  C   UNL     1       7.537   6.339  18.078  0.00  0.00    +0.000 C 
ATOM     25  C   UNL     1       7.546   5.038  17.336  0.00  0.00    +0.000 C 
ATOM     26  O   UNL     1       8.207   4.063  17.651  0.00  0.00    +0.000 OA
ENDBRANCH  23  25
ENDBRANCH  22  23
ENDBRANCH   1  22
TORSDOF 7
ENDMDL
MODEL 7
REMARK VINA RESULT:      -5.7      3.941     10.137
REMARK  Name = 
REMARK  8 active torsions:
REMARK  status: ('A' for Active; 'I' for Inactive)
REMARK    1  A    between atoms: C_1  and  C_2
REMARK    2  A    between atoms: C_2  and  O_4
REMARK    3  A    between atoms: O_4  and  C_5
REMARK    4  A    between atoms: C_5  and  C_6
REMARK    5  A    between atoms: CA_7  and  C_8
REMARK    6  A    between atoms: CA_13  and  N_14
REMARK    7  A    between atoms: C_15  and  C_17
REMARK    8  A    between atoms: C_17  and  C_18
REMARK                            x       y       z     vdW  Elec       q    Type
REMARK                         _______ _______ _______ _____ _____    ______ ____
ROOT
ATOM      1  C   UNL     1      -0.970  12.459  22.430  0.00  0.00    +0.000 C 
ATOM      2  CA  UNL     1      -0.441  12.714  21.207  0.00  0.00    +0.000 C 
ATOM      3  N   UNL     1      -0.178  11.701  20.325  0.00  0.00    +0.000 N 
ATOM      4  C   UNL     1       0.908  11.417  19.555  0.00  0.00    +0.000 C 
ATOM      5  O   UNL     1       1.928  12.000  19.274  0.00  0.00    +0.000 OA
ATOM      6  CA  UNL     1       0.390   9.969  19.349  0.00  0.00    +0.000 C 
ATOM      7  C   UNL     1      -0.588  10.317  20.510  0.00  0.00    +0.000 C 
ATOM      8  S   UNL     1      -0.119   9.810  22.195  0.00  0.00    +0.000 S 
ATOM      9  C   UNL     1      -1.195  11.053  22.963  0.00  0.00    +0.000 C 
ENDROOT
BRANCH   6  10
ATOM     10  N   UNL     1       1.365   8.864  19.554  0.00  0.00    +0.000 N 
ATOM     11  C   UNL     1       2.060   8.341  18.485  0.00  0.00    +0.000 C 
ATOM     12  O   UNL     1       1.854   8.714  17.331  0.00  0.00    +0.000 OA
ATOM     13  H   UNL     1       1.652   8.622  20.498  0.00  0.00    +0.000 HD
BRANCH  11  14
ATOM     14  C   UNL     1       3.081   7.273  18.833  0.00  0.00    +0.000 C 
BRANCH  14  15
ATOM     15  C   UNL     1       2.421   5.932  18.924  0.00  0.00    +0.000 A 
ATOM     16  C   UNL     1       2.090   5.070  17.896  0.00  0.00    +0.000 A 
ATOM     17  C   UNL     1       1.459   3.881  18.366  0.00  0.00    +0.000 A 
ATOM     18  C   UNL     1       1.323   3.878  19.736  0.00  0.00    +0.000 A 
ATOM     19  S   UNL     1       1.945   5.303  20.446  0.00  0.00    +0.000 S 
ENDBRANCH  14  15
ENDBRANCH  11  14
ENDBRANCH   6  10
BRANCH   2  20
ATOM     20  C   UNL     1      -0.191  14.114  20.714  0.00  0.00    +0.000 C 
ATOM     21  O   UNL     1      -0.688  14.586  19.698  0.00  0.00    +0.000 OA
ENDBRANCH   2  20
BRANCH   1  22
ATOM     22  C   UNL     1      -1.382  13.509  23.443  0.00  0.00    +0.000 C 
BRANCH  22  23
ATOM     23  O   UNL     1      -2.667  14.038  23.084  0.00  0.00    +0.000 OA
BRANCH  23  25
ATOM     24  C   UNL     1      -4.751  13.078  22.595  0.00  0.00    +0.000 C 
ATOM     25  C   UNL     1      -3.730  13.395  23.644  0.00  0.00    +0.000 C 
ATOM     26  O   UNL     1      -3.844  13.127  24.828  0.00  0.00    +0.000 OA
ENDBRANCH  23  25
ENDBRANCH  22  23
ENDBRANCH   1  22
TORSDOF 7
ENDMDL
MODEL 8
REMARK VINA RESULT:      -5.7      2.276      9.100
REMARK  Name = 
REMARK  8 active torsions:
REMARK  status: ('A' for Active; 'I' for Inactive)
REMARK    1  A    between atoms: C_1  and  C_2
REMARK    2  A    between atoms: C_2  and  O_4
REMARK    3  A    between atoms: O_4  and  C_5
REMARK    4  A    between atoms: C_5  and  C_6
REMARK    5  A    between atoms: CA_7  and  C_8
REMARK    6  A    between atoms: CA_13  and  N_14
REMARK    7  A    between atoms: C_15  and  C_17
REMARK    8  A    between atoms: C_17  and  C_18
REMARK                            x       y       z     vdW  Elec       q    Type
REMARK                         _______ _______ _______ _____ _____    ______ ____
ROOT
ATOM      1  C   UNL     1       2.387   5.798  19.701  0.00  0.00    +0.000 C 
ATOM      2  CA  UNL     1       2.520   4.512  19.289  0.00  0.00    +0.000 C 
ATOM      3  N   UNL     1       3.531   4.142  18.442  0.00  0.00    +0.000 N 
ATOM      4  C   UNL     1       3.546   3.383  17.312  0.00  0.00    +0.000 C 
ATOM      5  O   UNL     1       2.743   2.678  16.750  0.00  0.00    +0.000 OA
ATOM      6  CA  UNL     1       4.942   3.952  16.944  0.00  0.00    +0.000 C 
ATOM      7  C   UNL     1       4.638   5.002  18.052  0.00  0.00    +0.000 C 
ATOM      8  S   UNL     1       3.951   6.608  17.535  0.00  0.00    +0.000 S 
ATOM      9  C   UNL     1       3.248   6.935  19.176  0.00  0.00    +0.000 C 
ENDROOT
BRANCH   6  10
ATOM     10  N   UNL     1       5.133   4.432  15.549  0.00  0.00    +0.000 N 
ATOM     11  C   UNL     1       6.399   4.549  15.019  0.00  0.00    +0.000 C 
ATOM     12  O   UNL     1       7.407   4.332  15.690  0.00  0.00    +0.000 OA
ATOM     13  H   UNL     1       4.329   4.497  14.930  0.00  0.00    +0.000 HD
BRANCH  11  14
ATOM     14  C   UNL     1       6.459   4.974  13.563  0.00  0.00    +0.000 C 
BRANCH  14  15
ATOM     15  C   UNL     1       6.362   3.778  12.667  0.00  0.00    +0.000 A 
ATOM     16  C   UNL     1       7.389   3.064  12.079  0.00  0.00    +0.000 A 
ATOM     17  C   UNL     1       6.911   1.986  11.276  0.00  0.00    +0.000 A 
ATOM     18  C   UNL     1       5.536   1.918  11.273  0.00  0.00    +0.000 A 
ATOM     19  S   UNL     1       4.830   3.150  12.225  0.00  0.00    +0.000 S 
ENDBRANCH  14  15
ENDBRANCH  11  14
ENDBRANCH   6  10
BRANCH   2  20
ATOM     20  C   UNL     1       1.631   3.408  19.794  0.00  0.00    +0.000 C 
ATOM     21  O   UNL     1       0.580   3.070  19.261  0.00  0.00    +0.000 OA
ENDBRANCH   2  20
BRANCH   1  22
ATOM     22  C   UNL     1       1.363   6.295  20.703  0.00  0.00    +0.000 C 
BRANCH  22  23
ATOM     23  O   UNL     1       1.457   7.723  20.810  0.00  0.00    +0.000 OA
BRANCH  23  25
ATOM     24  C   UNL     1       1.152   9.373  22.450  0.00  0.00    +0.000 C 
ATOM     25  C   UNL     1       0.522   8.301  21.615  0.00  0.00    +0.000 C 
ATOM     26  O   UNL     1      -0.655   7.985  21.664  0.00  0.00    +0.000 OA
ENDBRANCH  23  25
ENDBRANCH  22  23
ENDBRANCH   1  22
TORSDOF 7
ENDMDL
MODEL 9
REMARK VINA RESULT:      -5.6      1.432      1.666
REMARK  Name = 
REMARK  8 active torsions:
REMARK  status: ('A' for Active; 'I' for Inactive)
REMARK    1  A    between atoms: C_1  and  C_2
REMARK    2  A    between atoms: C_2  and  O_4
REMARK    3  A    between atoms: O_4  and  C_5
REMARK    4  A    between atoms: C_5  and  C_6
REMARK    5  A    between atoms: CA_7  and  C_8
REMARK    6  A    between atoms: CA_13  and  N_14
REMARK    7  A    between atoms: C_15  and  C_17
REMARK    8  A    between atoms: C_17  and  C_18
REMARK                            x       y       z     vdW  Elec       q    Type
REMARK                         _______ _______ _______ _____ _____    ______ ____
ROOT
ATOM      1  C   UNL     1       4.241   4.661  17.540  0.00  0.00    +0.000 C 
ATOM      2  CA  UNL     1       3.551   4.092  18.559  0.00  0.00    +0.000 C 
ATOM      3  N   UNL     1       2.594   4.792  19.243  0.00  0.00    +0.000 N 
ATOM      4  C   UNL     1       2.343   4.940  20.573  0.00  0.00    +0.000 C 
ATOM      5  O   UNL     1       2.762   4.423  21.580  0.00  0.00    +0.000 OA
ATOM      6  CA  UNL     1       1.451   6.174  20.272  0.00  0.00    +0.000 C 
ATOM      7  C   UNL     1       2.096   6.104  18.856  0.00  0.00    +0.000 C 
ATOM      8  S   UNL     1       3.529   7.176  18.522  0.00  0.00    +0.000 S 
ATOM      9  C   UNL     1       4.107   6.126  17.159  0.00  0.00    +0.000 C 
ENDROOT
BRANCH   6  10
ATOM     10  N   UNL     1       1.681   7.394  21.092  0.00  0.00    +0.000 N 
ATOM     11  C   UNL     1       0.616   8.157  21.519  0.00  0.00    +0.000 C 
ATOM     12  O   UNL     1      -0.541   7.903  21.186  0.00  0.00    +0.000 OA
ATOM     13  H   UNL     1       2.600   7.560  21.490  0.00  0.00    +0.000 HD
BRANCH  11  14
ATOM     14  C   UNL     1       0.973   9.330  22.414  0.00  0.00    +0.000 C 
BRANCH  14  15
ATOM     15  C   UNL     1       0.173  10.537  22.034  0.00  0.00    +0.000 A 
ATOM     16  C   UNL     1       0.385  11.408  20.982  0.00  0.00    +0.000 A 
ATOM     17  C   UNL     1      -0.582  12.456  20.941  0.00  0.00    +0.000 A 
ATOM     18  C   UNL     1      -1.494  12.354  21.966  0.00  0.00    +0.000 A 
ATOM     19  S   UNL     1      -1.181  11.010  22.974  0.00  0.00    +0.000 S 
ENDBRANCH  14  15
ENDBRANCH  11  14
ENDBRANCH   6  10
BRANCH   2  20
ATOM     20  C   UNL     1       3.728   2.647  18.945  0.00  0.00    +0.000 C 
ATOM     21  O   UNL     1       2.841   1.804  18.883  0.00  0.00    +0.000 OA
ENDBRANCH   2  20
BRANCH   1  22
ATOM     22  C   UNL     1       5.253   3.950  16.663  0.00  0.00    +0.000 C 
BRANCH  22  23
ATOM     23  O   UNL     1       5.955   4.917  15.867  0.00  0.00    +0.000 OA
BRANCH  23  25
ATOM     24  C   UNL     1       7.607   4.483  17.475  0.00  0.00    +0.000 C 
ATOM     25  C   UNL     1       7.077   5.431  16.444  0.00  0.00    +0.000 C 
ATOM     26  O   UNL     1       7.573   6.512  16.175  0.00  0.00    +0.000 OA
ENDBRANCH  23  25
ENDBRANCH  22  23
ENDBRANCH   1  22
TORSDOF 7
ENDMDL
