MODEL 1
REMARK VINA RESULT:      -9.3      0.000      0.000
REMARK  Name = 
REMARK  5 active torsions:
REMARK  status: ('A' for Active; 'I' for Inactive)
REMARK    1  A    between atoms: C_2  and  C_12
REMARK    2  A    between atoms: N_3  and  C_4
REMARK    3  A    between atoms: C_4  and  C_5
REMARK    4  A    between atoms: C_5  and  C_6
REMARK    5  A    between atoms: C_17  and  C_18
REMARK                            x       y       z     vdW  Elec       q    Type
REMARK                         _______ _______ _______ _____ _____    ______ ____
ROOT
ATOM      1  C   UNL     1       3.166   4.304  18.724  0.00  0.00    +0.000 A 
ATOM      2  C   UNL     1       2.739   3.463  19.768  0.00  0.00    +0.000 A 
ATOM      3  C   UNL     1       2.037   3.961  20.866  0.00  0.00    +0.000 A 
ATOM      4  C   UNL     1       1.730   5.322  20.956  0.00  0.00    +0.000 A 
ATOM      5  C   UNL     1       2.135   6.194  19.923  0.00  0.00    +0.000 A 
ATOM      6  C   UNL     1       1.980   7.590  19.649  0.00  0.00    +0.000 A 
ATOM      7  C   UNL     1       2.648   7.816  18.463  0.00  0.00    +0.000 A 
ATOM      8  O   UNL     1       3.172   6.662  17.975  0.00  0.00    +0.000 OA
ATOM      9  C   UNL     1       2.852   5.662  18.853  0.00  0.00    +0.000 A 
ENDROOT
BRANCH   6  10
ATOM     10  C   UNL     1       1.230   8.611  20.365  0.00  0.00    +0.000 A 
ATOM     11  C   UNL     1       0.586   9.663  19.693  0.00  0.00    +0.000 A 
ATOM     12  C   UNL     1      -0.145  10.620  20.407  0.00  0.00    +0.000 A 
ATOM     13  C   UNL     1      -0.227  10.532  21.792  0.00  0.00    +0.000 A 
ATOM     14  F   UNL     1      -0.930  11.447  22.471  0.00  0.00    +0.000 F 
ATOM     15  C   UNL     1       0.412   9.500  22.465  0.00  0.00    +0.000 A 
ATOM     16  F   UNL     1       0.338   9.416  23.800  0.00  0.00    +0.000 F 
ATOM     17  C   UNL     1       1.129   8.538  21.762  0.00  0.00    +0.000 A 
ENDBRANCH   6  10
BRANCH   1  19
ATOM     18  O   UNL     1       3.846   2.508  17.363  0.00  0.00    +0.000 OA
ATOM     19  C   UNL     1       3.873   3.721  17.557  0.00  0.00    +0.000 C 
ATOM     20  N   UNL     1       4.525   4.597  16.724  0.00  0.00    +0.000 N 
ATOM     21  H   UNL     1       4.514   5.586  16.953  0.00  0.00    +0.000 HD
BRANCH  20  22
ATOM     22  C   UNL     1       5.199   4.159  15.517  0.00  0.00    +0.000 C 
BRANCH  22  23
ATOM     23  C   UNL     1       6.716   4.191  15.689  0.00  0.00    +0.000 C 
BRANCH  23  24
ATOM     24  C   UNL     1       7.158   5.160  16.753  0.00  0.00    +0.000 A 
ATOM     25  C   UNL     1       7.150   6.540  16.506  0.00  0.00    +0.000 A 
ATOM     26  C   UNL     1       7.570   7.435  17.491  0.00  0.00    +0.000 A 
ATOM     27  C   UNL     1       8.006   6.961  18.726  0.00  0.00    +0.000 A 
ATOM     28  C   UNL     1       8.023   5.590  18.980  0.00  0.00    +0.000 A 
ATOM     29  C   UNL     1       7.602   4.693  17.997  0.00  0.00    +0.000 A 
ENDBRANCH  23  24
ENDBRANCH  22  23
ENDBRANCH  20  22
ENDBRANCH   1  19
TORSDOF 5
ENDMDL
MODEL 2
REMARK VINA RESULT:      -8.9      0.753      1.385
REMARK  Name = 
REMARK  5 active torsions:
REMARK  status: ('A' for Active; 'I' for Inactive)
REMARK    1  A    between atoms: C_2  and  C_12
REMARK    2  A    between atoms: N_3  and  C_4
REMARK    3  A    between atoms: C_4  and  C_5
REMARK    4  A    between atoms: C_5  and  C_6
REMARK    5  A    between atoms: C_17  and  C_18
REMARK                            x       y       z     vdW  Elec       q    Type
REMARK                         _______ _______ _______ _____ _____    ______ ____
ROOT
ATOM      1  C   UNL     1       3.072   3.966  18.705  0.00  0.00    +0.000 A 
ATOM      2  C   UNL     1       2.423   3.174  19.670  0.00  0.00    +0.000 A 
ATOM      3  C   UNL     1       1.646   3.743  20.679  0.00  0.00    +0.000 A 
ATOM      4  C   UNL     1       1.485   5.130  20.756  0.00  0.00    +0.000 A 
ATOM      5  C   UNL     1       2.115   5.956  19.800  0.00  0.00    +0.000 A 
ATOM      6  C   UNL     1       2.154   7.362  19.536  0.00  0.00    +0.000 A 
ATOM      7  C   UNL     1       2.990   7.515  18.449  0.00  0.00    +0.000 A 
ATOM      8  O   UNL     1       3.439   6.312  18.010  0.00  0.00    +0.000 OA
ATOM      9  C   UNL     1       2.899   5.350  18.820  0.00  0.00    +0.000 A 
ENDROOT
BRANCH   6  10
ATOM     10  C   UNL     1       1.438   8.457  20.172  0.00  0.00    +0.000 A 
ATOM     11  C   UNL     1       1.224   8.494  21.559  0.00  0.00    +0.000 A 
ATOM     12  C   UNL     1       0.547   9.570  22.146  0.00  0.00    +0.000 A 
ATOM     13  C   UNL     1       0.078  10.607  21.347  0.00  0.00    +0.000 A 
ATOM     14  F   UNL     1      -0.565  11.637  21.912  0.00  0.00    +0.000 F 
ATOM     15  C   UNL     1       0.279  10.576  19.975  0.00  0.00    +0.000 A 
ATOM     16  F   UNL     1      -0.176  11.571  19.201  0.00  0.00    +0.000 F 
ATOM     17  C   UNL     1       0.961   9.516  19.385  0.00  0.00    +0.000 A 
ENDBRANCH   6  10
BRANCH   1  19
ATOM     18  O   UNL     1       3.755   2.102  17.441  0.00  0.00    +0.000 OA
ATOM     19  C   UNL     1       3.853   3.313  17.626  0.00  0.00    +0.000 C 
ATOM     20  N   UNL     1       4.654   4.123  16.860  0.00  0.00    +0.000 N 
ATOM     21  H   UNL     1       4.695   5.114  17.078  0.00  0.00    +0.000 HD
BRANCH  20  22
ATOM     22  C   UNL     1       5.418   3.615  15.737  0.00  0.00    +0.000 C 
BRANCH  22  23
ATOM     23  C   UNL     1       6.579   4.546  15.392  0.00  0.00    +0.000 C 
BRANCH  23  24
ATOM     24  C   UNL     1       7.076   5.318  16.585  0.00  0.00    +0.000 A 
ATOM     25  C   UNL     1       7.110   6.719  16.562  0.00  0.00    +0.000 A 
ATOM     26  C   UNL     1       7.582   7.432  17.666  0.00  0.00    +0.000 A 
ATOM     27  C   UNL     1       8.028   6.752  18.797  0.00  0.00    +0.000 A 
ATOM     28  C   UNL     1       8.003   5.358  18.828  0.00  0.00    +0.000 A 
ATOM     29  C   UNL     1       7.531   4.644  17.726  0.00  0.00    +0.000 A 
ENDBRANCH  23  24
ENDBRANCH  22  23
ENDBRANCH  20  22
ENDBRANCH   1  19
TORSDOF 5
ENDMDL
MODEL 3
REMARK VINA RESULT:      -8.8      1.856      3.271
REMARK  Name = 
REMARK  5 active torsions:
REMARK  status: ('A' for Active; 'I' for Inactive)
REMARK    1  A    between atoms: C_2  and  C_12
REMARK    2  A    between atoms: N_3  and  C_4
REMARK    3  A    between atoms: C_4  and  C_5
REMARK    4  A    between atoms: C_5  and  C_6
REMARK    5  A    between atoms: C_17  and  C_18
REMARK                            x       y       z     vdW  Elec       q    Type
REMARK                         _______ _______ _______ _____ _____    ______ ____
ROOT
ATOM      1  C   UNL     1       3.677   4.959  18.844  0.00  0.00    +0.000 A 
ATOM      2  C   UNL     1       3.126   4.229  19.914  0.00  0.00    +0.000 A 
ATOM      3  C   UNL     1       2.167   4.786  20.759  0.00  0.00    +0.000 A 
ATOM      4  C   UNL     1       1.717   6.095  20.561  0.00  0.00    +0.000 A 
ATOM      5  C   UNL     1       2.241   6.854  19.492  0.00  0.00    +0.000 A 
ATOM      6  C   UNL     1       2.012   8.165  18.965  0.00  0.00    +0.000 A 
ATOM      7  C   UNL     1       2.887   8.301  17.907  0.00  0.00    +0.000 A 
ATOM      8  O   UNL     1       3.609   7.165  17.727  0.00  0.00    +0.000 OA
ATOM      9  C   UNL     1       3.213   6.269  18.683  0.00  0.00    +0.000 A 
ENDROOT
BRANCH   6  10
ATOM     10  C   UNL     1       1.034   9.173  19.346  0.00  0.00    +0.000 A 
ATOM     11  C   UNL     1       0.829   9.533  20.688  0.00  0.00    +0.000 A 
ATOM     12  C   UNL     1      -0.106  10.520  21.023  0.00  0.00    +0.000 A 
ATOM     13  C   UNL     1      -0.840  11.143  20.021  0.00  0.00    +0.000 A 
ATOM     14  F   UNL     1      -1.730  12.090  20.345  0.00  0.00    +0.000 F 
ATOM     15  C   UNL     1      -0.648  10.789  18.693  0.00  0.00    +0.000 A 
ATOM     16  F   UNL     1      -1.359  11.384  17.725  0.00  0.00    +0.000 F 
ATOM     17  C   UNL     1       0.287   9.818  18.350  0.00  0.00    +0.000 A 
ENDBRANCH   6  10
BRANCH   1  19
ATOM     18  O   UNL     1       4.389   3.245  17.397  0.00  0.00    +0.000 OA
ATOM     19  C   UNL     1       4.663   4.310  17.946  0.00  0.00    +0.000 C 
ATOM     20  N   UNL     1       5.858   4.961  17.760  0.00  0.00    +0.000 N 
ATOM     21  H   UNL     1       6.020   5.832  18.256  0.00  0.00    +0.000 HD
BRANCH  20  22
ATOM     22  C   UNL     1       6.878   4.461  16.859  0.00  0.00    +0.000 C 
BRANCH  22  23
ATOM     23  C   UNL     1       7.111   5.425  15.698  0.00  0.00    +0.000 C 
BRANCH  23  24
ATOM     24  C   UNL     1       6.827   4.797  14.359  0.00  0.00    +0.000 A 
ATOM     25  C   UNL     1       5.727   3.946  14.191  0.00  0.00    +0.000 A 
ATOM     26  C   UNL     1       5.472   3.357  12.952  0.00  0.00    +0.000 A 
ATOM     27  C   UNL     1       6.316   3.609  11.872  0.00  0.00    +0.000 A 
ATOM     28  C   UNL     1       7.416   4.451  12.030  0.00  0.00    +0.000 A 
ATOM     29  C   UNL     1       7.672   5.041  13.268  0.00  0.00    +0.000 A 
ENDBRANCH  23  24
ENDBRANCH  22  23
ENDBRANCH  20  22
ENDBRANCH   1  19
TORSDOF 5
ENDMDL
MODEL 4
REMARK VINA RESULT:      -8.6      1.481      2.704
REMARK  Name = 
REMARK  5 active torsions:
REMARK  status: ('A' for Active; 'I' for Inactive)
REMARK    1  A    between atoms: C_2  and  C_12
REMARK    2  A    between atoms: N_3  and  C_4
REMARK    3  A    between atoms: C_4  and  C_5
REMARK    4  A    between atoms: C_5  and  C_6
REMARK    5  A    between atoms: C_17  and  C_18
REMARK                            x       y       z     vdW  Elec       q    Type
REMARK                         _______ _______ _______ _____ _____    ______ ____
ROOT
ATOM      1  C   UNL     1       3.336   4.622  18.890  0.00  0.00    +0.000 A 
ATOM      2  C   UNL     1       2.856   3.736  19.873  0.00  0.00    +0.000 A 
ATOM      3  C   UNL     1       2.027   4.171  20.906  0.00  0.00    +0.000 A 
ATOM      4  C   UNL     1       1.640   5.512  20.992  0.00  0.00    +0.000 A 
ATOM      5  C   UNL     1       2.095   6.428  20.019  0.00  0.00    +0.000 A 
ATOM      6  C   UNL     1       1.893   7.821  19.759  0.00  0.00    +0.000 A 
ATOM      7  C   UNL     1       2.658   8.108  18.647  0.00  0.00    +0.000 A 
ATOM      8  O   UNL     1       3.287   6.995  18.191  0.00  0.00    +0.000 OA
ATOM      9  C   UNL     1       2.939   5.959  19.015  0.00  0.00    +0.000 A 
ENDROOT
BRANCH   6  10
ATOM     10  C   UNL     1       1.024   8.784  20.418  0.00  0.00    +0.000 A 
ATOM     11  C   UNL     1       0.329   9.767  19.695  0.00  0.00    +0.000 A 
ATOM     12  C   UNL     1      -0.516  10.669  20.355  0.00  0.00    +0.000 A 
ATOM     13  C   UNL     1      -0.660  10.594  21.735  0.00  0.00    +0.000 A 
ATOM     14  F   UNL     1      -1.472  11.456  22.362  0.00  0.00    +0.000 F 
ATOM     15  C   UNL     1       0.028   9.630  22.458  0.00  0.00    +0.000 A 
ATOM     16  F   UNL     1      -0.106   9.559  23.789  0.00  0.00    +0.000 F 
ATOM     17  C   UNL     1       0.859   8.722  21.809  0.00  0.00    +0.000 A 
ENDBRANCH   6  10
BRANCH   1  19
ATOM     18  O   UNL     1       3.690   3.385  16.920  0.00  0.00    +0.000 OA
ATOM     19  C   UNL     1       4.181   4.105  17.787  0.00  0.00    +0.000 C 
ATOM     20  N   UNL     1       5.501   4.482  17.786  0.00  0.00    +0.000 N 
ATOM     21  H   UNL     1       5.841   5.070  18.541  0.00  0.00    +0.000 HD
BRANCH  20  22
ATOM     22  C   UNL     1       6.415   4.094  16.728  0.00  0.00    +0.000 C 
BRANCH  22  23
ATOM     23  C   UNL     1       6.660   5.248  15.758  0.00  0.00    +0.000 C 
BRANCH  23  24
ATOM     24  C   UNL     1       6.733   4.792  14.325  0.00  0.00    +0.000 A 
ATOM     25  C   UNL     1       5.862   3.804  13.847  0.00  0.00    +0.000 A 
ATOM     26  C   UNL     1       5.939   3.376  12.520  0.00  0.00    +0.000 A 
ATOM     27  C   UNL     1       6.889   3.928  11.663  0.00  0.00    +0.000 A 
ATOM     28  C   UNL     1       7.763   4.908  12.130  0.00  0.00    +0.000 A 
ATOM     29  C   UNL     1       7.687   5.337  13.455  0.00  0.00    +0.000 A 
ENDBRANCH  23  24
ENDBRANCH  22  23
ENDBRANCH  20  22
ENDBRANCH   1  19
TORSDOF 5
ENDMDL
MODEL 5
REMARK VINA RESULT:      -8.6      1.099      1.922
REMARK  Name = 
REMARK  5 active torsions:
REMARK  status: ('A' for Active; 'I' for Inactive)
REMARK    1  A    between atoms: C_2  and  C_12
REMARK    2  A    between atoms: N_3  and  C_4
REMARK    3  A    between atoms: C_4  and  C_5
REMARK    4  A    between atoms: C_5  and  C_6
REMARK    5  A    between atoms: C_17  and  C_18
REMARK                            x       y       z     vdW  Elec       q    Type
REMARK                         _______ _______ _______ _____ _____    ______ ____
ROOT
ATOM      1  C   UNL     1       3.085   4.879  18.581  0.00  0.00    +0.000 A 
ATOM      2  C   UNL     1       2.598   4.164  19.691  0.00  0.00    +0.000 A 
ATOM      3  C   UNL     1       1.844   4.786  20.686  0.00  0.00    +0.000 A 
ATOM      4  C   UNL     1       1.542   6.148  20.604  0.00  0.00    +0.000 A 
ATOM      5  C   UNL     1       2.007   6.896  19.500  0.00  0.00    +0.000 A 
ATOM      6  C   UNL     1       1.876   8.252  19.060  0.00  0.00    +0.000 A 
ATOM      7  C   UNL     1       2.606   8.338  17.892  0.00  0.00    +0.000 A 
ATOM      8  O   UNL     1       3.146   7.135  17.568  0.00  0.00    +0.000 OA
ATOM      9  C   UNL     1       2.774   6.243  18.537  0.00  0.00    +0.000 A 
ENDROOT
BRANCH   6  10
ATOM     10  C   UNL     1       1.097   9.348  19.615  0.00  0.00    +0.000 A 
ATOM     11  C   UNL     1       1.007   9.563  21.000  0.00  0.00    +0.000 A 
ATOM     12  C   UNL     1       0.265  10.639  21.505  0.00  0.00    +0.000 A 
ATOM     13  C   UNL     1      -0.393  11.494  20.628  0.00  0.00    +0.000 A 
ATOM     14  F   UNL     1      -1.097  12.524  21.115  0.00  0.00    +0.000 F 
ATOM     15  C   UNL     1      -0.314  11.285  19.259  0.00  0.00    +0.000 A 
ATOM     16  F   UNL     1      -0.951  12.105  18.412  0.00  0.00    +0.000 F 
ATOM     17  C   UNL     1       0.431  10.227  18.749  0.00  0.00    +0.000 A 
ENDBRANCH   6  10
BRANCH   1  19
ATOM     18  O   UNL     1       3.884   2.937  17.519  0.00  0.00    +0.000 OA
ATOM     19  C   UNL     1       3.846   4.165  17.527  0.00  0.00    +0.000 C 
ATOM     20  N   UNL     1       4.473   4.939  16.581  0.00  0.00    +0.000 N 
ATOM     21  H   UNL     1       4.409   5.950  16.657  0.00  0.00    +0.000 HD
BRANCH  20  22
ATOM     22  C   UNL     1       5.197   4.360  15.466  0.00  0.00    +0.000 C 
BRANCH  22  23
ATOM     23  C   UNL     1       6.679   4.196  15.793  0.00  0.00    +0.000 C 
BRANCH  23  24
ATOM     24  C   UNL     1       7.155   5.179  16.829  0.00  0.00    +0.000 A 
ATOM     25  C   UNL     1       7.564   4.738  18.095  0.00  0.00    +0.000 A 
ATOM     26  C   UNL     1       7.994   5.653  19.057  0.00  0.00    +0.000 A 
ATOM     27  C   UNL     1       8.016   7.015  18.765  0.00  0.00    +0.000 A 
ATOM     28  C   UNL     1       7.607   7.465  17.510  0.00  0.00    +0.000 A 
ATOM     29  C   UNL     1       7.177   6.552  16.547  0.00  0.00    +0.000 A 
ENDBRANCH  23  24
ENDBRANCH  22  23
ENDBRANCH  20  22
ENDBRANCH   1  19
TORSDOF 5
ENDMDL
MODEL 6
REMARK VINA RESULT:      -8.6      3.550      6.112
REMARK  Name = 
REMARK  5 active torsions:
REMARK  status: ('A' for Active; 'I' for Inactive)
REMARK    1  A    between atoms: C_2  and  C_12
REMARK    2  A    between atoms: N_3  and  C_4
REMARK    3  A    between atoms: C_4  and  C_5
REMARK    4  A    between atoms: C_5  and  C_6
REMARK    5  A    between atoms: C_17  and  C_18
REMARK                            x       y       z     vdW  Elec       q    Type
REMARK                         _______ _______ _______ _____ _____    ______ ____
ROOT
ATOM      1  C   UNL     1       0.389   9.843  18.697  0.00  0.00    +0.000 A 
ATOM      2  C   UNL     1      -0.544  10.259  17.730  0.00  0.00    +0.000 A 
ATOM      3  C   UNL     1      -1.618  11.087  18.060  0.00  0.00    +0.000 A 
ATOM      4  C   UNL     1      -1.794  11.535  19.373  0.00  0.00    +0.000 A 
ATOM      5  C   UNL     1      -0.872  11.144  20.368  0.00  0.00    +0.000 A 
ATOM      6  C   UNL     1      -0.702  11.418  21.763  0.00  0.00    +0.000 A 
ATOM      7  C   UNL     1       0.404  10.691  22.155  0.00  0.00    +0.000 A 
ATOM      8  O   UNL     1       0.939  10.019  21.103  0.00  0.00    +0.000 OA
ATOM      9  C   UNL     1       0.175  10.300  20.003  0.00  0.00    +0.000 A 
ENDROOT
BRANCH   6  10
ATOM     10  C   UNL     1      -1.435  12.317  22.640  0.00  0.00    +0.000 A 
ATOM     11  C   UNL     1      -0.959  13.603  22.945  0.00  0.00    +0.000 A 
ATOM     12  C   UNL     1      -1.696  14.455  23.777  0.00  0.00    +0.000 A 
ATOM     13  C   UNL     1      -2.904  14.020  24.312  0.00  0.00    +0.000 A 
ATOM     14  F   UNL     1      -3.608  14.839  25.104  0.00  0.00    +0.000 F 
ATOM     15  C   UNL     1      -3.378  12.749  24.021  0.00  0.00    +0.000 A 
ATOM     16  F   UNL     1      -4.539  12.326  24.539  0.00  0.00    +0.000 F 
ATOM     17  C   UNL     1      -2.658  11.902  23.185  0.00  0.00    +0.000 A 
ENDBRANCH   6  10
BRANCH   1  19
ATOM     18  O   UNL     1       2.164   9.261  17.266  0.00  0.00    +0.000 OA
ATOM     19  C   UNL     1       1.538   8.998  18.290  0.00  0.00    +0.000 C 
ATOM     20  N   UNL     1       1.857   7.945  19.112  0.00  0.00    +0.000 N 
ATOM     21  H   UNL     1       1.288   7.780  19.936  0.00  0.00    +0.000 HD
BRANCH  20  22
ATOM     22  C   UNL     1       2.995   7.084  18.857  0.00  0.00    +0.000 C 
BRANCH  22  23
ATOM     23  C   UNL     1       2.566   5.789  18.168  0.00  0.00    +0.000 C 
BRANCH  23  24
ATOM     24  C   UNL     1       2.111   4.738  19.145  0.00  0.00    +0.000 A 
ATOM     25  C   UNL     1       2.532   4.777  20.481  0.00  0.00    +0.000 A 
ATOM     26  C   UNL     1       2.117   3.795  21.381  0.00  0.00    +0.000 A 
ATOM     27  C   UNL     1       1.283   2.764  20.954  0.00  0.00    +0.000 A 
ATOM     28  C   UNL     1       0.862   2.713  19.626  0.00  0.00    +0.000 A 
ATOM     29  C   UNL     1       1.275   3.694  18.725  0.00  0.00    +0.000 A 
ENDBRANCH  23  24
ENDBRANCH  22  23
ENDBRANCH  20  22
ENDBRANCH   1  19
TORSDOF 5
ENDMDL
MODEL 7
REMARK VINA RESULT:      -8.5      2.443      4.451
REMARK  Name = 
REMARK  5 active torsions:
REMARK  status: ('A' for Active; 'I' for Inactive)
REMARK    1  A    between atoms: C_2  and  C_12
REMARK    2  A    between atoms: N_3  and  C_4
REMARK    3  A    between atoms: C_4  and  C_5
REMARK    4  A    between atoms: C_5  and  C_6
REMARK    5  A    between atoms: C_17  and  C_18
REMARK                            x       y       z     vdW  Elec       q    Type
REMARK                         _______ _______ _______ _____ _____    ______ ____
ROOT
ATOM      1  C   UNL     1       3.116   6.935  18.461  0.00  0.00    +0.000 A 
ATOM      2  C   UNL     1       3.251   7.857  17.407  0.00  0.00    +0.000 A 
ATOM      3  C   UNL     1       2.556   9.066  17.400  0.00  0.00    +0.000 A 
ATOM      4  C   UNL     1       1.701   9.402  18.454  0.00  0.00    +0.000 A 
ATOM      5  C   UNL     1       1.547   8.505  19.534  0.00  0.00    +0.000 A 
ATOM      6  C   UNL     1       0.820   8.511  20.766  0.00  0.00    +0.000 A 
ATOM      7  C   UNL     1       1.088   7.296  21.364  0.00  0.00    +0.000 A 
ATOM      8  O   UNL     1       1.945   6.563  20.608  0.00  0.00    +0.000 OA
ATOM      9  C   UNL     1       2.243   7.298  19.493  0.00  0.00    +0.000 A 
ENDROOT
BRANCH   6  10
ATOM     10  C   UNL     1       0.014   9.557  21.377  0.00  0.00    +0.000 A 
ATOM     11  C   UNL     1      -0.320   9.531  22.741  0.00  0.00    +0.000 A 
ATOM     12  C   UNL     1      -1.081  10.561  23.306  0.00  0.00    +0.000 A 
ATOM     13  C   UNL     1      -1.515  11.614  22.509  0.00  0.00    +0.000 A 
ATOM     14  F   UNL     1      -2.239  12.600  23.054  0.00  0.00    +0.000 F 
ATOM     15  C   UNL     1      -1.196  11.644  21.159  0.00  0.00    +0.000 A 
ATOM     16  F   UNL     1      -1.617  12.656  20.387  0.00  0.00    +0.000 F 
ATOM     17  C   UNL     1      -0.429  10.631  20.593  0.00  0.00    +0.000 A 
ENDBRANCH   6  10
BRANCH   1  19
ATOM     18  O   UNL     1       4.758   5.478  19.309  0.00  0.00    +0.000 OA
ATOM     19  C   UNL     1       3.908   5.682  18.445  0.00  0.00    +0.000 C 
ATOM     20  N   UNL     1       3.629   4.784  17.444  0.00  0.00    +0.000 N 
ATOM     21  H   UNL     1       2.922   5.024  16.757  0.00  0.00    +0.000 HD
BRANCH  20  22
ATOM     22  C   UNL     1       4.291   3.496  17.356  0.00  0.00    +0.000 C 
BRANCH  22  23
ATOM     23  C   UNL     1       3.344   2.360  17.737  0.00  0.00    +0.000 C 
BRANCH  23  24
ATOM     24  C   UNL     1       2.646   2.605  19.049  0.00  0.00    +0.000 A 
ATOM     25  C   UNL     1       3.334   2.456  20.260  0.00  0.00    +0.000 A 
ATOM     26  C   UNL     1       2.681   2.673  21.474  0.00  0.00    +0.000 A 
ATOM     27  C   UNL     1       1.335   3.036  21.489  0.00  0.00    +0.000 A 
ATOM     28  C   UNL     1       0.640   3.182  20.289  0.00  0.00    +0.000 A 
ATOM     29  C   UNL     1       1.291   2.966  19.074  0.00  0.00    +0.000 A 
ENDBRANCH  23  24
ENDBRANCH  22  23
ENDBRANCH  20  22
ENDBRANCH   1  19
TORSDOF 5
ENDMDL
MODEL 8
REMARK VINA RESULT:      -8.4      1.840      3.005
REMARK  Name = 
REMARK  5 active torsions:
REMARK  status: ('A' for Active; 'I' for Inactive)
REMARK    1  A    between atoms: C_2  and  C_12
REMARK    2  A    between atoms: N_3  and  C_4
REMARK    3  A    between atoms: C_4  and  C_5
REMARK    4  A    between atoms: C_5  and  C_6
REMARK    5  A    between atoms: C_17  and  C_18
REMARK                            x       y       z     vdW  Elec       q    Type
REMARK                         _______ _______ _______ _____ _____    ______ ____
ROOT
ATOM      1  C   UNL     1       3.564   5.166  19.245  0.00  0.00    +0.000 A 
ATOM      2  C   UNL     1       2.949   4.517  20.332  0.00  0.00    +0.000 A 
ATOM      3  C   UNL     1       1.920   5.119  21.055  0.00  0.00    +0.000 A 
ATOM      4  C   UNL     1       1.462   6.395  20.713  0.00  0.00    +0.000 A 
ATOM      5  C   UNL     1       2.050   7.073  19.623  0.00  0.00    +0.000 A 
ATOM      6  C   UNL     1       1.836   8.329  18.970  0.00  0.00    +0.000 A 
ATOM      7  C   UNL     1       2.783   8.396  17.969  0.00  0.00    +0.000 A 
ATOM      8  O   UNL     1       3.538   7.267  17.940  0.00  0.00    +0.000 OA
ATOM      9  C   UNL     1       3.089   6.446  18.939  0.00  0.00    +0.000 A 
ENDROOT
BRANCH   6  10
ATOM     10  C   UNL     1       0.814   9.341  19.190  0.00  0.00    +0.000 A 
ATOM     11  C   UNL     1       0.060   9.873  18.131  0.00  0.00    +0.000 A 
ATOM     12  C   UNL     1      -0.930  10.832  18.376  0.00  0.00    +0.000 A 
ATOM     13  C   UNL     1      -1.162  11.266  19.676  0.00  0.00    +0.000 A 
ATOM     14  F   UNL     1      -2.113  12.181  19.906  0.00  0.00    +0.000 F 
ATOM     15  C   UNL     1      -0.418  10.751  20.727  0.00  0.00    +0.000 A 
ATOM     16  F   UNL     1      -0.636  11.172  21.980  0.00  0.00    +0.000 F 
ATOM     17  C   UNL     1       0.559   9.789  20.494  0.00  0.00    +0.000 A 
ENDBRANCH   6  10
BRANCH   1  19
ATOM     18  O   UNL     1       5.606   4.011  19.063  0.00  0.00    +0.000 OA
ATOM     19  C   UNL     1       4.626   4.468  18.480  0.00  0.00    +0.000 C 
ATOM     20  N   UNL     1       4.442   4.354  17.124  0.00  0.00    +0.000 N 
ATOM     21  H   UNL     1       3.613   4.766  16.708  0.00  0.00    +0.000 HD
BRANCH  20  22
ATOM     22  C   UNL     1       5.376   3.640  16.275  0.00  0.00    +0.000 C 
BRANCH  22  23
ATOM     23  C   UNL     1       6.519   4.548  15.824  0.00  0.00    +0.000 C 
BRANCH  23  24
ATOM     24  C   UNL     1       6.752   4.489  14.338  0.00  0.00    +0.000 A 
ATOM     25  C   UNL     1       6.094   3.533  13.552  0.00  0.00    +0.000 A 
ATOM     26  C   UNL     1       6.320   3.475  12.175  0.00  0.00    +0.000 A 
ATOM     27  C   UNL     1       7.208   4.365  11.575  0.00  0.00    +0.000 A 
ATOM     28  C   UNL     1       7.871   5.316  12.349  0.00  0.00    +0.000 A 
ATOM     29  C   UNL     1       7.646   5.377  13.725  0.00  0.00    +0.000 A 
ENDBRANCH  23  24
ENDBRANCH  22  23
ENDBRANCH  20  22
ENDBRANCH   1  19
TORSDOF 5
ENDMDL
MODEL 9
REMARK VINA RESULT:      -8.4      4.509      8.694
REMARK  Name = 
REMARK  5 active torsions:
REMARK  status: ('A' for Active; 'I' for Inactive)
REMARK    1  A    between atoms: C_2  and  C_12
REMARK    2  A    between atoms: N_3  and  C_4
REMARK    3  A    between atoms: C_4  and  C_5
REMARK    4  A    between atoms: C_5  and  C_6
REMARK    5  A    between atoms: C_17  and  C_18
REMARK                            x       y       z     vdW  Elec       q    Type
REMARK                         _______ _______ _______ _____ _____    ______ ____
ROOT
ATOM      1  C   UNL     1       2.813   4.677  18.944  0.00  0.00    +0.000 A 
ATOM      2  C   UNL     1       2.500   3.305  18.973  0.00  0.00    +0.000 A 
ATOM      3  C   UNL     1       2.926   2.439  17.966  0.00  0.00    +0.000 A 
ATOM      4  C   UNL     1       3.688   2.913  16.894  0.00  0.00    +0.000 A 
ATOM      5  C   UNL     1       4.028   4.282  16.837  0.00  0.00    +0.000 A 
ATOM      6  C   UNL     1       4.795   5.105  15.952  0.00  0.00    +0.000 A 
ATOM      7  C   UNL     1       4.709   6.384  16.462  0.00  0.00    +0.000 A 
ATOM      8  O   UNL     1       3.976   6.401  17.605  0.00  0.00    +0.000 OA
ATOM      9  C   UNL     1       3.566   5.119  17.850  0.00  0.00    +0.000 A 
ENDROOT
BRANCH   6  10
ATOM     10  C   UNL     1       5.594   4.745  14.790  0.00  0.00    +0.000 A 
ATOM     11  C   UNL     1       6.894   5.242  14.605  0.00  0.00    +0.000 A 
ATOM     12  C   UNL     1       7.647   4.864  13.487  0.00  0.00    +0.000 A 
ATOM     13  C   UNL     1       7.099   3.996  12.549  0.00  0.00    +0.000 A 
ATOM     14  F   UNL     1       7.823   3.633  11.482  0.00  0.00    +0.000 F 
ATOM     15  C   UNL     1       5.812   3.506  12.720  0.00  0.00    +0.000 A 
ATOM     16  F   UNL     1       5.279   2.674  11.815  0.00  0.00    +0.000 F 
ATOM     17  C   UNL     1       5.063   3.867  13.835  0.00  0.00    +0.000 A 
ENDBRANCH   6  10
BRANCH   1  19
ATOM     18  O   UNL     1       2.289   5.101  21.199  0.00  0.00    +0.000 OA
ATOM     19  C   UNL     1       2.373   5.552  20.059  0.00  0.00    +0.000 C 
ATOM     20  N   UNL     1       2.092   6.859  19.749  0.00  0.00    +0.000 N 
ATOM     21  H   UNL     1       2.172   7.159  18.783  0.00  0.00    +0.000 HD
BRANCH  20  22
ATOM     22  C   UNL     1       1.713   7.828  20.760  0.00  0.00    +0.000 C 
BRANCH  22  23
ATOM     23  C   UNL     1       1.057   9.056  20.131  0.00  0.00    +0.000 C 
BRANCH  23  24
ATOM     24  C   UNL     1       0.258   9.857  21.124  0.00  0.00    +0.000 A 
ATOM     25  C   UNL     1      -0.157  11.160  20.818  0.00  0.00    +0.000 A 
ATOM     26  C   UNL     1      -0.889  11.904  21.745  0.00  0.00    +0.000 A 
ATOM     27  C   UNL     1      -1.206  11.356  22.986  0.00  0.00    +0.000 A 
ATOM     28  C   UNL     1      -0.794  10.062  23.303  0.00  0.00    +0.000 A 
ATOM     29  C   UNL     1      -0.063   9.317  22.377  0.00  0.00    +0.000 A 
ENDBRANCH  23  24
ENDBRANCH  22  23
ENDBRANCH  20  22
ENDBRANCH   1  19
TORSDOF 5
ENDMDL
