MODEL 1
REMARK VINA RESULT:      -7.7      0.000      0.000
REMARK  Name = 
REMARK  12 active torsions:
REMARK  status: ('A' for Active; 'I' for Inactive)
REMARK    1  A    between atoms: C_2  and  C_3
REMARK    2  A    between atoms: C_3  and  O_4
REMARK    3  A    between atoms: O_4  and  C_5
REMARK    4  A    between atoms: C_5  and  C_7
REMARK    5  A    between atoms: C_9  and  C_10
REMARK    6  A    between atoms: C_17  and  C_18
REMARK    7  A    between atoms: C_18  and  C_19
REMARK    8  A    between atoms: C_19  and  C_20
REMARK    9  A    between atoms: C_20  and  O_21
REMARK   10  A    between atoms: C_22  and  O_23
REMARK   11  A    between atoms: O_23  and  C_24
REMARK   12  A    between atoms: C_24  and  C_25
REMARK                            x       y       z     vdW  Elec       q    Type
REMARK                         _______ _______ _______ _____ _____    ______ ____
ROOT
ATOM      1  C   UNL     1       5.502   5.810  17.915  0.00  0.00    +0.000 C 
ATOM      2  C   UNL     1       4.382   6.437  17.527  0.00  0.00    +0.000 C 
ATOM      3  C   UNL     1       3.019   6.082  18.042  0.00  0.00    +0.000 C 
ATOM      4  C   UNL     1       3.074   4.968  19.121  0.00  0.00    +0.000 C 
ATOM      5  C   UNL     1       4.252   4.012  18.823  0.00  0.00    +0.000 C 
ATOM      6  O   UNL     1       5.500   4.714  18.751  0.00  0.00    +0.000 OA
ENDROOT
BRANCH   3   7
ATOM      7  C   UNL     1       2.325   7.341  18.561  0.00  0.00    +0.000 A 
ATOM      8  C   UNL     1       2.010   8.396  17.692  0.00  0.00    +0.000 A 
ATOM      9  C   UNL     1       1.423   9.568  18.182  0.00  0.00    +0.000 A 
ATOM     10  C   UNL     1       1.151   9.694  19.542  0.00  0.00    +0.000 A 
ATOM     11 BR   UNL     1       0.383  11.287  20.209  0.00  0.00    +0.000 Br
ATOM     12  C   UNL     1       1.448   8.655  20.419  0.00  0.00    +0.000 A 
ATOM     13  C   UNL     1       2.033   7.486  19.930  0.00  0.00    +0.000 A 
ENDBRANCH   3   7
BRANCH   1  14
ATOM     14  C   UNL     1       6.801   6.324  17.374  0.00  0.00    +0.000 C 
ATOM     15  O   UNL     1       7.151   7.494  17.441  0.00  0.00    +0.000 OA
BRANCH  14  16
ATOM     16  O   UNL     1       7.452   5.333  16.712  0.00  0.00    +0.000 OA
BRANCH  16  17
ATOM     17  C   UNL     1       7.182   5.275  15.307  0.00  0.00    +0.000 C 
BRANCH  17  19
ATOM     18  C   UNL     1       5.860   3.830  13.748  0.00  0.00    +0.000 C 
ATOM     19  C   UNL     1       6.390   4.053  14.959  0.00  0.00    +0.000 C 
ENDBRANCH  17  19
ENDBRANCH  16  17
ENDBRANCH  14  16
ENDBRANCH   1  14
BRANCH   4  20
ATOM     20  C   UNL     1       1.695   4.261  19.230  0.00  0.00    +0.000 C 
BRANCH  20  21
ATOM     21  C   UNL     1       1.078   4.143  20.631  0.00  0.00    +0.000 C 
BRANCH  21  22
ATOM     22  C   UNL     1       1.314   2.799  21.316  0.00  0.00    +0.000 C 
BRANCH  22  23
ATOM     23  O   UNL     1       2.444   2.871  22.174  0.00  0.00    +0.000 OA
ATOM     24  H   UNL     1       3.219   2.579  21.665  0.00  0.00    +0.000 HD
ENDBRANCH  22  23
ENDBRANCH  21  22
ENDBRANCH  20  21
ENDBRANCH   4  20
BRANCH   5  25
ATOM     25  O   UNL     1       4.308   3.067  19.893  0.00  0.00    +0.000 OA
BRANCH  25  26
ATOM     26  C   UNL     1       4.440   1.714  19.481  0.00  0.00    +0.000 C 
ATOM     27  C   UNL     1       3.593   1.533  18.235  0.00  0.00    +0.000 C 
ENDBRANCH  25  26
ENDBRANCH   5  25
TORSDOF 11
ENDMDL
MODEL 2
REMARK VINA RESULT:      -7.5      1.263      1.609
REMARK  Name = 
REMARK  12 active torsions:
REMARK  status: ('A' for Active; 'I' for Inactive)
REMARK    1  A    between atoms: C_2  and  C_3
REMARK    2  A    between atoms: C_3  and  O_4
REMARK    3  A    between atoms: O_4  and  C_5
REMARK    4  A    between atoms: C_5  and  C_7
REMARK    5  A    between atoms: C_9  and  C_10
REMARK    6  A    between atoms: C_17  and  C_18
REMARK    7  A    between atoms: C_18  and  C_19
REMARK    8  A    between atoms: C_19  and  C_20
REMARK    9  A    between atoms: C_20  and  O_21
REMARK   10  A    between atoms: C_22  and  O_23
REMARK   11  A    between atoms: O_23  and  C_24
REMARK   12  A    between atoms: C_24  and  C_25
REMARK                            x       y       z     vdW  Elec       q    Type
REMARK                         _______ _______ _______ _____ _____    ______ ____
ROOT
ATOM      1  C   UNL     1       5.745   5.852  17.673  0.00  0.00    +0.000 C 
ATOM      2  C   UNL     1       4.705   6.645  17.375  0.00  0.00    +0.000 C 
ATOM      3  C   UNL     1       3.275   6.245  17.595  0.00  0.00    +0.000 C 
ATOM      4  C   UNL     1       3.156   4.854  18.272  0.00  0.00    +0.000 C 
ATOM      5  C   UNL     1       4.332   3.955  17.826  0.00  0.00    +0.000 C 
ATOM      6  O   UNL     1       5.599   4.556  18.119  0.00  0.00    +0.000 OA
ENDROOT
BRANCH   3   7
ATOM      7  C   UNL     1       2.560   7.331  18.399  0.00  0.00    +0.000 A 
ATOM      8  C   UNL     1       2.315   7.164  19.771  0.00  0.00    +0.000 A 
ATOM      9  C   UNL     1       1.613   8.138  20.490  0.00  0.00    +0.000 A 
ATOM     10  C   UNL     1       1.151   9.282  19.844  0.00  0.00    +0.000 A 
ATOM     11 BR   UNL     1       0.180  10.585  20.808  0.00  0.00    +0.000 Br
ATOM     12  C   UNL     1       1.392   9.470  18.486  0.00  0.00    +0.000 A 
ATOM     13  C   UNL     1       2.092   8.499  17.769  0.00  0.00    +0.000 A 
ENDBRANCH   3   7
BRANCH   1  14
ATOM     14  C   UNL     1       7.118   6.414  17.470  0.00  0.00    +0.000 C 
ATOM     15  O   UNL     1       7.765   6.965  18.351  0.00  0.00    +0.000 OA
BRANCH  14  16
ATOM     16  O   UNL     1       7.468   6.322  16.162  0.00  0.00    +0.000 OA
BRANCH  16  17
ATOM     17  C   UNL     1       7.430   4.995  15.626  0.00  0.00    +0.000 C 
BRANCH  17  19
ATOM     18  C   UNL     1       6.065   3.809  13.894  0.00  0.00    +0.000 C 
ATOM     19  C   UNL     1       6.598   4.937  14.383  0.00  0.00    +0.000 C 
ENDBRANCH  17  19
ENDBRANCH  16  17
ENDBRANCH  14  16
ENDBRANCH   1  14
BRANCH   4  20
ATOM     20  C   UNL     1       1.753   4.246  17.997  0.00  0.00    +0.000 C 
BRANCH  20  21
ATOM     21  C   UNL     1       0.969   3.719  19.208  0.00  0.00    +0.000 C 
BRANCH  21  22
ATOM     22  C   UNL     1       0.878   2.197  19.290  0.00  0.00    +0.000 C 
BRANCH  22  23
ATOM     23  O   UNL     1       1.673   1.597  18.278  0.00  0.00    +0.000 OA
ATOM     24  H   UNL     1       1.954   2.300  17.668  0.00  0.00    +0.000 HD
ENDBRANCH  22  23
ENDBRANCH  21  22
ENDBRANCH  20  21
ENDBRANCH   4  20
BRANCH   5  25
ATOM     25  O   UNL     1       4.218   2.727  18.548  0.00  0.00    +0.000 OA
BRANCH  25  26
ATOM     26  C   UNL     1       4.482   2.833  19.939  0.00  0.00    +0.000 C 
ATOM     27  C   UNL     1       4.788   1.438  20.452  0.00  0.00    +0.000 C 
ENDBRANCH  25  26
ENDBRANCH   5  25
TORSDOF 11
ENDMDL
MODEL 3
REMARK VINA RESULT:      -7.4      1.362      2.422
REMARK  Name = 
REMARK  12 active torsions:
REMARK  status: ('A' for Active; 'I' for Inactive)
REMARK    1  A    between atoms: C_2  and  C_3
REMARK    2  A    between atoms: C_3  and  O_4
REMARK    3  A    between atoms: O_4  and  C_5
REMARK    4  A    between atoms: C_5  and  C_7
REMARK    5  A    between atoms: C_9  and  C_10
REMARK    6  A    between atoms: C_17  and  C_18
REMARK    7  A    between atoms: C_18  and  C_19
REMARK    8  A    between atoms: C_19  and  C_20
REMARK    9  A    between atoms: C_20  and  O_21
REMARK   10  A    between atoms: C_22  and  O_23
REMARK   11  A    between atoms: O_23  and  C_24
REMARK   12  A    between atoms: C_24  and  C_25
REMARK                            x       y       z     vdW  Elec       q    Type
REMARK                         _______ _______ _______ _____ _____    ______ ____
ROOT
ATOM      1  C   UNL     1       5.590   5.867  17.824  0.00  0.00    +0.000 C 
ATOM      2  C   UNL     1       4.463   6.492  17.450  0.00  0.00    +0.000 C 
ATOM      3  C   UNL     1       3.103   6.108  17.954  0.00  0.00    +0.000 C 
ATOM      4  C   UNL     1       3.170   4.970  19.006  0.00  0.00    +0.000 C 
ATOM      5  C   UNL     1       4.359   4.035  18.686  0.00  0.00    +0.000 C 
ATOM      6  O   UNL     1       5.598   4.752  18.633  0.00  0.00    +0.000 OA
ENDROOT
BRANCH   3   7
ATOM      7  C   UNL     1       2.395   7.347  18.503  0.00  0.00    +0.000 A 
ATOM      8  C   UNL     1       2.082   8.426  17.661  0.00  0.00    +0.000 A 
ATOM      9  C   UNL     1       1.482   9.579  18.180  0.00  0.00    +0.000 A 
ATOM     10  C   UNL     1       1.194   9.662  19.540  0.00  0.00    +0.000 A 
ATOM     11 BR   UNL     1       0.408  11.230  20.245  0.00  0.00    +0.000 Br
ATOM     12  C   UNL     1       1.488   8.599  20.389  0.00  0.00    +0.000 A 
ATOM     13  C   UNL     1       2.087   7.450  19.872  0.00  0.00    +0.000 A 
ENDBRANCH   3   7
BRANCH   1  14
ATOM     14  C   UNL     1       6.883   6.408  17.296  0.00  0.00    +0.000 C 
ATOM     15  O   UNL     1       7.400   6.038  16.251  0.00  0.00    +0.000 OA
BRANCH  14  16
ATOM     16  O   UNL     1       7.429   7.264  18.197  0.00  0.00    +0.000 OA
BRANCH  16  17
ATOM     17  C   UNL     1       7.841   8.522  17.653  0.00  0.00    +0.000 C 
BRANCH  17  19
ATOM     18  C   UNL     1       9.080  10.545  18.454  0.00  0.00    +0.000 C 
ATOM     19  C   UNL     1       8.725   9.262  18.608  0.00  0.00    +0.000 C 
ENDBRANCH  17  19
ENDBRANCH  16  17
ENDBRANCH  14  16
ENDBRANCH   1  14
BRANCH   4  20
ATOM     20  C   UNL     1       1.799   4.245  19.096  0.00  0.00    +0.000 C 
BRANCH  20  21
ATOM     21  C   UNL     1       1.197   4.057  20.497  0.00  0.00    +0.000 C 
BRANCH  21  22
ATOM     22  C   UNL     1       2.217   4.079  21.633  0.00  0.00    +0.000 C 
BRANCH  22  23
ATOM     23  O   UNL     1       2.538   2.755  22.036  0.00  0.00    +0.000 OA
ATOM     24  H   UNL     1       2.566   2.202  21.237  0.00  0.00    +0.000 HD
ENDBRANCH  22  23
ENDBRANCH  21  22
ENDBRANCH  20  21
ENDBRANCH   4  20
BRANCH   5  25
ATOM     25  O   UNL     1       4.424   3.065  19.734  0.00  0.00    +0.000 OA
BRANCH  25  26
ATOM     26  C   UNL     1       4.614   1.729  19.291  0.00  0.00    +0.000 C 
ATOM     27  C   UNL     1       3.485   1.401  18.332  0.00  0.00    +0.000 C 
ENDBRANCH  25  26
ENDBRANCH   5  25
TORSDOF 11
ENDMDL
MODEL 4
REMARK VINA RESULT:      -7.4      0.596      1.224
REMARK  Name = 
REMARK  12 active torsions:
REMARK  status: ('A' for Active; 'I' for Inactive)
REMARK    1  A    between atoms: C_2  and  C_3
REMARK    2  A    between atoms: C_3  and  O_4
REMARK    3  A    between atoms: O_4  and  C_5
REMARK    4  A    between atoms: C_5  and  C_7
REMARK    5  A    between atoms: C_9  and  C_10
REMARK    6  A    between atoms: C_17  and  C_18
REMARK    7  A    between atoms: C_18  and  C_19
REMARK    8  A    between atoms: C_19  and  C_20
REMARK    9  A    between atoms: C_20  and  O_21
REMARK   10  A    between atoms: C_22  and  O_23
REMARK   11  A    between atoms: O_23  and  C_24
REMARK   12  A    between atoms: C_24  and  C_25
REMARK                            x       y       z     vdW  Elec       q    Type
REMARK                         _______ _______ _______ _____ _____    ______ ____
ROOT
ATOM      1  C   UNL     1       5.803   5.889  18.107  0.00  0.00    +0.000 C 
ATOM      2  C   UNL     1       4.691   6.476  17.639  0.00  0.00    +0.000 C 
ATOM      3  C   UNL     1       3.309   6.087  18.074  0.00  0.00    +0.000 C 
ATOM      4  C   UNL     1       3.330   4.992  19.173  0.00  0.00    +0.000 C 
ATOM      5  C   UNL     1       4.551   4.068  18.965  0.00  0.00    +0.000 C 
ATOM      6  O   UNL     1       5.780   4.806  18.959  0.00  0.00    +0.000 OA
ENDROOT
BRANCH   3   7
ATOM      7  C   UNL     1       2.548   7.332  18.528  0.00  0.00    +0.000 A 
ATOM      8  C   UNL     1       2.153   7.484  19.866  0.00  0.00    +0.000 A 
ATOM      9  C   UNL     1       1.410   8.601  20.265  0.00  0.00    +0.000 A 
ATOM     10  C   UNL     1       1.057   9.571  19.330  0.00  0.00    +0.000 A 
ATOM     11 BR   UNL     1       0.031  11.066  19.862  0.00  0.00    +0.000 Br
ATOM     12  C   UNL     1       1.447   9.444  18.000  0.00  0.00    +0.000 A 
ATOM     13  C   UNL     1       2.187   8.330  17.603  0.00  0.00    +0.000 A 
ENDBRANCH   3   7
BRANCH   1  14
ATOM     14  C   UNL     1       7.117   6.434  17.638  0.00  0.00    +0.000 C 
ATOM     15  O   UNL     1       7.852   7.127  18.329  0.00  0.00    +0.000 OA
BRANCH  14  16
ATOM     16  O   UNL     1       7.299   6.140  16.326  0.00  0.00    +0.000 OA
BRANCH  16  17
ATOM     17  C   UNL     1       7.354   4.741  16.028  0.00  0.00    +0.000 C 
BRANCH  17  19
ATOM     18  C   UNL     1       5.369   4.413  14.537  0.00  0.00    +0.000 C 
ATOM     19  C   UNL     1       6.697   4.441  14.717  0.00  0.00    +0.000 C 
ENDBRANCH  17  19
ENDBRANCH  16  17
ENDBRANCH  14  16
ENDBRANCH   1  14
BRANCH   4  20
ATOM     20  C   UNL     1       1.968   4.245  19.208  0.00  0.00    +0.000 C 
BRANCH  20  21
ATOM     21  C   UNL     1       1.239   4.181  20.558  0.00  0.00    +0.000 C 
BRANCH  21  22
ATOM     22  C   UNL     1       1.372   2.845  21.287  0.00  0.00    +0.000 C 
BRANCH  22  23
ATOM     23  O   UNL     1       2.443   2.893  22.218  0.00  0.00    +0.000 OA
ATOM     24  H   UNL     1       3.149   3.438  21.829  0.00  0.00    +0.000 HD
ENDBRANCH  22  23
ENDBRANCH  21  22
ENDBRANCH  20  21
ENDBRANCH   4  20
BRANCH   5  25
ATOM     25  O   UNL     1       4.567   3.141  20.053  0.00  0.00    +0.000 OA
BRANCH  25  26
ATOM     26  C   UNL     1       4.552   1.775  19.665  0.00  0.00    +0.000 C 
ATOM     27  C   UNL     1       5.193   0.977  20.785  0.00  0.00    +0.000 C 
ENDBRANCH  25  26
ENDBRANCH   5  25
TORSDOF 11
ENDMDL
MODEL 5
REMARK VINA RESULT:      -7.4      1.773      2.825
REMARK  Name = 
REMARK  12 active torsions:
REMARK  status: ('A' for Active; 'I' for Inactive)
REMARK    1  A    between atoms: C_2  and  C_3
REMARK    2  A    between atoms: C_3  and  O_4
REMARK    3  A    between atoms: O_4  and  C_5
REMARK    4  A    between atoms: C_5  and  C_7
REMARK    5  A    between atoms: C_9  and  C_10
REMARK    6  A    between atoms: C_17  and  C_18
REMARK    7  A    between atoms: C_18  and  C_19
REMARK    8  A    between atoms: C_19  and  C_20
REMARK    9  A    between atoms: C_20  and  O_21
REMARK   10  A    between atoms: C_22  and  O_23
REMARK   11  A    between atoms: O_23  and  C_24
REMARK   12  A    between atoms: C_24  and  C_25
REMARK                            x       y       z     vdW  Elec       q    Type
REMARK                         _______ _______ _______ _____ _____    ______ ____
ROOT
ATOM      1  C   UNL     1       5.490   6.240  17.308  0.00  0.00    +0.000 C 
ATOM      2  C   UNL     1       4.385   6.977  17.123  0.00  0.00    +0.000 C 
ATOM      3  C   UNL     1       3.007   6.498  17.474  0.00  0.00    +0.000 C 
ATOM      4  C   UNL     1       3.028   5.096  18.139  0.00  0.00    +0.000 C 
ATOM      5  C   UNL     1       4.202   4.267  17.569  0.00  0.00    +0.000 C 
ATOM      6  O   UNL     1       5.458   4.934  17.748  0.00  0.00    +0.000 OA
ENDROOT
BRANCH   3   7
ATOM      7  C   UNL     1       2.316   7.535  18.358  0.00  0.00    +0.000 A 
ATOM      8  C   UNL     1       1.848   8.742  17.816  0.00  0.00    +0.000 A 
ATOM      9  C   UNL     1       1.264   9.710  18.640  0.00  0.00    +0.000 A 
ATOM     10  C   UNL     1       1.145   9.481  20.008  0.00  0.00    +0.000 A 
ATOM     11 BR   UNL     1       0.381  10.800  21.126  0.00  0.00    +0.000 Br
ATOM     12  C   UNL     1       1.595   8.286  20.563  0.00  0.00    +0.000 A 
ATOM     13  C   UNL     1       2.178   7.321  19.742  0.00  0.00    +0.000 A 
ENDBRANCH   3   7
BRANCH   1  14
ATOM     14  C   UNL     1       6.805   6.879  16.982  0.00  0.00    +0.000 C 
ATOM     15  O   UNL     1       7.655   6.361  16.269  0.00  0.00    +0.000 OA
BRANCH  14  16
ATOM     16  O   UNL     1       6.944   8.035  17.679  0.00  0.00    +0.000 OA
BRANCH  16  17
ATOM     17  C   UNL     1       8.257   8.262  18.204  0.00  0.00    +0.000 C 
BRANCH  17  19
ATOM     18  C   UNL     1       9.327  10.265  19.258  0.00  0.00    +0.000 C 
ATOM     19  C   UNL     1       8.553   9.726  18.306  0.00  0.00    +0.000 C 
ENDBRANCH  17  19
ENDBRANCH  16  17
ENDBRANCH  14  16
ENDBRANCH   1  14
BRANCH   4  20
ATOM     20  C   UNL     1       1.640   4.415  17.992  0.00  0.00    +0.000 C 
BRANCH  20  21
ATOM     21  C   UNL     1       1.095   3.666  19.217  0.00  0.00    +0.000 C 
BRANCH  21  22
ATOM     22  C   UNL     1       0.696   2.216  18.948  0.00  0.00    +0.000 C 
BRANCH  22  23
ATOM     23  O   UNL     1       1.746   1.528  18.286  0.00  0.00    +0.000 OA
ATOM     24  H   UNL     1       1.696   1.752  17.341  0.00  0.00    +0.000 HD
ENDBRANCH  22  23
ENDBRANCH  21  22
ENDBRANCH  20  21
ENDBRANCH   4  20
BRANCH   5  25
ATOM     25  O   UNL     1       4.226   3.028  18.281  0.00  0.00    +0.000 OA
BRANCH  25  26
ATOM     26  C   UNL     1       4.927   3.069  19.515  0.00  0.00    +0.000 C 
ATOM     27  C   UNL     1       4.174   2.188  20.495  0.00  0.00    +0.000 C 
ENDBRANCH  25  26
ENDBRANCH   5  25
TORSDOF 11
ENDMDL
MODEL 6
REMARK VINA RESULT:      -7.3      1.636      5.174
REMARK  Name = 
REMARK  12 active torsions:
REMARK  status: ('A' for Active; 'I' for Inactive)
REMARK    1  A    between atoms: C_2  and  C_3
REMARK    2  A    between atoms: C_3  and  O_4
REMARK    3  A    between atoms: O_4  and  C_5
REMARK    4  A    between atoms: C_5  and  C_7
REMARK    5  A    between atoms: C_9  and  C_10
REMARK    6  A    between atoms: C_17  and  C_18
REMARK    7  A    between atoms: C_18  and  C_19
REMARK    8  A    between atoms: C_19  and  C_20
REMARK    9  A    between atoms: C_20  and  O_21
REMARK   10  A    between atoms: C_22  and  O_23
REMARK   11  A    between atoms: O_23  and  C_24
REMARK   12  A    between atoms: C_24  and  C_25
REMARK                            x       y       z     vdW  Elec       q    Type
REMARK                         _______ _______ _______ _____ _____    ______ ____
ROOT
ATOM      1  C   UNL     1       3.438   3.723  17.615  0.00  0.00    +0.000 C 
ATOM      2  C   UNL     1       3.393   4.690  18.544  0.00  0.00    +0.000 C 
ATOM      3  C   UNL     1       4.047   6.029  18.372  0.00  0.00    +0.000 C 
ATOM      4  C   UNL     1       4.705   6.182  16.975  0.00  0.00    +0.000 C 
ATOM      5  C   UNL     1       5.220   4.808  16.489  0.00  0.00    +0.000 C 
ATOM      6  O   UNL     1       4.172   3.831  16.453  0.00  0.00    +0.000 OA
ENDROOT
BRANCH   3   7
ATOM      7  C   UNL     1       3.025   7.133  18.643  0.00  0.00    +0.000 A 
ATOM      8  C   UNL     1       2.764   8.121  17.680  0.00  0.00    +0.000 A 
ATOM      9  C   UNL     1       1.868   9.159  17.954  0.00  0.00    +0.000 A 
ATOM     10  C   UNL     1       1.229   9.219  19.190  0.00  0.00    +0.000 A 
ATOM     11 BR   UNL     1       0.038  10.637  19.571  0.00  0.00    +0.000 Br
ATOM     12  C   UNL     1       1.467   8.245  20.154  0.00  0.00    +0.000 A 
ATOM     13  C   UNL     1       2.362   7.209  19.881  0.00  0.00    +0.000 A 
ENDBRANCH   3   7
BRANCH   1  14
ATOM     14  C   UNL     1       2.675   2.465  17.894  0.00  0.00    +0.000 C 
ATOM     15  O   UNL     1       3.194   1.362  17.991  0.00  0.00    +0.000 OA
BRANCH  14  16
ATOM     16  O   UNL     1       1.343   2.724  17.902  0.00  0.00    +0.000 OA
BRANCH  16  17
ATOM     17  C   UNL     1       0.648   2.243  19.058  0.00  0.00    +0.000 C 
BRANCH  17  19
ATOM     18  C   UNL     1       1.436   2.946  21.328  0.00  0.00    +0.000 C 
ATOM     19  C   UNL     1       0.763   3.206  20.198  0.00  0.00    +0.000 C 
ENDBRANCH  17  19
ENDBRANCH  16  17
ENDBRANCH  14  16
ENDBRANCH   1  14
BRANCH   4  20
ATOM     20  C   UNL     1       5.793   7.289  17.017  0.00  0.00    +0.000 C 
BRANCH  20  21
ATOM     21  C   UNL     1       7.256   6.830  17.107  0.00  0.00    +0.000 C 
BRANCH  21  22
ATOM     22  C   UNL     1       7.747   6.552  18.526  0.00  0.00    +0.000 C 
BRANCH  22  23
ATOM     23  O   UNL     1       8.605   7.594  18.967  0.00  0.00    +0.000 OA
ATOM     24  H   UNL     1       9.496   7.219  19.072  0.00  0.00    +0.000 HD
ENDBRANCH  22  23
ENDBRANCH  21  22
ENDBRANCH  20  21
ENDBRANCH   4  20
BRANCH   5  25
ATOM     25  O   UNL     1       5.730   4.995  15.167  0.00  0.00    +0.000 OA
BRANCH  25  26
ATOM     26  C   UNL     1       6.417   3.871  14.635  0.00  0.00    +0.000 C 
ATOM     27  C   UNL     1       6.036   3.757  13.171  0.00  0.00    +0.000 C 
ENDBRANCH  25  26
ENDBRANCH   5  25
TORSDOF 11
ENDMDL
MODEL 7
REMARK VINA RESULT:      -7.3      1.715      5.166
REMARK  Name = 
REMARK  12 active torsions:
REMARK  status: ('A' for Active; 'I' for Inactive)
REMARK    1  A    between atoms: C_2  and  C_3
REMARK    2  A    between atoms: C_3  and  O_4
REMARK    3  A    between atoms: O_4  and  C_5
REMARK    4  A    between atoms: C_5  and  C_7
REMARK    5  A    between atoms: C_9  and  C_10
REMARK    6  A    between atoms: C_17  and  C_18
REMARK    7  A    between atoms: C_18  and  C_19
REMARK    8  A    between atoms: C_19  and  C_20
REMARK    9  A    between atoms: C_20  and  O_21
REMARK   10  A    between atoms: C_22  and  O_23
REMARK   11  A    between atoms: O_23  and  C_24
REMARK   12  A    between atoms: C_24  and  C_25
REMARK                            x       y       z     vdW  Elec       q    Type
REMARK                         _______ _______ _______ _____ _____    ______ ____
ROOT
ATOM      1  C   UNL     1       3.588   3.699  17.595  0.00  0.00    +0.000 C 
ATOM      2  C   UNL     1       3.523   4.662  18.527  0.00  0.00    +0.000 C 
ATOM      3  C   UNL     1       4.204   5.991  18.385  0.00  0.00    +0.000 C 
ATOM      4  C   UNL     1       4.915   6.140  17.015  0.00  0.00    +0.000 C 
ATOM      5  C   UNL     1       5.427   4.760  16.541  0.00  0.00    +0.000 C 
ATOM      6  O   UNL     1       4.366   3.800  16.462  0.00  0.00    +0.000 OA
ENDROOT
BRANCH   3   7
ATOM      7  C   UNL     1       3.191   7.110  18.623  0.00  0.00    +0.000 A 
ATOM      8  C   UNL     1       2.467   7.180  19.824  0.00  0.00    +0.000 A 
ATOM      9  C   UNL     1       1.503   8.176  20.014  0.00  0.00    +0.000 A 
ATOM     10  C   UNL     1       1.254   9.106  19.008  0.00  0.00    +0.000 A 
ATOM     11 BR   UNL     1      -0.068  10.434  19.254  0.00  0.00    +0.000 Br
ATOM     12  C   UNL     1       1.967   9.059  17.813  0.00  0.00    +0.000 A 
ATOM     13  C   UNL     1       2.929   8.066  17.623  0.00  0.00    +0.000 A 
ENDBRANCH   3   7
BRANCH   1  14
ATOM     14  C   UNL     1       2.796   2.451  17.840  0.00  0.00    +0.000 C 
ATOM     15  O   UNL     1       3.294   1.339  17.947  0.00  0.00    +0.000 OA
BRANCH  14  16
ATOM     16  O   UNL     1       1.468   2.732  17.806  0.00  0.00    +0.000 OA
BRANCH  16  17
ATOM     17  C   UNL     1       0.724   2.238  18.925  0.00  0.00    +0.000 C 
BRANCH  17  19
ATOM     18  C   UNL     1       1.392   2.933  21.236  0.00  0.00    +0.000 C 
ATOM     19  C   UNL     1       0.777   3.196  20.074  0.00  0.00    +0.000 C 
ENDBRANCH  17  19
ENDBRANCH  16  17
ENDBRANCH  14  16
ENDBRANCH   1  14
BRANCH   4  20
ATOM     20  C   UNL     1       6.019   7.230  17.101  0.00  0.00    +0.000 C 
BRANCH  20  21
ATOM     21  C   UNL     1       7.462   6.750  17.319  0.00  0.00    +0.000 C 
BRANCH  21  22
ATOM     22  C   UNL     1       7.819   6.457  18.775  0.00  0.00    +0.000 C 
BRANCH  22  23
ATOM     23  O   UNL     1       7.928   5.057  18.987  0.00  0.00    +0.000 OA
ATOM     24  H   UNL     1       8.827   4.876  19.311  0.00  0.00    +0.000 HD
ENDBRANCH  22  23
ENDBRANCH  21  22
ENDBRANCH  20  21
ENDBRANCH   4  20
BRANCH   5  25
ATOM     25  O   UNL     1       5.989   4.944  15.240  0.00  0.00    +0.000 OA
BRANCH  25  26
ATOM     26  C   UNL     1       5.423   4.121  14.230  0.00  0.00    +0.000 C 
ATOM     27  C   UNL     1       6.482   3.915  13.163  0.00  0.00    +0.000 C 
ENDBRANCH  25  26
ENDBRANCH   5  25
TORSDOF 11
ENDMDL
MODEL 8
REMARK VINA RESULT:      -7.2      1.078      2.367
REMARK  Name = 
REMARK  12 active torsions:
REMARK  status: ('A' for Active; 'I' for Inactive)
REMARK    1  A    between atoms: C_2  and  C_3
REMARK    2  A    between atoms: C_3  and  O_4
REMARK    3  A    between atoms: O_4  and  C_5
REMARK    4  A    between atoms: C_5  and  C_7
REMARK    5  A    between atoms: C_9  and  C_10
REMARK    6  A    between atoms: C_17  and  C_18
REMARK    7  A    between atoms: C_18  and  C_19
REMARK    8  A    between atoms: C_19  and  C_20
REMARK    9  A    between atoms: C_20  and  O_21
REMARK   10  A    between atoms: C_22  and  O_23
REMARK   11  A    between atoms: O_23  and  C_24
REMARK   12  A    between atoms: C_24  and  C_25
REMARK                            x       y       z     vdW  Elec       q    Type
REMARK                         _______ _______ _______ _____ _____    ______ ____
ROOT
ATOM      1  C   UNL     1       5.425   5.525  17.416  0.00  0.00    +0.000 C 
ATOM      2  C   UNL     1       4.289   6.194  17.167  0.00  0.00    +0.000 C 
ATOM      3  C   UNL     1       3.005   5.936  17.898  0.00  0.00    +0.000 C 
ATOM      4  C   UNL     1       3.172   4.872  19.014  0.00  0.00    +0.000 C 
ATOM      5  C   UNL     1       4.245   3.841  18.595  0.00  0.00    +0.000 C 
ATOM      6  O   UNL     1       5.498   4.470  18.300  0.00  0.00    +0.000 OA
ENDROOT
BRANCH   3   7
ATOM      7  C   UNL     1       2.458   7.254  18.448  0.00  0.00    +0.000 A 
ATOM      8  C   UNL     1       2.116   7.379  19.803  0.00  0.00    +0.000 A 
ATOM      9  C   UNL     1       1.566   8.570  20.289  0.00  0.00    +0.000 A 
ATOM     10  C   UNL     1       1.353   9.642  19.426  0.00  0.00    +0.000 A 
ATOM     11 BR   UNL     1       0.586  11.242  20.076  0.00  0.00    +0.000 Br
ATOM     12  C   UNL     1       1.694   9.540  18.080  0.00  0.00    +0.000 A 
ATOM     13  C   UNL     1       2.242   8.352  17.595  0.00  0.00    +0.000 A 
ENDBRANCH   3   7
BRANCH   1  14
ATOM     14  C   UNL     1       6.649   5.943  16.660  0.00  0.00    +0.000 C 
ATOM     15  O   UNL     1       7.336   5.175  16.000  0.00  0.00    +0.000 OA
BRANCH  14  16
ATOM     16  O   UNL     1       6.929   7.246  16.915  0.00  0.00    +0.000 OA
BRANCH  16  17
ATOM     17  C   UNL     1       7.688   7.472  18.108  0.00  0.00    +0.000 C 
BRANCH  17  19
ATOM     18  C   UNL     1       8.078   9.942  17.978  0.00  0.00    +0.000 C 
ATOM     19  C   UNL     1       8.552   8.688  17.977  0.00  0.00    +0.000 C 
ENDBRANCH  17  19
ENDBRANCH  16  17
ENDBRANCH  14  16
ENDBRANCH   1  14
BRANCH   4  20
ATOM     20  C   UNL     1       1.794   4.246  19.365  0.00  0.00    +0.000 C 
BRANCH  20  21
ATOM     21  C   UNL     1       1.412   4.183  20.852  0.00  0.00    +0.000 C 
BRANCH  21  22
ATOM     22  C   UNL     1       1.408   2.777  21.446  0.00  0.00    +0.000 C 
BRANCH  22  23
ATOM     23  O   UNL     1       2.624   2.526  22.135  0.00  0.00    +0.000 OA
ATOM     24  H   UNL     1       2.493   1.738  22.690  0.00  0.00    +0.000 HD
ENDBRANCH  22  23
ENDBRANCH  21  22
ENDBRANCH  20  21
ENDBRANCH   4  20
BRANCH   5  25
ATOM     25  O   UNL     1       4.418   2.944  19.694  0.00  0.00    +0.000 OA
BRANCH  25  26
ATOM     26  C   UNL     1       4.314   1.568  19.355  0.00  0.00    +0.000 C 
ATOM     27  C   UNL     1       3.558   1.478  18.043  0.00  0.00    +0.000 C 
ENDBRANCH  25  26
ENDBRANCH   5  25
TORSDOF 11
ENDMDL
MODEL 9
REMARK VINA RESULT:      -7.2      1.453      2.715
REMARK  Name = 
REMARK  12 active torsions:
REMARK  status: ('A' for Active; 'I' for Inactive)
REMARK    1  A    between atoms: C_2  and  C_3
REMARK    2  A    between atoms: C_3  and  O_4
REMARK    3  A    between atoms: O_4  and  C_5
REMARK    4  A    between atoms: C_5  and  C_7
REMARK    5  A    between atoms: C_9  and  C_10
REMARK    6  A    between atoms: C_17  and  C_18
REMARK    7  A    between atoms: C_18  and  C_19
REMARK    8  A    between atoms: C_19  and  C_20
REMARK    9  A    between atoms: C_20  and  O_21
REMARK   10  A    between atoms: C_22  and  O_23
REMARK   11  A    between atoms: O_23  and  C_24
REMARK   12  A    between atoms: C_24  and  C_25
REMARK                            x       y       z     vdW  Elec       q    Type
REMARK                         _______ _______ _______ _____ _____    ______ ____
ROOT
ATOM      1  C   UNL     1       5.428   5.946  17.226  0.00  0.00    +0.000 C 
ATOM      2  C   UNL     1       4.322   6.690  17.071  0.00  0.00    +0.000 C 
ATOM      3  C   UNL     1       2.966   6.260  17.546  0.00  0.00    +0.000 C 
ATOM      4  C   UNL     1       3.014   4.903  18.297  0.00  0.00    +0.000 C 
ATOM      5  C   UNL     1       4.134   4.018  17.703  0.00  0.00    +0.000 C 
ATOM      6  O   UNL     1       5.408   4.672  17.751  0.00  0.00    +0.000 OA
ENDROOT
BRANCH   3   7
ATOM      7  C   UNL     1       2.353   7.364  18.407  0.00  0.00    +0.000 A 
ATOM      8  C   UNL     1       2.195   7.191  19.790  0.00  0.00    +0.000 A 
ATOM      9  C   UNL     1       1.585   8.184  20.565  0.00  0.00    +0.000 A 
ATOM     10  C   UNL     1       1.128   9.353  19.963  0.00  0.00    +0.000 A 
ATOM     11 BR   UNL     1       0.280  10.683  21.003  0.00  0.00    +0.000 Br
ATOM     12  C   UNL     1       1.284   9.548  18.593  0.00  0.00    +0.000 A 
ATOM     13  C   UNL     1       1.893   8.558  17.821  0.00  0.00    +0.000 A 
ENDBRANCH   3   7
BRANCH   1  14
ATOM     14  C   UNL     1       6.725   6.538  16.770  0.00  0.00    +0.000 C 
ATOM     15  O   UNL     1       7.557   5.928  16.112  0.00  0.00    +0.000 OA
BRANCH  14  16
ATOM     16  O   UNL     1       6.874   7.784  17.289  0.00  0.00    +0.000 OA
BRANCH  16  17
ATOM     17  C   UNL     1       8.085   7.982  18.026  0.00  0.00    +0.000 C 
BRANCH  17  19
ATOM     18  C   UNL     1       9.170   9.964  19.107  0.00  0.00    +0.000 C 
ATOM     19  C   UNL     1       8.427   9.437  18.124  0.00  0.00    +0.000 C 
ENDBRANCH  17  19
ENDBRANCH  16  17
ENDBRANCH  14  16
ENDBRANCH   1  14
BRANCH   4  20
ATOM     20  C   UNL     1       1.610   4.240  18.291  0.00  0.00    +0.000 C 
BRANCH  20  21
ATOM     21  C   UNL     1       1.282   3.284  19.448  0.00  0.00    +0.000 C 
BRANCH  21  22
ATOM     22  C   UNL     1       1.318   3.929  20.832  0.00  0.00    +0.000 C 
BRANCH  22  23
ATOM     23  O   UNL     1       1.618   2.957  21.823  0.00  0.00    +0.000 OA
ATOM     24  H   UNL     1       1.085   3.164  22.610  0.00  0.00    +0.000 HD
ENDBRANCH  22  23
ENDBRANCH  21  22
ENDBRANCH  20  21
ENDBRANCH   4  20
BRANCH   5  25
ATOM     25  O   UNL     1       4.189   2.826  18.490  0.00  0.00    +0.000 OA
BRANCH  25  26
ATOM     26  C   UNL     1       4.793   2.989  19.765  0.00  0.00    +0.000 C 
ATOM     27  C   UNL     1       4.657   1.671  20.504  0.00  0.00    +0.000 C 
ENDBRANCH  25  26
ENDBRANCH   5  25
TORSDOF 11
ENDMDL
