MODEL 1
REMARK VINA RESULT:      -8.0      0.000      0.000
REMARK  Name = 
REMARK  6 active torsions:
REMARK  status: ('A' for Active; 'I' for Inactive)
REMARK    1  A    between atoms: C_1  and  C_2
REMARK    2  A    between atoms: C_2  and  N_3
REMARK    3  A    between atoms: C_10  and  N_11
REMARK    4  A    between atoms: N_11  and  C_12
REMARK    5  A    between atoms: C_12  and  C_13
REMARK    6  A    between atoms: C_18  and  C_19
REMARK                            x       y       z     vdW  Elec       q    Type
REMARK                         _______ _______ _______ _____ _____    ______ ____
ROOT
ATOM      1  N   UNL     1       2.079   8.223  19.831  0.00  0.00    +0.000 N 
ATOM      2  H   UNL     1       2.708   8.538  20.582  0.00  0.00    +0.000 HD
ENDROOT
BRANCH   1   3
ATOM      3  C   UNL     1       1.156   9.210  19.437  0.00  0.00    +0.000 C 
ATOM      4  C   UNL     1       1.018   9.535  17.960  0.00  0.00    +0.000 C 
ATOM      5  C   UNL     1       0.318   9.844  20.325  0.00  0.00    +0.000 C 
ATOM      6  C   UNL     1       0.452   9.565  21.786  0.00  0.00    +0.000 C 
ATOM      7  O   UNL     1       1.184   8.692  22.251  0.00  0.00    +0.000 OA
ATOM      8  C   UNL     1      -0.341  10.389  22.711  0.00  0.00    +0.000 C 
ATOM      9  C   UNL     1      -1.188  11.300  22.234  0.00  0.00    +0.000 C 
ATOM     10  C   UNL     1      -2.051  12.181  23.086  0.00  0.00    +0.000 C 
ATOM     11  O   UNL     1      -1.379  11.506  20.862  0.00  0.00    +0.000 OA
ATOM     12  C   UNL     1      -0.745  10.797  19.880  0.00  0.00    +0.000 C 
ATOM     13  O   UNL     1      -1.088  10.967  18.718  0.00  0.00    +0.000 OA
ENDBRANCH   1   3
BRANCH   1  21
ATOM     14  N   UNL     1       4.451   4.966  16.895  0.00  0.00    +0.000 N 
ATOM     15  N   UNL     1       4.527   3.620  16.847  0.00  0.00    +0.000 NA
ATOM     16  C   UNL     1       3.749   3.228  17.855  0.00  0.00    +0.000 A 
ATOM     17 CL   UNL     1       3.522   1.579  18.181  0.00  0.00    +0.000 Cl
ATOM     18  C   UNL     1       3.171   4.311  18.554  0.00  0.00    +0.000 A 
ATOM     19  C   UNL     1       2.299   4.462  19.642  0.00  0.00    +0.000 A 
ATOM     20  C   UNL     1       1.905   5.751  20.036  0.00  0.00    +0.000 A 
ATOM     21  C   UNL     1       2.389   6.906  19.413  0.00  0.00    +0.000 A 
ATOM     22  C   UNL     1       3.281   6.747  18.326  0.00  0.00    +0.000 A 
ATOM     23  C   UNL     1       3.645   5.450  17.905  0.00  0.00    +0.000 A 
BRANCH  14  25
ATOM     24  C   UNL     1       5.748   4.828  14.806  0.00  0.00    +0.000 C 
ATOM     25  C   UNL     1       5.184   5.723  15.897  0.00  0.00    +0.000 C 
ENDBRANCH  14  25
ENDBRANCH   1  21
TORSDOF 3
ENDMDL
MODEL 2
REMARK VINA RESULT:      -8.0      1.278      2.340
REMARK  Name = 
REMARK  6 active torsions:
REMARK  status: ('A' for Active; 'I' for Inactive)
REMARK    1  A    between atoms: C_1  and  C_2
REMARK    2  A    between atoms: C_2  and  N_3
REMARK    3  A    between atoms: C_10  and  N_11
REMARK    4  A    between atoms: N_11  and  C_12
REMARK    5  A    between atoms: C_12  and  C_13
REMARK    6  A    between atoms: C_18  and  C_19
REMARK                            x       y       z     vdW  Elec       q    Type
REMARK                         _______ _______ _______ _____ _____    ______ ____
ROOT
ATOM      1  N   UNL     1       1.905   8.100  19.652  0.00  0.00    +0.000 N 
ATOM      2  H   UNL     1       2.051   7.990  20.664  0.00  0.00    +0.000 HD
ENDROOT
BRANCH   1   3
ATOM      3  C   UNL     1       1.053   9.173  19.331  0.00  0.00    +0.000 C 
ATOM      4  C   UNL     1       0.919   9.593  17.878  0.00  0.00    +0.000 C 
ATOM      5  C   UNL     1       0.280   9.816  20.269  0.00  0.00    +0.000 C 
ATOM      6  C   UNL     1       0.413   9.444  21.710  0.00  0.00    +0.000 C 
ATOM      7  O   UNL     1       1.085   8.494  22.111  0.00  0.00    +0.000 OA
ATOM      8  C   UNL     1      -0.301  10.270  22.695  0.00  0.00    +0.000 C 
ATOM      9  C   UNL     1      -1.083  11.269  22.286  0.00  0.00    +0.000 C 
ATOM     10  C   UNL     1      -1.865  12.160  23.203  0.00  0.00    +0.000 C 
ATOM     11  O   UNL     1      -1.279  11.566  20.932  0.00  0.00    +0.000 OA
ATOM     12  C   UNL     1      -0.715  10.870  19.900  0.00  0.00    +0.000 C 
ATOM     13  O   UNL     1      -1.062  11.132  18.756  0.00  0.00    +0.000 OA
ENDBRANCH   1   3
BRANCH   1  21
ATOM     14  N   UNL     1       3.101   3.421  18.410  0.00  0.00    +0.000 N 
ATOM     15  N   UNL     1       3.942   2.869  17.511  0.00  0.00    +0.000 NA
ATOM     16  C   UNL     1       4.493   3.923  16.912  0.00  0.00    +0.000 A 
ATOM     17 CL   UNL     1       5.651   3.715  15.690  0.00  0.00    +0.000 Cl
ATOM     18  C   UNL     1       4.017   5.153  17.418  0.00  0.00    +0.000 A 
ATOM     19  C   UNL     1       4.260   6.512  17.169  0.00  0.00    +0.000 A 
ATOM     20  C   UNL     1       3.596   7.482  17.935  0.00  0.00    +0.000 A 
ATOM     21  C   UNL     1       2.654   7.150  18.914  0.00  0.00    +0.000 A 
ATOM     22  C   UNL     1       2.402   5.777  19.151  0.00  0.00    +0.000 A 
ATOM     23  C   UNL     1       3.099   4.802  18.408  0.00  0.00    +0.000 A 
BRANCH  14  25
ATOM     24  C   UNL     1       0.898   2.395  18.807  0.00  0.00    +0.000 C 
ATOM     25  C   UNL     1       2.340   2.529  19.265  0.00  0.00    +0.000 C 
ENDBRANCH  14  25
ENDBRANCH   1  21
TORSDOF 3
ENDMDL
MODEL 3
REMARK VINA RESULT:      -7.7      3.862      8.369
REMARK  Name = 
REMARK  6 active torsions:
REMARK  status: ('A' for Active; 'I' for Inactive)
REMARK    1  A    between atoms: C_1  and  C_2
REMARK    2  A    between atoms: C_2  and  N_3
REMARK    3  A    between atoms: C_10  and  N_11
REMARK    4  A    between atoms: N_11  and  C_12
REMARK    5  A    between atoms: C_12  and  C_13
REMARK    6  A    between atoms: C_18  and  C_19
REMARK                            x       y       z     vdW  Elec       q    Type
REMARK                         _______ _______ _______ _____ _____    ______ ____
ROOT
ATOM      1  N   UNL     1       2.889   6.762  19.366  0.00  0.00    +0.000 N 
ATOM      2  H   UNL     1       3.641   6.954  20.041  0.00  0.00    +0.000 HD
ENDROOT
BRANCH   1   3
ATOM      3  C   UNL     1       2.931   5.452  18.852  0.00  0.00    +0.000 C 
ATOM      4  C   UNL     1       2.053   4.388  19.487  0.00  0.00    +0.000 C 
ATOM      5  C   UNL     1       3.682   5.107  17.753  0.00  0.00    +0.000 C 
ATOM      6  C   UNL     1       4.577   6.126  17.127  0.00  0.00    +0.000 C 
ATOM      7  O   UNL     1       4.594   7.313  17.451  0.00  0.00    +0.000 OA
ATOM      8  C   UNL     1       5.488   5.670  16.066  0.00  0.00    +0.000 C 
ATOM      9  C   UNL     1       5.451   4.404  15.652  0.00  0.00    +0.000 C 
ATOM     10  C   UNL     1       6.323   3.841  14.572  0.00  0.00    +0.000 C 
ATOM     11  O   UNL     1       4.553   3.466  16.177  0.00  0.00    +0.000 OA
ATOM     12  C   UNL     1       3.623   3.744  17.139  0.00  0.00    +0.000 C 
ATOM     13  O   UNL     1       2.800   2.885  17.427  0.00  0.00    +0.000 OA
ENDBRANCH   1   3
BRANCH   1  21
ATOM     14  N   UNL     1      -0.232  10.208  21.167  0.00  0.00    +0.000 N 
ATOM     15  N   UNL     1      -0.885  11.261  20.633  0.00  0.00    +0.000 NA
ATOM     16  C   UNL     1      -0.517  11.239  19.353  0.00  0.00    +0.000 A 
ATOM     17 CL   UNL     1      -1.112  12.395  18.264  0.00  0.00    +0.000 Cl
ATOM     18  C   UNL     1       0.367  10.179  19.055  0.00  0.00    +0.000 A 
ATOM     19  C   UNL     1       1.025   9.702  17.912  0.00  0.00    +0.000 A 
ATOM     20  C   UNL     1       1.822   8.550  18.006  0.00  0.00    +0.000 A 
ATOM     21  C   UNL     1       2.030   7.878  19.214  0.00  0.00    +0.000 A 
ATOM     22  C   UNL     1       1.375   8.373  20.367  0.00  0.00    +0.000 A 
ATOM     23  C   UNL     1       0.543   9.508  20.265  0.00  0.00    +0.000 A 
BRANCH  14  25
ATOM     24  C   UNL     1      -1.322  10.965  23.241  0.00  0.00    +0.000 C 
ATOM     25  C   UNL     1      -0.435   9.927  22.577  0.00  0.00    +0.000 C 
ENDBRANCH  14  25
ENDBRANCH   1  21
TORSDOF 3
ENDMDL
MODEL 4
REMARK VINA RESULT:      -7.6      1.264      2.176
REMARK  Name = 
REMARK  6 active torsions:
REMARK  status: ('A' for Active; 'I' for Inactive)
REMARK    1  A    between atoms: C_1  and  C_2
REMARK    2  A    between atoms: C_2  and  N_3
REMARK    3  A    between atoms: C_10  and  N_11
REMARK    4  A    between atoms: N_11  and  C_12
REMARK    5  A    between atoms: C_12  and  C_13
REMARK    6  A    between atoms: C_18  and  C_19
REMARK                            x       y       z     vdW  Elec       q    Type
REMARK                         _______ _______ _______ _____ _____    ______ ____
ROOT
ATOM      1  N   UNL     1       1.521   8.572  19.811  0.00  0.00    +0.000 N 
ATOM      2  H   UNL     1       1.556   9.105  18.932  0.00  0.00    +0.000 HD
ENDROOT
BRANCH   1   3
ATOM      3  C   UNL     1       0.901   9.278  20.858  0.00  0.00    +0.000 C 
ATOM      4  C   UNL     1       1.363   9.028  22.283  0.00  0.00    +0.000 C 
ATOM      5  C   UNL     1      -0.059  10.240  20.644  0.00  0.00    +0.000 C 
ATOM      6  C   UNL     1      -0.553  10.485  19.255  0.00  0.00    +0.000 C 
ATOM      7  O   UNL     1      -0.060   9.969  18.253  0.00  0.00    +0.000 OA
ATOM      8  C   UNL     1      -1.697  11.395  19.092  0.00  0.00    +0.000 C 
ATOM      9  C   UNL     1      -2.214  12.014  20.152  0.00  0.00    +0.000 C 
ATOM     10  C   UNL     1      -3.367  12.970  20.095  0.00  0.00    +0.000 C 
ATOM     11  O   UNL     1      -1.698  11.853  21.444  0.00  0.00    +0.000 OA
ATOM     12  C   UNL     1      -0.619  11.073  21.752  0.00  0.00    +0.000 C 
ATOM     13  O   UNL     1      -0.172  11.111  22.891  0.00  0.00    +0.000 OA
ENDBRANCH   1   3
BRANCH   1  21
ATOM     14  N   UNL     1       4.454   5.275  17.490  0.00  0.00    +0.000 N 
ATOM     15  N   UNL     1       4.784   3.986  17.711  0.00  0.00    +0.000 NA
ATOM     16  C   UNL     1       4.102   3.674  18.812  0.00  0.00    +0.000 A 
ATOM     17 CL   UNL     1       4.196   2.116  19.474  0.00  0.00    +0.000 Cl
ATOM     18  C   UNL     1       3.332   4.752  19.303  0.00  0.00    +0.000 A 
ATOM     19  C   UNL     1       2.454   4.960  20.377  0.00  0.00    +0.000 A 
ATOM     20  C   UNL     1       1.823   6.207  20.519  0.00  0.00    +0.000 A 
ATOM     21  C   UNL     1       2.074   7.277  19.655  0.00  0.00    +0.000 A 
ATOM     22  C   UNL     1       2.973   7.065  18.582  0.00  0.00    +0.000 A 
ATOM     23  C   UNL     1       3.576   5.800  18.417  0.00  0.00    +0.000 A 
BRANCH  14  25
ATOM     24  C   UNL     1       5.551   4.932  15.312  0.00  0.00    +0.000 C 
ATOM     25  C   UNL     1       5.022   5.931  16.326  0.00  0.00    +0.000 C 
ENDBRANCH  14  25
ENDBRANCH   1  21
TORSDOF 3
ENDMDL
MODEL 5
REMARK VINA RESULT:      -7.5      3.893      8.188
REMARK  Name = 
REMARK  6 active torsions:
REMARK  status: ('A' for Active; 'I' for Inactive)
REMARK    1  A    between atoms: C_1  and  C_2
REMARK    2  A    between atoms: C_2  and  N_3
REMARK    3  A    between atoms: C_10  and  N_11
REMARK    4  A    between atoms: N_11  and  C_12
REMARK    5  A    between atoms: C_12  and  C_13
REMARK    6  A    between atoms: C_18  and  C_19
REMARK                            x       y       z     vdW  Elec       q    Type
REMARK                         _______ _______ _______ _____ _____    ______ ____
ROOT
ATOM      1  N   UNL     1       2.247   7.729  19.566  0.00  0.00    +0.000 N 
ATOM      2  H   UNL     1       2.891   8.247  18.954  0.00  0.00    +0.000 HD
ENDROOT
BRANCH   1   3
ATOM      3  C   UNL     1       2.455   6.337  19.532  0.00  0.00    +0.000 C 
ATOM      4  C   UNL     1       1.776   5.469  20.577  0.00  0.00    +0.000 C 
ATOM      5  C   UNL     1       3.190   5.717  18.548  0.00  0.00    +0.000 C 
ATOM      6  C   UNL     1       3.892   6.548  17.524  0.00  0.00    +0.000 C 
ATOM      7  O   UNL     1       3.752   7.766  17.418  0.00  0.00    +0.000 OA
ATOM      8  C   UNL     1       4.804   5.859  16.598  0.00  0.00    +0.000 C 
ATOM      9  C   UNL     1       4.931   4.534  16.650  0.00  0.00    +0.000 C 
ATOM     10  C   UNL     1       5.819   3.733  15.747  0.00  0.00    +0.000 C 
ATOM     11  O   UNL     1       4.209   3.742  17.552  0.00  0.00    +0.000 OA
ATOM     12  C   UNL     1       3.299   4.229  18.448  0.00  0.00    +0.000 C 
ATOM     13  O   UNL     1       2.628   3.436  19.094  0.00  0.00    +0.000 OA
ENDBRANCH   1   3
BRANCH   1  21
ATOM     14  N   UNL     1      -1.010  11.496  19.795  0.00  0.00    +0.000 N 
ATOM     15  N   UNL     1      -1.726  12.066  20.787  0.00  0.00    +0.000 NA
ATOM     16  C   UNL     1      -1.377  11.365  21.865  0.00  0.00    +0.000 A 
ATOM     17 CL   UNL     1      -2.029  11.739  23.385  0.00  0.00    +0.000 Cl
ATOM     18  C   UNL     1      -0.440  10.348  21.578  0.00  0.00    +0.000 A 
ATOM     19  C   UNL     1       0.245   9.369  22.311  0.00  0.00    +0.000 A 
ATOM     20  C   UNL     1       1.163   8.533  21.655  0.00  0.00    +0.000 A 
ATOM     21  C   UNL     1       1.390   8.604  20.277  0.00  0.00    +0.000 A 
ATOM     22  C   UNL     1       0.684   9.585  19.540  0.00  0.00    +0.000 A 
ATOM     23  C   UNL     1      -0.209  10.450  20.206  0.00  0.00    +0.000 A 
BRANCH  14  25
ATOM     24  C   UNL     1      -0.351  13.333  18.293  0.00  0.00    +0.000 C 
ATOM     25  C   UNL     1      -1.143  12.048  18.459  0.00  0.00    +0.000 C 
ENDBRANCH  14  25
ENDBRANCH   1  21
TORSDOF 3
ENDMDL
MODEL 6
REMARK VINA RESULT:      -7.5      4.080      7.888
REMARK  Name = 
REMARK  6 active torsions:
REMARK  status: ('A' for Active; 'I' for Inactive)
REMARK    1  A    between atoms: C_1  and  C_2
REMARK    2  A    between atoms: C_2  and  N_3
REMARK    3  A    between atoms: C_10  and  N_11
REMARK    4  A    between atoms: N_11  and  C_12
REMARK    5  A    between atoms: C_12  and  C_13
REMARK    6  A    between atoms: C_18  and  C_19
REMARK                            x       y       z     vdW  Elec       q    Type
REMARK                         _______ _______ _______ _____ _____    ______ ____
ROOT
ATOM      1  N   UNL     1       2.010   7.393  20.491  0.00  0.00    +0.000 N 
ATOM      2  H   UNL     1       2.210   6.773  21.287  0.00  0.00    +0.000 HD
ENDROOT
BRANCH   1   3
ATOM      3  C   UNL     1       2.540   6.918  19.277  0.00  0.00    +0.000 C 
ATOM      4  C   UNL     1       2.813   7.910  18.159  0.00  0.00    +0.000 C 
ATOM      5  C   UNL     1       2.888   5.602  19.079  0.00  0.00    +0.000 C 
ATOM      6  C   UNL     1       2.603   4.600  20.150  0.00  0.00    +0.000 C 
ATOM      7  O   UNL     1       2.189   4.895  21.271  0.00  0.00    +0.000 OA
ATOM      8  C   UNL     1       2.832   3.182  19.832  0.00  0.00    +0.000 C 
ATOM      9  C   UNL     1       3.336   2.836  18.648  0.00  0.00    +0.000 C 
ATOM     10  C   UNL     1       3.621   1.426  18.229  0.00  0.00    +0.000 C 
ATOM     11  O   UNL     1       3.685   3.780  17.674  0.00  0.00    +0.000 OA
ATOM     12  C   UNL     1       3.567   5.132  17.832  0.00  0.00    +0.000 C 
ATOM     13  O   UNL     1       4.028   5.868  16.969  0.00  0.00    +0.000 OA
ENDBRANCH   1   3
BRANCH   1  21
ATOM     14  N   UNL     1      -1.147  11.129  19.525  0.00  0.00    +0.000 N 
ATOM     15  N   UNL     1      -1.779  12.050  20.282  0.00  0.00    +0.000 NA
ATOM     16  C   UNL     1      -1.369  11.772  21.518  0.00  0.00    +0.000 A 
ATOM     17 CL   UNL     1      -1.903  12.698  22.835  0.00  0.00    +0.000 Cl
ATOM     18  C   UNL     1      -0.475  10.679  21.566  0.00  0.00    +0.000 A 
ATOM     19  C   UNL     1       0.241  10.001  22.564  0.00  0.00    +0.000 A 
ATOM     20  C   UNL     1       1.093   8.946  22.204  0.00  0.00    +0.000 A 
ATOM     21  C   UNL     1       1.223   8.504  20.884  0.00  0.00    +0.000 A 
ATOM     22  C   UNL     1       0.487   9.182  19.883  0.00  0.00    +0.000 A 
ATOM     23  C   UNL     1      -0.339  10.268  20.241  0.00  0.00    +0.000 A 
BRANCH  14  25
ATOM     24  C   UNL     1      -2.296  10.061  17.627  0.00  0.00    +0.000 C 
ATOM     25  C   UNL     1      -1.362  11.166  18.090  0.00  0.00    +0.000 C 
ENDBRANCH  14  25
ENDBRANCH   1  21
TORSDOF 3
ENDMDL
MODEL 7
REMARK VINA RESULT:      -7.5      1.803      3.369
REMARK  Name = 
REMARK  6 active torsions:
REMARK  status: ('A' for Active; 'I' for Inactive)
REMARK    1  A    between atoms: C_1  and  C_2
REMARK    2  A    between atoms: C_2  and  N_3
REMARK    3  A    between atoms: C_10  and  N_11
REMARK    4  A    between atoms: N_11  and  C_12
REMARK    5  A    between atoms: C_12  and  C_13
REMARK    6  A    between atoms: C_18  and  C_19
REMARK                            x       y       z     vdW  Elec       q    Type
REMARK                         _______ _______ _______ _____ _____    ______ ____
ROOT
ATOM      1  N   UNL     1       1.193   9.170  19.540  0.00  0.00    +0.000 N 
ATOM      2  H   UNL     1       0.898   9.759  18.750  0.00  0.00    +0.000 HD
ENDROOT
BRANCH   1   3
ATOM      3  C   UNL     1       0.639   9.577  20.768  0.00  0.00    +0.000 C 
ATOM      4  C   UNL     1       1.167   8.959  22.051  0.00  0.00    +0.000 C 
ATOM      5  C   UNL     1      -0.313  10.565  20.865  0.00  0.00    +0.000 C 
ATOM      6  C   UNL     1      -0.872  11.170  19.619  0.00  0.00    +0.000 C 
ATOM      7  O   UNL     1      -0.439  10.935  18.491  0.00  0.00    +0.000 OA
ATOM      8  C   UNL     1      -2.006  12.096  19.761  0.00  0.00    +0.000 C 
ATOM      9  C   UNL     1      -2.458  12.415  20.973  0.00  0.00    +0.000 C 
ATOM     10  C   UNL     1      -3.596  13.356  21.231  0.00  0.00    +0.000 C 
ATOM     11  O   UNL     1      -1.881  11.917  22.148  0.00  0.00    +0.000 OA
ATOM     12  C   UNL     1      -0.802  11.079  22.182  0.00  0.00    +0.000 C 
ATOM     13  O   UNL     1      -0.298  10.814  23.265  0.00  0.00    +0.000 OA
ENDBRANCH   1   3
BRANCH   1  21
ATOM     14  N   UNL     1       3.008   4.543  19.932  0.00  0.00    +0.000 N 
ATOM     15  N   UNL     1       3.865   3.800  19.201  0.00  0.00    +0.000 NA
ATOM     16  C   UNL     1       4.211   4.614  18.206  0.00  0.00    +0.000 A 
ATOM     17 CL   UNL     1       5.308   4.106  17.017  0.00  0.00    +0.000 Cl
ATOM     18  C   UNL     1       3.585   5.878  18.288  0.00  0.00    +0.000 A 
ATOM     19  C   UNL     1       3.603   7.065  17.541  0.00  0.00    +0.000 A 
ATOM     20  C   UNL     1       2.847   8.165  17.979  0.00  0.00    +0.000 A 
ATOM     21  C   UNL     1       2.030   8.111  19.112  0.00  0.00    +0.000 A 
ATOM     22  C   UNL     1       2.006   6.904  19.853  0.00  0.00    +0.000 A 
ATOM     23  C   UNL     1       2.795   5.813  19.435  0.00  0.00    +0.000 A 
BRANCH  14  25
ATOM     24  C   UNL     1       1.143   3.223  20.850  0.00  0.00    +0.000 C 
ATOM     25  C   UNL     1       2.447   3.948  21.132  0.00  0.00    +0.000 C 
ENDBRANCH  14  25
ENDBRANCH   1  21
TORSDOF 3
ENDMDL
MODEL 8
REMARK VINA RESULT:      -7.5      4.117      8.244
REMARK  Name = 
REMARK  6 active torsions:
REMARK  status: ('A' for Active; 'I' for Inactive)
REMARK    1  A    between atoms: C_1  and  C_2
REMARK    2  A    between atoms: C_2  and  N_3
REMARK    3  A    between atoms: C_10  and  N_11
REMARK    4  A    between atoms: N_11  and  C_12
REMARK    5  A    between atoms: C_12  and  C_13
REMARK    6  A    between atoms: C_18  and  C_19
REMARK                            x       y       z     vdW  Elec       q    Type
REMARK                         _______ _______ _______ _____ _____    ______ ____
ROOT
ATOM      1  N   UNL     1       4.142   4.751  18.815  0.00  0.00    +0.000 N 
ATOM      2  H   UNL     1       3.708   3.838  18.624  0.00  0.00    +0.000 HD
ENDROOT
BRANCH   1   3
ATOM      3  C   UNL     1       5.469   4.836  18.356  0.00  0.00    +0.000 C 
ATOM      4  C   UNL     1       6.570   5.159  19.352  0.00  0.00    +0.000 C 
ATOM      5  C   UNL     1       5.826   4.571  17.054  0.00  0.00    +0.000 C 
ATOM      6  C   UNL     1       4.762   4.279  16.047  0.00  0.00    +0.000 C 
ATOM      7  O   UNL     1       3.574   4.129  16.331  0.00  0.00    +0.000 OA
ATOM      8  C   UNL     1       5.171   4.172  14.638  0.00  0.00    +0.000 C 
ATOM      9  C   UNL     1       6.458   4.271  14.307  0.00  0.00    +0.000 C 
ATOM     10  C   UNL     1       6.981   4.163  12.907  0.00  0.00    +0.000 C 
ATOM     11  O   UNL     1       7.468   4.458  15.259  0.00  0.00    +0.000 OA
ATOM     12  C   UNL     1       7.253   4.541  16.605  0.00  0.00    +0.000 C 
ATOM     13  O   UNL     1       8.220   4.569  17.355  0.00  0.00    +0.000 OA
ENDBRANCH   1   3
BRANCH   1  21
ATOM     14  N   UNL     1       1.598   9.031  19.053  0.00  0.00    +0.000 N 
ATOM     15  N   UNL     1       0.677   9.536  19.900  0.00  0.00    +0.000 NA
ATOM     16  C   UNL     1       0.526   8.572  20.807  0.00  0.00    +0.000 A 
ATOM     17 CL   UNL     1      -0.546   8.768  22.106  0.00  0.00    +0.000 Cl
ATOM     18  C   UNL     1       1.344   7.449  20.553  0.00  0.00    +0.000 A 
ATOM     19  C   UNL     1       1.583   6.212  21.171  0.00  0.00    +0.000 A 
ATOM     20  C   UNL     1       2.537   5.341  20.621  0.00  0.00    +0.000 A 
ATOM     21  C   UNL     1       3.232   5.635  19.444  0.00  0.00    +0.000 A 
ATOM     22  C   UNL     1       2.975   6.879  18.818  0.00  0.00    +0.000 A 
ATOM     23  C   UNL     1       2.045   7.771  19.392  0.00  0.00    +0.000 A 
BRANCH  14  25
ATOM     24  C   UNL     1       2.060  11.330  18.301  0.00  0.00    +0.000 C 
ATOM     25  C   UNL     1       2.016   9.857  17.935  0.00  0.00    +0.000 C 
ENDBRANCH  14  25
ENDBRANCH   1  21
TORSDOF 3
ENDMDL
MODEL 9
REMARK VINA RESULT:      -7.4      1.867      2.994
REMARK  Name = 
REMARK  6 active torsions:
REMARK  status: ('A' for Active; 'I' for Inactive)
REMARK    1  A    between atoms: C_1  and  C_2
REMARK    2  A    between atoms: C_2  and  N_3
REMARK    3  A    between atoms: C_10  and  N_11
REMARK    4  A    between atoms: N_11  and  C_12
REMARK    5  A    between atoms: C_12  and  C_13
REMARK    6  A    between atoms: C_18  and  C_19
REMARK                            x       y       z     vdW  Elec       q    Type
REMARK                         _______ _______ _______ _____ _____    ______ ____
ROOT
ATOM      1  N   UNL     1       1.121   9.605  19.716  0.00  0.00    +0.000 N 
ATOM      2  H   UNL     1       1.564   9.994  20.559  0.00  0.00    +0.000 HD
ENDROOT
BRANCH   1   3
ATOM      3  C   UNL     1      -0.035  10.307  19.327  0.00  0.00    +0.000 C 
ATOM      4  C   UNL     1      -0.612  10.059  17.944  0.00  0.00    +0.000 C 
ATOM      5  C   UNL     1      -0.708  11.160  20.170  0.00  0.00    +0.000 C 
ATOM      6  C   UNL     1      -0.147  11.445  21.525  0.00  0.00    +0.000 C 
ATOM      7  O   UNL     1       0.826  10.860  22.000  0.00  0.00    +0.000 OA
ATOM      8  C   UNL     1      -0.803  12.490  22.326  0.00  0.00    +0.000 C 
ATOM      9  C   UNL     1      -1.894  13.099  21.864  0.00  0.00    +0.000 C 
ATOM     10  C   UNL     1      -2.646  14.164  22.603  0.00  0.00    +0.000 C 
ATOM     11  O   UNL     1      -2.473  12.773  20.631  0.00  0.00    +0.000 OA
ATOM     12  C   UNL     1      -2.004  11.803  19.791  0.00  0.00    +0.000 C 
ATOM     13  O   UNL     1      -2.665  11.510  18.804  0.00  0.00    +0.000 OA
ENDBRANCH   1   3
BRANCH   1  21
ATOM     14  N   UNL     1       2.766   4.903  19.926  0.00  0.00    +0.000 N 
ATOM     15  N   UNL     1       3.502   4.123  19.107  0.00  0.00    +0.000 NA
ATOM     16  C   UNL     1       3.769   4.921  18.074  0.00  0.00    +0.000 A 
ATOM     17 CL   UNL     1       4.702   4.364  16.772  0.00  0.00    +0.000 Cl
ATOM     18  C   UNL     1       3.212   6.210  18.219  0.00  0.00    +0.000 A 
ATOM     19  C   UNL     1       3.196   7.396  17.469  0.00  0.00    +0.000 A 
ATOM     20  C   UNL     1       2.543   8.527  17.983  0.00  0.00    +0.000 A 
ATOM     21  C   UNL     1       1.858   8.510  19.202  0.00  0.00    +0.000 A 
ATOM     22  C   UNL     1       1.865   7.306  19.947  0.00  0.00    +0.000 A 
ATOM     23  C   UNL     1       2.554   6.181  19.449  0.00  0.00    +0.000 A 
BRANCH  14  25
ATOM     24  C   UNL     1       1.230   3.294  20.982  0.00  0.00    +0.000 C 
ATOM     25  C   UNL     1       2.318   4.334  21.184  0.00  0.00    +0.000 C 
ENDBRANCH  14  25
ENDBRANCH   1  21
TORSDOF 3
ENDMDL
