MODEL 1
REMARK VINA RESULT:      -6.6      0.000      0.000
REMARK  Name = 
REMARK  8 active torsions:
REMARK  status: ('A' for Active; 'I' for Inactive)
REMARK    1  A    between atoms: C_1  and  C_2
REMARK    2  A    between atoms: C_2  and  C_3
REMARK    3  A    between atoms: C_3  and  C_4
REMARK    4  A    between atoms: C_3  and  C_5
REMARK    5  A    between atoms: C_9  and  C_10
REMARK    6  A    between atoms: C_10  and  C_11
REMARK    7  A    between atoms: C_10  and  C_12
REMARK    8  A    between atoms: C_15  and  O_16
REMARK                            x       y       z     vdW  Elec       q    Type
REMARK                         _______ _______ _______ _____ _____    ______ ____
ROOT
ATOM      1  C   UNL     1       4.997   5.711  17.762  0.00  0.00    +0.000 A 
ATOM      2  C   UNL     1       4.082   6.749  17.534  0.00  0.00    +0.000 A 
ATOM      3  C   UNL     1       2.871   6.792  18.221  0.00  0.00    +0.000 A 
ATOM      4  C   UNL     1       2.524   5.762  19.098  0.00  0.00    +0.000 A 
ATOM      5  C   UNL     1       3.410   4.700  19.351  0.00  0.00    +0.000 A 
ATOM      6  C   UNL     1       4.674   4.749  18.734  0.00  0.00    +0.000 A 
ENDROOT
BRANCH   1   7
ATOM      7  C   UNL     1       6.264   5.593  16.922  0.00  0.00    +0.000 C 
ATOM      8  C   UNL     1       5.909   5.534  15.426  0.00  0.00    +0.000 C 
BRANCH   7  10
ATOM      9  C   UNL     1       7.878   6.690  18.568  0.00  0.00    +0.000 C 
ATOM     10  C   UNL     1       7.285   6.718  17.166  0.00  0.00    +0.000 C 
ENDBRANCH   7  10
ENDBRANCH   1   7
BRANCH   5  11
ATOM     11  C   UNL     1       2.878   3.476  20.094  0.00  0.00    +0.000 C 
ATOM     12  C   UNL     1       1.857   3.907  21.160  0.00  0.00    +0.000 C 
BRANCH  11  13
ATOM     13  C   UNL     1       2.278   2.423  19.196  0.00  0.00    +0.000 C 
ATOM     14  C   UNL     1       2.501   2.414  17.705  0.00  0.00    +0.000 C 
ATOM     15  C   UNL     1       3.180   1.386  18.566  0.00  0.00    +0.000 C 
ENDBRANCH  11  13
ENDBRANCH   5  11
BRANCH   6  16
ATOM     16  O   UNL     1       5.638   3.848  19.097  0.00  0.00    +0.000 OA
ATOM     17  H   UNL     1       5.618   3.830  20.074  0.00  0.00    +0.000 HD
ENDBRANCH   6  16
TORSDOF 5
ENDMDL
MODEL 2
REMARK VINA RESULT:      -6.5      0.792      1.876
REMARK  Name = 
REMARK  8 active torsions:
REMARK  status: ('A' for Active; 'I' for Inactive)
REMARK    1  A    between atoms: C_1  and  C_2
REMARK    2  A    between atoms: C_2  and  C_3
REMARK    3  A    between atoms: C_3  and  C_4
REMARK    4  A    between atoms: C_3  and  C_5
REMARK    5  A    between atoms: C_9  and  C_10
REMARK    6  A    between atoms: C_10  and  C_11
REMARK    7  A    between atoms: C_10  and  C_12
REMARK    8  A    between atoms: C_15  and  O_16
REMARK                            x       y       z     vdW  Elec       q    Type
REMARK                         _______ _______ _______ _____ _____    ______ ____
ROOT
ATOM      1  C   UNL     1       5.277   5.484  17.999  0.00  0.00    +0.000 A 
ATOM      2  C   UNL     1       4.500   6.579  17.592  0.00  0.00    +0.000 A 
ATOM      3  C   UNL     1       3.121   6.582  17.786  0.00  0.00    +0.000 A 
ATOM      4  C   UNL     1       2.485   5.463  18.328  0.00  0.00    +0.000 A 
ATOM      5  C   UNL     1       3.226   4.342  18.743  0.00  0.00    +0.000 A 
ATOM      6  C   UNL     1       4.627   4.419  18.646  0.00  0.00    +0.000 A 
ENDROOT
BRANCH   1   7
ATOM      7  C   UNL     1       6.765   5.424  17.674  0.00  0.00    +0.000 C 
ATOM      8  C   UNL     1       6.985   5.528  16.155  0.00  0.00    +0.000 C 
BRANCH   7  10
ATOM      9  C   UNL     1       7.738   7.783  17.595  0.00  0.00    +0.000 C 
ATOM     10  C   UNL     1       7.608   6.493  18.392  0.00  0.00    +0.000 C 
ENDBRANCH   7  10
ENDBRANCH   1   7
BRANCH   5  11
ATOM     11  C   UNL     1       2.470   3.055  19.067  0.00  0.00    +0.000 C 
ATOM     12  C   UNL     1       3.006   1.897  18.210  0.00  0.00    +0.000 C 
BRANCH  11  13
ATOM     13  C   UNL     1       2.497   2.676  20.527  0.00  0.00    +0.000 C 
ATOM     14  C   UNL     1       2.336   3.695  21.626  0.00  0.00    +0.000 C 
ATOM     15  C   UNL     1       1.218   2.734  21.331  0.00  0.00    +0.000 C 
ENDBRANCH  11  13
ENDBRANCH   5  11
BRANCH   6  16
ATOM     16  O   UNL     1       5.399   3.441  19.213  0.00  0.00    +0.000 OA
ATOM     17  H   UNL     1       5.949   3.094  18.484  0.00  0.00    +0.000 HD
ENDBRANCH   6  16
TORSDOF 5
ENDMDL
MODEL 3
REMARK VINA RESULT:      -6.3      1.383      4.996
REMARK  Name = 
REMARK  8 active torsions:
REMARK  status: ('A' for Active; 'I' for Inactive)
REMARK    1  A    between atoms: C_1  and  C_2
REMARK    2  A    between atoms: C_2  and  C_3
REMARK    3  A    between atoms: C_3  and  C_4
REMARK    4  A    between atoms: C_3  and  C_5
REMARK    5  A    between atoms: C_9  and  C_10
REMARK    6  A    between atoms: C_10  and  C_11
REMARK    7  A    between atoms: C_10  and  C_12
REMARK    8  A    between atoms: C_15  and  O_16
REMARK                            x       y       z     vdW  Elec       q    Type
REMARK                         _______ _______ _______ _____ _____    ______ ____
ROOT
ATOM      1  C   UNL     1       3.249   4.299  18.378  0.00  0.00    +0.000 A 
ATOM      2  C   UNL     1       2.735   5.595  18.535  0.00  0.00    +0.000 A 
ATOM      3  C   UNL     1       3.348   6.682  17.916  0.00  0.00    +0.000 A 
ATOM      4  C   UNL     1       4.524   6.503  17.185  0.00  0.00    +0.000 A 
ATOM      5  C   UNL     1       5.076   5.222  17.008  0.00  0.00    +0.000 A 
ATOM      6  C   UNL     1       4.367   4.131  17.543  0.00  0.00    +0.000 A 
ENDROOT
BRANCH   1   7
ATOM      7  C   UNL     1       2.655   3.129  19.154  0.00  0.00    +0.000 C 
ATOM      8  C   UNL     1       3.651   2.635  20.218  0.00  0.00    +0.000 C 
BRANCH   7  10
ATOM      9  C   UNL     1       1.214   2.938  21.252  0.00  0.00    +0.000 C 
ATOM     10  C   UNL     1       1.302   3.437  19.817  0.00  0.00    +0.000 C 
ENDBRANCH   7  10
ENDBRANCH   1   7
BRANCH   5  11
ATOM     11  C   UNL     1       6.491   5.116  16.443  0.00  0.00    +0.000 C 
ATOM     12  C   UNL     1       7.467   4.668  17.543  0.00  0.00    +0.000 C 
BRANCH  11  13
ATOM     13  C   UNL     1       6.609   4.208  15.244  0.00  0.00    +0.000 C 
ATOM     14  C   UNL     1       5.620   4.245  14.107  0.00  0.00    +0.000 C 
ATOM     15  C   UNL     1       7.004   4.795  13.908  0.00  0.00    +0.000 C 
ENDBRANCH  11  13
ENDBRANCH   5  11
BRANCH   6  16
ATOM     16  O   UNL     1       4.755   2.855  17.234  0.00  0.00    +0.000 OA
ATOM     17  H   UNL     1       5.537   2.683  17.793  0.00  0.00    +0.000 HD
ENDBRANCH   6  16
TORSDOF 5
ENDMDL
MODEL 4
REMARK VINA RESULT:      -6.3      0.604      1.514
REMARK  Name = 
REMARK  8 active torsions:
REMARK  status: ('A' for Active; 'I' for Inactive)
REMARK    1  A    between atoms: C_1  and  C_2
REMARK    2  A    between atoms: C_2  and  C_3
REMARK    3  A    between atoms: C_3  and  C_4
REMARK    4  A    between atoms: C_3  and  C_5
REMARK    5  A    between atoms: C_9  and  C_10
REMARK    6  A    between atoms: C_10  and  C_11
REMARK    7  A    between atoms: C_10  and  C_12
REMARK    8  A    between atoms: C_15  and  O_16
REMARK                            x       y       z     vdW  Elec       q    Type
REMARK                         _______ _______ _______ _____ _____    ______ ____
ROOT
ATOM      1  C   UNL     1       5.235   6.038  17.853  0.00  0.00    +0.000 A 
ATOM      2  C   UNL     1       4.258   6.963  17.456  0.00  0.00    +0.000 A 
ATOM      3  C   UNL     1       2.967   6.901  17.977  0.00  0.00    +0.000 A 
ATOM      4  C   UNL     1       2.612   5.873  18.853  0.00  0.00    +0.000 A 
ATOM      5  C   UNL     1       3.559   4.922  19.272  0.00  0.00    +0.000 A 
ATOM      6  C   UNL     1       4.883   5.084  18.823  0.00  0.00    +0.000 A 
ENDROOT
BRANCH   1   7
ATOM      7  C   UNL     1       6.608   6.027  17.192  0.00  0.00    +0.000 C 
ATOM      8  C   UNL     1       7.669   6.588  18.154  0.00  0.00    +0.000 C 
BRANCH   7  10
ATOM      9  C   UNL     1       6.133   4.082  15.608  0.00  0.00    +0.000 C 
ATOM     10  C   UNL     1       7.050   4.642  16.687  0.00  0.00    +0.000 C 
ENDBRANCH   7  10
ENDBRANCH   1   7
BRANCH   5  11
ATOM     11  C   UNL     1       3.060   3.676  20.001  0.00  0.00    +0.000 C 
ATOM     12  C   UNL     1       2.015   4.066  21.060  0.00  0.00    +0.000 C 
BRANCH  11  13
ATOM     13  C   UNL     1       2.502   2.611  19.089  0.00  0.00    +0.000 C 
ATOM     14  C   UNL     1       2.777   2.596  17.607  0.00  0.00    +0.000 C 
ATOM     15  C   UNL     1       3.436   1.580  18.498  0.00  0.00    +0.000 C 
ENDBRANCH  11  13
ENDBRANCH   5  11
BRANCH   6  16
ATOM     16  O   UNL     1       5.876   4.306  19.353  0.00  0.00    +0.000 OA
ATOM     17  H   UNL     1       6.704   4.644  18.959  0.00  0.00    +0.000 HD
ENDBRANCH   6  16
TORSDOF 5
ENDMDL
MODEL 5
REMARK VINA RESULT:      -6.3      1.127      5.097
REMARK  Name = 
REMARK  8 active torsions:
REMARK  status: ('A' for Active; 'I' for Inactive)
REMARK    1  A    between atoms: C_1  and  C_2
REMARK    2  A    between atoms: C_2  and  C_3
REMARK    3  A    between atoms: C_3  and  C_4
REMARK    4  A    between atoms: C_3  and  C_5
REMARK    5  A    between atoms: C_9  and  C_10
REMARK    6  A    between atoms: C_10  and  C_11
REMARK    7  A    between atoms: C_10  and  C_12
REMARK    8  A    between atoms: C_15  and  O_16
REMARK                            x       y       z     vdW  Elec       q    Type
REMARK                         _______ _______ _______ _____ _____    ______ ____
ROOT
ATOM      1  C   UNL     1       2.967   4.281  19.284  0.00  0.00    +0.000 A 
ATOM      2  C   UNL     1       2.341   5.508  19.544  0.00  0.00    +0.000 A 
ATOM      3  C   UNL     1       2.650   6.638  18.789  0.00  0.00    +0.000 A 
ATOM      4  C   UNL     1       3.639   6.575  17.805  0.00  0.00    +0.000 A 
ATOM      5  C   UNL     1       4.295   5.366  17.516  0.00  0.00    +0.000 A 
ATOM      6  C   UNL     1       3.875   4.218  18.212  0.00  0.00    +0.000 A 
ENDROOT
BRANCH   1   7
ATOM      7  C   UNL     1       2.725   3.078  20.188  0.00  0.00    +0.000 C 
ATOM      8  C   UNL     1       2.099   3.528  21.519  0.00  0.00    +0.000 C 
BRANCH   7  10
ATOM      9  C   UNL     1       0.643   2.534  18.815  0.00  0.00    +0.000 C 
ATOM     10  C   UNL     1       1.853   1.980  19.553  0.00  0.00    +0.000 C 
ENDBRANCH   7  10
ENDBRANCH   1   7
BRANCH   5  11
ATOM     11  C   UNL     1       5.543   5.412  16.637  0.00  0.00    +0.000 C 
ATOM     12  C   UNL     1       5.317   6.360  15.447  0.00  0.00    +0.000 C 
BRANCH  11  13
ATOM     13  C   UNL     1       6.802   5.797  17.374  0.00  0.00    +0.000 C 
ATOM     14  C   UNL     1       6.992   5.517  18.843  0.00  0.00    +0.000 C 
ATOM     15  C   UNL     1       7.754   4.713  17.827  0.00  0.00    +0.000 C 
ENDBRANCH  11  13
ENDBRANCH   5  11
BRANCH   6  16
ATOM     16  O   UNL     1       4.342   2.989  17.833  0.00  0.00    +0.000 OA
ATOM     17  H   UNL     1       5.315   3.063  17.866  0.00  0.00    +0.000 HD
ENDBRANCH   6  16
TORSDOF 5
ENDMDL
MODEL 6
REMARK VINA RESULT:      -6.2      0.943      4.922
REMARK  Name = 
REMARK  8 active torsions:
REMARK  status: ('A' for Active; 'I' for Inactive)
REMARK    1  A    between atoms: C_1  and  C_2
REMARK    2  A    between atoms: C_2  and  C_3
REMARK    3  A    between atoms: C_3  and  C_4
REMARK    4  A    between atoms: C_3  and  C_5
REMARK    5  A    between atoms: C_9  and  C_10
REMARK    6  A    between atoms: C_10  and  C_11
REMARK    7  A    between atoms: C_10  and  C_12
REMARK    8  A    between atoms: C_15  and  O_16
REMARK                            x       y       z     vdW  Elec       q    Type
REMARK                         _______ _______ _______ _____ _____    ______ ____
ROOT
ATOM      1  C   UNL     1       3.261   4.520  19.078  0.00  0.00    +0.000 A 
ATOM      2  C   UNL     1       2.505   5.692  18.928  0.00  0.00    +0.000 A 
ATOM      3  C   UNL     1       2.947   6.721  18.099  0.00  0.00    +0.000 A 
ATOM      4  C   UNL     1       4.183   6.625  17.458  0.00  0.00    +0.000 A 
ATOM      5  C   UNL     1       4.975   5.470  17.586  0.00  0.00    +0.000 A 
ATOM      6  C   UNL     1       4.446   4.401  18.332  0.00  0.00    +0.000 A 
ENDROOT
BRANCH   1   7
ATOM      7  C   UNL     1       2.844   3.450  20.079  0.00  0.00    +0.000 C 
ATOM      8  C   UNL     1       1.929   4.055  21.158  0.00  0.00    +0.000 C 
BRANCH   7  10
ATOM      9  C   UNL     1       0.760   2.539  18.920  0.00  0.00    +0.000 C 
ATOM     10  C   UNL     1       2.156   2.229  19.443  0.00  0.00    +0.000 C 
ENDBRANCH   7  10
ENDBRANCH   1   7
BRANCH   5  11
ATOM     11  C   UNL     1       6.421   5.526  17.096  0.00  0.00    +0.000 C 
ATOM     12  C   UNL     1       7.387   5.429  18.288  0.00  0.00    +0.000 C 
BRANCH  11  13
ATOM     13  C   UNL     1       6.763   4.480  16.065  0.00  0.00    +0.000 C 
ATOM     14  C   UNL     1       5.814   4.102  14.957  0.00  0.00    +0.000 C 
ATOM     15  C   UNL     1       7.042   4.908  14.641  0.00  0.00    +0.000 C 
ENDBRANCH  11  13
ENDBRANCH   5  11
BRANCH   6  16
ATOM     16  O   UNL     1       5.085   3.191  18.325  0.00  0.00    +0.000 OA
ATOM     17  H   UNL     1       4.457   2.567  18.738  0.00  0.00    +0.000 HD
ENDBRANCH   6  16
TORSDOF 5
ENDMDL
MODEL 7
REMARK VINA RESULT:      -6.2      0.870      2.316
REMARK  Name = 
REMARK  8 active torsions:
REMARK  status: ('A' for Active; 'I' for Inactive)
REMARK    1  A    between atoms: C_1  and  C_2
REMARK    2  A    between atoms: C_2  and  C_3
REMARK    3  A    between atoms: C_3  and  C_4
REMARK    4  A    between atoms: C_3  and  C_5
REMARK    5  A    between atoms: C_9  and  C_10
REMARK    6  A    between atoms: C_10  and  C_11
REMARK    7  A    between atoms: C_10  and  C_12
REMARK    8  A    between atoms: C_15  and  O_16
REMARK                            x       y       z     vdW  Elec       q    Type
REMARK                         _______ _______ _______ _____ _____    ______ ____
ROOT
ATOM      1  C   UNL     1       5.361   5.751  17.914  0.00  0.00    +0.000 A 
ATOM      2  C   UNL     1       4.573   6.848  17.536  0.00  0.00    +0.000 A 
ATOM      3  C   UNL     1       3.191   6.823  17.712  0.00  0.00    +0.000 A 
ATOM      4  C   UNL     1       2.566   5.676  18.206  0.00  0.00    +0.000 A 
ATOM      5  C   UNL     1       3.319   4.553  18.591  0.00  0.00    +0.000 A 
ATOM      6  C   UNL     1       4.720   4.654  18.515  0.00  0.00    +0.000 A 
ENDROOT
BRANCH   1   7
ATOM      7  C   UNL     1       6.854   5.725  17.608  0.00  0.00    +0.000 C 
ATOM      8  C   UNL     1       7.668   5.804  18.911  0.00  0.00    +0.000 C 
BRANCH   7  10
ATOM      9  C   UNL     1       6.669   4.441  15.409  0.00  0.00    +0.000 C 
ATOM     10  C   UNL     1       7.306   4.503  16.790  0.00  0.00    +0.000 C 
ENDBRANCH   7  10
ENDBRANCH   1   7
BRANCH   5  11
ATOM     11  C   UNL     1       2.579   3.244  18.860  0.00  0.00    +0.000 C 
ATOM     12  C   UNL     1       3.164   2.118  17.993  0.00  0.00    +0.000 C 
BRANCH  11  13
ATOM     13  C   UNL     1       2.567   2.830  20.311  0.00  0.00    +0.000 C 
ATOM     14  C   UNL     1       2.293   3.808  21.425  0.00  0.00    +0.000 C 
ATOM     15  C   UNL     1       1.253   2.786  21.058  0.00  0.00    +0.000 C 
ENDBRANCH  11  13
ENDBRANCH   5  11
BRANCH   6  16
ATOM     16  O   UNL     1       5.499   3.669  19.058  0.00  0.00    +0.000 OA
ATOM     17  H   UNL     1       5.261   2.856  18.571  0.00  0.00    +0.000 HD
ENDBRANCH   6  16
TORSDOF 5
ENDMDL
MODEL 8
REMARK VINA RESULT:      -6.2      1.155      1.971
REMARK  Name = 
REMARK  8 active torsions:
REMARK  status: ('A' for Active; 'I' for Inactive)
REMARK    1  A    between atoms: C_1  and  C_2
REMARK    2  A    between atoms: C_2  and  C_3
REMARK    3  A    between atoms: C_3  and  C_4
REMARK    4  A    between atoms: C_3  and  C_5
REMARK    5  A    between atoms: C_9  and  C_10
REMARK    6  A    between atoms: C_10  and  C_11
REMARK    7  A    between atoms: C_10  and  C_12
REMARK    8  A    between atoms: C_15  and  O_16
REMARK                            x       y       z     vdW  Elec       q    Type
REMARK                         _______ _______ _______ _____ _____    ______ ____
ROOT
ATOM      1  C   UNL     1       5.419   5.569  17.311  0.00  0.00    +0.000 A 
ATOM      2  C   UNL     1       4.878   6.812  16.953  0.00  0.00    +0.000 A 
ATOM      3  C   UNL     1       3.723   7.288  17.569  0.00  0.00    +0.000 A 
ATOM      4  C   UNL     1       3.051   6.501  18.506  0.00  0.00    +0.000 A 
ATOM      5  C   UNL     1       3.557   5.246  18.890  0.00  0.00    +0.000 A 
ATOM      6  C   UNL     1       4.788   4.847  18.339  0.00  0.00    +0.000 A 
ENDROOT
BRANCH   1   7
ATOM      7  C   UNL     1       6.608   4.990  16.552  0.00  0.00    +0.000 C 
ATOM      8  C   UNL     1       7.708   4.554  17.534  0.00  0.00    +0.000 C 
BRANCH   7  10
ATOM      9  C   UNL     1       5.646   4.265  14.301  0.00  0.00    +0.000 C 
ATOM     10  C   UNL     1       6.249   3.816  15.625  0.00  0.00    +0.000 C 
ENDBRANCH   7  10
ENDBRANCH   1   7
BRANCH   5  11
ATOM     11  C   UNL     1       2.652   4.319  19.699  0.00  0.00    +0.000 C 
ATOM     12  C   UNL     1       1.852   5.130  20.732  0.00  0.00    +0.000 C 
BRANCH  11  13
ATOM     13  C   UNL     1       1.718   3.482  18.860  0.00  0.00    +0.000 C 
ATOM     14  C   UNL     1       2.218   2.544  17.792  0.00  0.00    +0.000 C 
ATOM     15  C   UNL     1       1.670   1.986  19.075  0.00  0.00    +0.000 C 
ENDBRANCH  11  13
ENDBRANCH   5  11
BRANCH   6  16
ATOM     16  O   UNL     1       5.416   3.732  18.824  0.00  0.00    +0.000 OA
ATOM     17  H   UNL     1       5.790   3.287  18.039  0.00  0.00    +0.000 HD
ENDBRANCH   6  16
TORSDOF 5
ENDMDL
MODEL 9
REMARK VINA RESULT:      -6.2      1.283      5.047
REMARK  Name = 
REMARK  8 active torsions:
REMARK  status: ('A' for Active; 'I' for Inactive)
REMARK    1  A    between atoms: C_1  and  C_2
REMARK    2  A    between atoms: C_2  and  C_3
REMARK    3  A    between atoms: C_3  and  C_4
REMARK    4  A    between atoms: C_3  and  C_5
REMARK    5  A    between atoms: C_9  and  C_10
REMARK    6  A    between atoms: C_10  and  C_11
REMARK    7  A    between atoms: C_10  and  C_12
REMARK    8  A    between atoms: C_15  and  O_16
REMARK                            x       y       z     vdW  Elec       q    Type
REMARK                         _______ _______ _______ _____ _____    ______ ____
ROOT
ATOM      1  C   UNL     1       2.895   4.027  18.788  0.00  0.00    +0.000 A 
ATOM      2  C   UNL     1       2.239   5.209  19.164  0.00  0.00    +0.000 A 
ATOM      3  C   UNL     1       2.564   6.423  18.563  0.00  0.00    +0.000 A 
ATOM      4  C   UNL     1       3.595   6.489  17.624  0.00  0.00    +0.000 A 
ATOM      5  C   UNL     1       4.281   5.329  17.223  0.00  0.00    +0.000 A 
ATOM      6  C   UNL     1       3.849   4.102  17.759  0.00  0.00    +0.000 A 
ENDROOT
BRANCH   1   7
ATOM      7  C   UNL     1       2.631   2.723  19.531  0.00  0.00    +0.000 C 
ATOM      8  C   UNL     1       3.779   2.425  20.511  0.00  0.00    +0.000 C 
BRANCH   7  10
ATOM      9  C   UNL     1       1.455   2.645  21.795  0.00  0.00    +0.000 C 
ATOM     10  C   UNL     1       1.289   2.688  20.283  0.00  0.00    +0.000 C 
ENDBRANCH   7  10
ENDBRANCH   1   7
BRANCH   5  11
ATOM     11  C   UNL     1       5.566   5.492  16.413  0.00  0.00    +0.000 C 
ATOM     12  C   UNL     1       5.376   6.570  15.333  0.00  0.00    +0.000 C 
BRANCH  11  13
ATOM     13  C   UNL     1       6.785   5.802  17.245  0.00  0.00    +0.000 C 
ATOM     14  C   UNL     1       6.865   5.462  18.712  0.00  0.00    +0.000 C 
ATOM     15  C   UNL     1       7.665   4.667  17.719  0.00  0.00    +0.000 C 
ENDBRANCH  11  13
ENDBRANCH   5  11
BRANCH   6  16
ATOM     16  O   UNL     1       4.350   2.931  17.257  0.00  0.00    +0.000 OA
ATOM     17  H   UNL     1       4.596   2.401  18.040  0.00  0.00    +0.000 HD
ENDBRANCH   6  16
TORSDOF 5
ENDMDL
