MODEL 1
REMARK VINA RESULT:      -8.1      0.000      0.000
REMARK  Name = 
REMARK  2 active torsions:
REMARK  status: ('A' for Active; 'I' for Inactive)
REMARK    1  A    between atoms: C_1  and  N_2
REMARK    2  A    between atoms: C_5  and  C_7
REMARK                            x       y       z     vdW  Elec       q    Type
REMARK                         _______ _______ _______ _____ _____    ______ ____
ROOT
ATOM      1  C   UNL     1       1.990   5.607  20.414  0.00  0.00    +0.000 C 
ATOM      2  N   UNL     1       2.716   6.199  19.320  0.00  0.00    +0.000 N 
ATOM      3  C   UNL     1       2.506   7.423  18.708  0.00  0.00    +0.000 A 
ATOM      4  N   UNL     1       1.522   8.312  19.082  0.00  0.00    +0.000 N 
ATOM      5  C   UNL     1       1.337   9.523  18.423  0.00  0.00    +0.000 C 
ATOM      6  O   UNL     1       1.894   9.908  17.403  0.00  0.00    +0.000 OA
ATOM      7  N   UNL     1       3.399   7.606  17.762  0.00  0.00    +0.000 NA
ATOM      8  C   UNL     1       4.215   6.507  17.760  0.00  0.00    +0.000 A 
ATOM      9  C   UNL     1       5.337   6.234  16.975  0.00  0.00    +0.000 A 
ATOM     10  C   UNL     1       6.011   5.025  17.163  0.00  0.00    +0.000 A 
ATOM     11  C   UNL     1       5.570   4.102  18.114  0.00  0.00    +0.000 A 
ATOM     12  C   UNL     1       4.447   4.365  18.911  0.00  0.00    +0.000 A 
ATOM     13  C   UNL     1       3.798   5.589  18.714  0.00  0.00    +0.000 A 
ATOM     14  H   UNL     1       0.976   8.111  19.899  0.00  0.00    +0.000 HD
ENDROOT
BRANCH   5  15
ATOM     15  C   UNL     1       0.320  10.418  19.067  0.00  0.00    +0.000 A 
ATOM     16  C   UNL     1       0.711  11.125  20.218  0.00  0.00    +0.000 A 
ATOM     17  C   UNL     1      -0.155  12.037  20.809  0.00  0.00    +0.000 A 
ATOM     18  C   UNL     1      -1.420  12.241  20.267  0.00  0.00    +0.000 A 
ATOM     19  C   UNL     1      -1.855  11.518  19.146  0.00  0.00    +0.000 A 
ATOM     20  C   UNL     1      -3.148  11.741  18.640  0.00  0.00    +0.000 A 
ATOM     21  C   UNL     1      -3.624  11.031  17.542  0.00  0.00    +0.000 A 
ATOM     22  C   UNL     1      -2.814  10.082  16.937  0.00  0.00    +0.000 A 
ATOM     23  C   UNL     1      -1.519   9.860  17.418  0.00  0.00    +0.000 A 
ATOM     24  C   UNL     1      -0.996  10.571  18.530  0.00  0.00    +0.000 A 
ENDBRANCH   5  15
TORSDOF 1
ENDMDL
MODEL 2
REMARK VINA RESULT:      -8.1      1.617      7.400
REMARK  Name = 
REMARK  2 active torsions:
REMARK  status: ('A' for Active; 'I' for Inactive)
REMARK    1  A    between atoms: C_1  and  N_2
REMARK    2  A    between atoms: C_5  and  C_7
REMARK                            x       y       z     vdW  Elec       q    Type
REMARK                         _______ _______ _______ _____ _____    ______ ____
ROOT
ATOM      1  C   UNL     1       1.229   8.673  21.910  0.00  0.00    +0.000 C 
ATOM      2  N   UNL     1       0.916   9.302  20.653  0.00  0.00    +0.000 N 
ATOM      3  C   UNL     1       1.414   9.009  19.395  0.00  0.00    +0.000 A 
ATOM      4  N   UNL     1       2.328   8.010  19.142  0.00  0.00    +0.000 N 
ATOM      5  C   UNL     1       2.815   7.766  17.862  0.00  0.00    +0.000 C 
ATOM      6  O   UNL     1       2.620   8.430  16.852  0.00  0.00    +0.000 OA
ATOM      7  N   UNL     1       0.857   9.796  18.502  0.00  0.00    +0.000 NA
ATOM      8  C   UNL     1      -0.026  10.601  19.170  0.00  0.00    +0.000 A 
ATOM      9  C   UNL     1      -0.893  11.577  18.671  0.00  0.00    +0.000 A 
ATOM     10  C   UNL     1      -1.707  12.273  19.566  0.00  0.00    +0.000 A 
ATOM     11  C   UNL     1      -1.655  12.005  20.936  0.00  0.00    +0.000 A 
ATOM     12  C   UNL     1      -0.792  11.027  21.450  0.00  0.00    +0.000 A 
ATOM     13  C   UNL     1       0.002  10.331  20.531  0.00  0.00    +0.000 A 
ATOM     14  H   UNL     1       2.591   7.396  19.890  0.00  0.00    +0.000 HD
ENDROOT
BRANCH   5  15
ATOM     15  C   UNL     1       3.683   6.547  17.762  0.00  0.00    +0.000 A 
ATOM     16  C   UNL     1       5.066   6.746  17.602  0.00  0.00    +0.000 A 
ATOM     17  C   UNL     1       5.934   5.661  17.593  0.00  0.00    +0.000 A 
ATOM     18  C   UNL     1       5.431   4.371  17.730  0.00  0.00    +0.000 A 
ATOM     19  C   UNL     1       4.052   4.138  17.847  0.00  0.00    +0.000 A 
ATOM     20  C   UNL     1       3.583   2.818  17.966  0.00  0.00    +0.000 A 
ATOM     21  C   UNL     1       2.223   2.544  18.065  0.00  0.00    +0.000 A 
ATOM     22  C   UNL     1       1.310   3.588  18.042  0.00  0.00    +0.000 A 
ATOM     23  C   UNL     1       1.762   4.908  17.942  0.00  0.00    +0.000 A 
ATOM     24  C   UNL     1       3.141   5.227  17.847  0.00  0.00    +0.000 A 
ENDBRANCH   5  15
TORSDOF 1
ENDMDL
MODEL 3
REMARK VINA RESULT:      -8.0      2.451      8.213
REMARK  Name = 
REMARK  2 active torsions:
REMARK  status: ('A' for Active; 'I' for Inactive)
REMARK    1  A    between atoms: C_1  and  N_2
REMARK    2  A    between atoms: C_5  and  C_7
REMARK                            x       y       z     vdW  Elec       q    Type
REMARK                         _______ _______ _______ _____ _____    ______ ____
ROOT
ATOM      1  C   UNL     1       1.586   9.808  18.052  0.00  0.00    +0.000 C 
ATOM      2  N   UNL     1       1.388   9.141  19.313  0.00  0.00    +0.000 N 
ATOM      3  C   UNL     1       1.790   7.871  19.689  0.00  0.00    +0.000 A 
ATOM      4  N   UNL     1       2.488   7.010  18.870  0.00  0.00    +0.000 N 
ATOM      5  C   UNL     1       2.854   5.734  19.287  0.00  0.00    +0.000 C 
ATOM      6  O   UNL     1       2.529   5.168  20.323  0.00  0.00    +0.000 OA
ATOM      7  N   UNL     1       1.437   7.643  20.934  0.00  0.00    +0.000 NA
ATOM      8  C   UNL     1       0.816   8.774  21.390  0.00  0.00    +0.000 A 
ATOM      9  C   UNL     1       0.295   9.055  22.656  0.00  0.00    +0.000 A 
ATOM     10  C   UNL     1      -0.300  10.298  22.877  0.00  0.00    +0.000 A 
ATOM     11  C   UNL     1      -0.380  11.245  21.853  0.00  0.00    +0.000 A 
ATOM     12  C   UNL     1       0.141  10.977  20.578  0.00  0.00    +0.000 A 
ATOM     13  C   UNL     1       0.746   9.730  20.386  0.00  0.00    +0.000 A 
ATOM     14  H   UNL     1       2.804   7.343  17.979  0.00  0.00    +0.000 HD
ENDROOT
BRANCH   5  15
ATOM     15  C   UNL     1       3.734   5.006  18.316  0.00  0.00    +0.000 A 
ATOM     16  C   UNL     1       3.105   4.260  17.302  0.00  0.00    +0.000 A 
ATOM     17  C   UNL     1       3.863   3.635  16.319  0.00  0.00    +0.000 A 
ATOM     18  C   UNL     1       5.251   3.737  16.345  0.00  0.00    +0.000 A 
ATOM     19  C   UNL     1       5.908   4.437  17.369  0.00  0.00    +0.000 A 
ATOM     20  C   UNL     1       7.312   4.501  17.368  0.00  0.00    +0.000 A 
ATOM     21  C   UNL     1       8.003   5.169  18.375  0.00  0.00    +0.000 A 
ATOM     22  C   UNL     1       7.296   5.778  19.401  0.00  0.00    +0.000 A 
ATOM     23  C   UNL     1       5.898   5.738  19.407  0.00  0.00    +0.000 A 
ATOM     24  C   UNL     1       5.159   5.074  18.393  0.00  0.00    +0.000 A 
ENDBRANCH   5  15
TORSDOF 1
ENDMDL
MODEL 4
REMARK VINA RESULT:      -8.0      1.621      7.570
REMARK  Name = 
REMARK  2 active torsions:
REMARK  status: ('A' for Active; 'I' for Inactive)
REMARK    1  A    between atoms: C_1  and  N_2
REMARK    2  A    between atoms: C_5  and  C_7
REMARK                            x       y       z     vdW  Elec       q    Type
REMARK                         _______ _______ _______ _____ _____    ______ ____
ROOT
ATOM      1  C   UNL     1       1.116   9.222  22.626  0.00  0.00    +0.000 C 
ATOM      2  N   UNL     1       0.703   9.589  21.296  0.00  0.00    +0.000 N 
ATOM      3  C   UNL     1       1.083   9.026  20.090  0.00  0.00    +0.000 A 
ATOM      4  N   UNL     1       1.955   7.965  19.976  0.00  0.00    +0.000 N 
ATOM      5  C   UNL     1       2.322   7.446  18.739  0.00  0.00    +0.000 C 
ATOM      6  O   UNL     1       2.050   7.894  17.633  0.00  0.00    +0.000 OA
ATOM      7  N   UNL     1       0.463   9.630  19.102  0.00  0.00    +0.000 NA
ATOM      8  C   UNL     1      -0.345  10.585  19.658  0.00  0.00    +0.000 A 
ATOM      9  C   UNL     1      -1.236  11.466  19.041  0.00  0.00    +0.000 A 
ATOM     10  C   UNL     1      -1.956  12.360  19.835  0.00  0.00    +0.000 A 
ATOM     11  C   UNL     1      -1.788  12.379  21.222  0.00  0.00    +0.000 A 
ATOM     12  C   UNL     1      -0.899  11.499  21.855  0.00  0.00    +0.000 A 
ATOM     13  C   UNL     1      -0.201  10.602  21.038  0.00  0.00    +0.000 A 
ATOM     14  H   UNL     1       2.273   7.510  20.811  0.00  0.00    +0.000 HD
ENDROOT
BRANCH   5  15
ATOM     15  C   UNL     1       3.159   6.204  18.824  0.00  0.00    +0.000 A 
ATOM     16  C   UNL     1       4.419   6.224  18.200  0.00  0.00    +0.000 A 
ATOM     17  C   UNL     1       5.278   5.139  18.318  0.00  0.00    +0.000 A 
ATOM     18  C   UNL     1       4.884   4.020  19.046  0.00  0.00    +0.000 A 
ATOM     19  C   UNL     1       3.615   3.952  19.642  0.00  0.00    +0.000 A 
ATOM     20  C   UNL     1       3.249   2.797  20.354  0.00  0.00    +0.000 A 
ATOM     21  C   UNL     1       1.994   2.682  20.944  0.00  0.00    +0.000 A 
ATOM     22  C   UNL     1       1.084   3.722  20.825  0.00  0.00    +0.000 A 
ATOM     23  C   UNL     1       1.439   4.885  20.134  0.00  0.00    +0.000 A 
ATOM     24  C   UNL     1       2.713   5.042  19.527  0.00  0.00    +0.000 A 
ENDBRANCH   5  15
TORSDOF 1
ENDMDL
MODEL 5
REMARK VINA RESULT:      -8.0      2.374      7.788
REMARK  Name = 
REMARK  2 active torsions:
REMARK  status: ('A' for Active; 'I' for Inactive)
REMARK    1  A    between atoms: C_1  and  N_2
REMARK    2  A    between atoms: C_5  and  C_7
REMARK                            x       y       z     vdW  Elec       q    Type
REMARK                         _______ _______ _______ _____ _____    ______ ____
ROOT
ATOM      1  C   UNL     1       1.185  11.077  18.645  0.00  0.00    +0.000 C 
ATOM      2  N   UNL     1       0.806  10.338  19.821  0.00  0.00    +0.000 N 
ATOM      3  C   UNL     1       1.086   9.020  20.138  0.00  0.00    +0.000 A 
ATOM      4  N   UNL     1       1.819   8.174  19.334  0.00  0.00    +0.000 N 
ATOM      5  C   UNL     1       2.057   6.849  19.687  0.00  0.00    +0.000 C 
ATOM      6  O   UNL     1       1.585   6.234  20.634  0.00  0.00    +0.000 OA
ATOM      7  N   UNL     1       0.583   8.729  21.316  0.00  0.00    +0.000 NA
ATOM      8  C   UNL     1      -0.017   9.865  21.789  0.00  0.00    +0.000 A 
ATOM      9  C   UNL     1      -0.659  10.090  23.010  0.00  0.00    +0.000 A 
ATOM     10  C   UNL     1      -1.199  11.352  23.262  0.00  0.00    +0.000 A 
ATOM     11  C   UNL     1      -1.105  12.372  22.313  0.00  0.00    +0.000 A 
ATOM     12  C   UNL     1      -0.462  12.161  21.085  0.00  0.00    +0.000 A 
ATOM     13  C   UNL     1       0.085  10.892  20.862  0.00  0.00    +0.000 A 
ATOM     14  H   UNL     1       2.252   8.546  18.511  0.00  0.00    +0.000 HD
ENDROOT
BRANCH   5  15
ATOM     15  C   UNL     1       2.995   6.132  18.761  0.00  0.00    +0.000 A 
ATOM     16  C   UNL     1       4.072   6.865  18.231  0.00  0.00    +0.000 A 
ATOM     17  C   UNL     1       5.026   6.237  17.440  0.00  0.00    +0.000 A 
ATOM     18  C   UNL     1       4.908   4.879  17.160  0.00  0.00    +0.000 A 
ATOM     19  C   UNL     1       3.821   4.131  17.638  0.00  0.00    +0.000 A 
ATOM     20  C   UNL     1       3.730   2.766  17.318  0.00  0.00    +0.000 A 
ATOM     21  C   UNL     1       2.658   1.994  17.756  0.00  0.00    +0.000 A 
ATOM     22  C   UNL     1       1.658   2.580  18.518  0.00  0.00    +0.000 A 
ATOM     23  C   UNL     1       1.744   3.933  18.860  0.00  0.00    +0.000 A 
ATOM     24  C   UNL     1       2.825   4.750  18.438  0.00  0.00    +0.000 A 
ENDBRANCH   5  15
TORSDOF 1
ENDMDL
MODEL 6
REMARK VINA RESULT:      -7.9      4.105      6.428
REMARK  Name = 
REMARK  2 active torsions:
REMARK  status: ('A' for Active; 'I' for Inactive)
REMARK    1  A    between atoms: C_1  and  N_2
REMARK    2  A    between atoms: C_5  and  C_7
REMARK                            x       y       z     vdW  Elec       q    Type
REMARK                         _______ _______ _______ _____ _____    ______ ____
ROOT
ATOM      1  C   UNL     1       7.087   5.888  16.683  0.00  0.00    +0.000 C 
ATOM      2  N   UNL     1       6.351   5.053  15.769  0.00  0.00    +0.000 N 
ATOM      3  C   UNL     1       5.168   4.368  15.989  0.00  0.00    +0.000 A 
ATOM      4  N   UNL     1       4.475   4.391  17.179  0.00  0.00    +0.000 N 
ATOM      5  C   UNL     1       3.300   3.669  17.359  0.00  0.00    +0.000 C 
ATOM      6  O   UNL     1       2.798   2.859  16.590  0.00  0.00    +0.000 OA
ATOM      7  N   UNL     1       4.808   3.739  14.893  0.00  0.00    +0.000 NA
ATOM      8  C   UNL     1       5.746   4.025  13.938  0.00  0.00    +0.000 A 
ATOM      9  C   UNL     1       5.799   3.634  12.598  0.00  0.00    +0.000 A 
ATOM     10  C   UNL     1       6.874   4.060  11.815  0.00  0.00    +0.000 A 
ATOM     11  C   UNL     1       7.883   4.857  12.361  0.00  0.00    +0.000 A 
ATOM     12  C   UNL     1       7.842   5.259  13.704  0.00  0.00    +0.000 A 
ATOM     13  C   UNL     1       6.746   4.832  14.463  0.00  0.00    +0.000 A 
ATOM     14  H   UNL     1       4.788   5.004  17.908  0.00  0.00    +0.000 HD
ENDROOT
BRANCH   5  15
ATOM     15  C   UNL     1       2.614   3.937  18.666  0.00  0.00    +0.000 A 
ATOM     16  C   UNL     1       2.271   2.828  19.460  0.00  0.00    +0.000 A 
ATOM     17  C   UNL     1       1.715   3.013  20.720  0.00  0.00    +0.000 A 
ATOM     18  C   UNL     1       1.484   4.302  21.192  0.00  0.00    +0.000 A 
ATOM     19  C   UNL     1       1.775   5.427  20.405  0.00  0.00    +0.000 A 
ATOM     20  C   UNL     1       1.510   6.711  20.913  0.00  0.00    +0.000 A 
ATOM     21  C   UNL     1       1.766   7.850  20.157  0.00  0.00    +0.000 A 
ATOM     22  C   UNL     1       2.286   7.721  18.877  0.00  0.00    +0.000 A 
ATOM     23  C   UNL     1       2.571   6.451  18.365  0.00  0.00    +0.000 A 
ATOM     24  C   UNL     1       2.331   5.267  19.109  0.00  0.00    +0.000 A 
ENDBRANCH   5  15
TORSDOF 1
ENDMDL
MODEL 7
REMARK VINA RESULT:      -7.9      1.454      2.021
REMARK  Name = 
REMARK  2 active torsions:
REMARK  status: ('A' for Active; 'I' for Inactive)
REMARK    1  A    between atoms: C_1  and  N_2
REMARK    2  A    between atoms: C_5  and  C_7
REMARK                            x       y       z     vdW  Elec       q    Type
REMARK                         _______ _______ _______ _____ _____    ______ ____
ROOT
ATOM      1  C   UNL     1       2.656   4.516  19.658  0.00  0.00    +0.000 C 
ATOM      2  N   UNL     1       3.127   5.488  18.706  0.00  0.00    +0.000 N 
ATOM      3  C   UNL     1       2.815   6.834  18.622  0.00  0.00    +0.000 A 
ATOM      4  N   UNL     1       1.964   7.483  19.491  0.00  0.00    +0.000 N 
ATOM      5  C   UNL     1       1.665   8.835  19.353  0.00  0.00    +0.000 C 
ATOM      6  O   UNL     1       1.984   9.578  18.434  0.00  0.00    +0.000 OA
ATOM      7  N   UNL     1       3.473   7.382  17.625  0.00  0.00    +0.000 NA
ATOM      8  C   UNL     1       4.239   6.399  17.060  0.00  0.00    +0.000 A 
ATOM      9  C   UNL     1       5.146   6.477  16.000  0.00  0.00    +0.000 A 
ATOM     10  C   UNL     1       5.815   5.317  15.601  0.00  0.00    +0.000 A 
ATOM     11  C   UNL     1       5.579   4.100  16.245  0.00  0.00    +0.000 A 
ATOM     12  C   UNL     1       4.673   4.008  17.311  0.00  0.00    +0.000 A 
ATOM     13  C   UNL     1       4.028   5.187  17.702  0.00  0.00    +0.000 A 
ATOM     14  H   UNL     1       1.613   6.983  20.285  0.00  0.00    +0.000 HD
ENDROOT
BRANCH   5  15
ATOM     15  C   UNL     1       0.843   9.394  20.476  0.00  0.00    +0.000 A 
ATOM     16  C   UNL     1       1.091   8.901  21.770  0.00  0.00    +0.000 A 
ATOM     17  C   UNL     1       0.427   9.441  22.865  0.00  0.00    +0.000 A 
ATOM     18  C   UNL     1      -0.497  10.465  22.678  0.00  0.00    +0.000 A 
ATOM     19  C   UNL     1      -0.798  10.947  21.395  0.00  0.00    +0.000 A 
ATOM     20  C   UNL     1      -1.750  11.970  21.248  0.00  0.00    +0.000 A 
ATOM     21  C   UNL     1      -2.090  12.462  19.992  0.00  0.00    +0.000 A 
ATOM     22  C   UNL     1      -1.484  11.932  18.862  0.00  0.00    +0.000 A 
ATOM     23  C   UNL     1      -0.522  10.925  18.993  0.00  0.00    +0.000 A 
ATOM     24  C   UNL     1      -0.144  10.404  20.257  0.00  0.00    +0.000 A 
ENDBRANCH   5  15
TORSDOF 1
ENDMDL
MODEL 8
REMARK VINA RESULT:      -7.9      2.037      7.743
REMARK  Name = 
REMARK  2 active torsions:
REMARK  status: ('A' for Active; 'I' for Inactive)
REMARK    1  A    between atoms: C_1  and  N_2
REMARK    2  A    between atoms: C_5  and  C_7
REMARK                            x       y       z     vdW  Elec       q    Type
REMARK                         _______ _______ _______ _____ _____    ______ ____
ROOT
ATOM      1  C   UNL     1       0.823   8.852  22.009  0.00  0.00    +0.000 C 
ATOM      2  N   UNL     1       0.858   9.636  20.802  0.00  0.00    +0.000 N 
ATOM      3  C   UNL     1       1.372   9.289  19.564  0.00  0.00    +0.000 A 
ATOM      4  N   UNL     1       1.951   8.070  19.284  0.00  0.00    +0.000 N 
ATOM      5  C   UNL     1       2.472   7.776  18.028  0.00  0.00    +0.000 C 
ATOM      6  O   UNL     1       2.604   8.538  17.080  0.00  0.00    +0.000 OA
ATOM      7  N   UNL     1       1.189  10.275  18.715  0.00  0.00    +0.000 NA
ATOM      8  C   UNL     1       0.534  11.271  19.388  0.00  0.00    +0.000 A 
ATOM      9  C   UNL     1       0.075  12.506  18.925  0.00  0.00    +0.000 A 
ATOM     10  C   UNL     1      -0.572  13.361  19.819  0.00  0.00    +0.000 A 
ATOM     11  C   UNL     1      -0.755  12.993  21.154  0.00  0.00    +0.000 A 
ATOM     12  C   UNL     1      -0.301  11.756  21.632  0.00  0.00    +0.000 A 
ATOM     13  C   UNL     1       0.331  10.910  20.713  0.00  0.00    +0.000 A 
ATOM     14  H   UNL     1       1.926   7.353  19.984  0.00  0.00    +0.000 HD
ENDROOT
BRANCH   5  15
ATOM     15  C   UNL     1       2.922   6.353  17.874  0.00  0.00    +0.000 A 
ATOM     16  C   UNL     1       1.954   5.345  18.033  0.00  0.00    +0.000 A 
ATOM     17  C   UNL     1       2.287   4.013  17.816  0.00  0.00    +0.000 A 
ATOM     18  C   UNL     1       3.587   3.676  17.452  0.00  0.00    +0.000 A 
ATOM     19  C   UNL     1       4.585   4.655  17.329  0.00  0.00    +0.000 A 
ATOM     20  C   UNL     1       5.890   4.270  16.978  0.00  0.00    +0.000 A 
ATOM     21  C   UNL     1       6.912   5.208  16.864  0.00  0.00    +0.000 A 
ATOM     22  C   UNL     1       6.642   6.546  17.107  0.00  0.00    +0.000 A 
ATOM     23  C   UNL     1       5.344   6.948  17.441  0.00  0.00    +0.000 A 
ATOM     24  C   UNL     1       4.276   6.021  17.558  0.00  0.00    +0.000 A 
ENDBRANCH   5  15
TORSDOF 1
ENDMDL
MODEL 9
REMARK VINA RESULT:      -7.6      1.723      2.677
REMARK  Name = 
REMARK  2 active torsions:
REMARK  status: ('A' for Active; 'I' for Inactive)
REMARK    1  A    between atoms: C_1  and  N_2
REMARK    2  A    between atoms: C_5  and  C_7
REMARK                            x       y       z     vdW  Elec       q    Type
REMARK                         _______ _______ _______ _____ _____    ______ ____
ROOT
ATOM      1  C   UNL     1       3.730   6.828  17.977  0.00  0.00    +0.000 C 
ATOM      2  N   UNL     1       2.992   6.342  19.114  0.00  0.00    +0.000 N 
ATOM      3  C   UNL     1       2.102   7.030  19.921  0.00  0.00    +0.000 A 
ATOM      4  N   UNL     1       1.763   8.353  19.741  0.00  0.00    +0.000 N 
ATOM      5  C   UNL     1       0.877   9.007  20.592  0.00  0.00    +0.000 C 
ATOM      6  O   UNL     1       0.391   8.581  21.631  0.00  0.00    +0.000 OA
ATOM      7  N   UNL     1       1.620   6.223  20.840  0.00  0.00    +0.000 NA
ATOM      8  C   UNL     1       2.178   4.992  20.628  0.00  0.00    +0.000 A 
ATOM      9  C   UNL     1       1.963   3.789  21.304  0.00  0.00    +0.000 A 
ATOM     10  C   UNL     1       2.664   2.653  20.895  0.00  0.00    +0.000 A 
ATOM     11  C   UNL     1       3.568   2.716  19.832  0.00  0.00    +0.000 A 
ATOM     12  C   UNL     1       3.793   3.916  19.143  0.00  0.00    +0.000 A 
ATOM     13  C   UNL     1       3.066   5.037  19.562  0.00  0.00    +0.000 A 
ATOM     14  H   UNL     1       2.108   8.833  18.931  0.00  0.00    +0.000 HD
ENDROOT
BRANCH   5  15
ATOM     15  C   UNL     1       0.520  10.395  20.148  0.00  0.00    +0.000 A 
ATOM     16  C   UNL     1       1.206  11.466  20.748  0.00  0.00    +0.000 A 
ATOM     17  C   UNL     1       0.985  12.769  20.318  0.00  0.00    +0.000 A 
ATOM     18  C   UNL     1       0.070  13.015  19.298  0.00  0.00    +0.000 A 
ATOM     19  C   UNL     1      -0.662  11.972  18.712  0.00  0.00    +0.000 A 
ATOM     20  C   UNL     1      -1.589  12.265  17.697  0.00  0.00    +0.000 A 
ATOM     21  C   UNL     1      -2.348  11.262  17.103  0.00  0.00    +0.000 A 
ATOM     22  C   UNL     1      -2.194   9.949  17.521  0.00  0.00    +0.000 A 
ATOM     23  C   UNL     1      -1.263   9.638  18.517  0.00  0.00    +0.000 A 
ATOM     24  C   UNL     1      -0.466  10.633  19.140  0.00  0.00    +0.000 A 
ENDBRANCH   5  15
TORSDOF 1
ENDMDL
