MODEL 1
REMARK VINA RESULT:      -6.5      0.000      0.000
REMARK  Name = 
REMARK  9 active torsions:
REMARK  status: ('A' for Active; 'I' for Inactive)
REMARK    1  A    between atoms: C_2  and  C_3
REMARK    2  A    between atoms: C_3  and  O_4
REMARK    3  A    between atoms: O_4  and  C_5
REMARK    4  A    between atoms: C_5  and  C_7
REMARK    5  A    between atoms: C_7  and  C_8
REMARK    6  A    between atoms: C_15  and  C_16
REMARK    7  A    between atoms: C_16  and  N_17
REMARK    8  A    between atoms: N_17  and  C_18
REMARK    9  A    between atoms: N_17  and  C_19
REMARK                            x       y       z     vdW  Elec       q    Type
REMARK                         _______ _______ _______ _____ _____    ______ ____
ROOT
ATOM      1  C   UNL     1       3.016   5.047  18.052  0.00  0.00    +0.000 C 
ATOM      2  C   UNL     1       4.293   4.389  18.571  0.00  0.00    +0.000 C 
ATOM      3  C   UNL     1       4.230   4.822  17.133  0.00  0.00    +0.000 C 
ENDROOT
BRANCH   1   4
ATOM      4  C   UNL     1       2.624   6.417  18.587  0.00  0.00    +0.000 A 
ATOM      5  C   UNL     1       2.313   6.606  19.946  0.00  0.00    +0.000 A 
ATOM      6  C   UNL     1       1.734   7.793  20.405  0.00  0.00    +0.000 A 
ATOM      7  C   UNL     1       1.458   8.824  19.512  0.00  0.00    +0.000 A 
ATOM      8  C   UNL     1       1.789   8.680  18.168  0.00  0.00    +0.000 A 
ATOM      9  C   UNL     1       2.372   7.492  17.715  0.00  0.00    +0.000 A 
ENDBRANCH   1   4
BRANCH   1  10
ATOM     10  C   UNL     1       1.831   4.146  17.826  0.00  0.00    +0.000 C 
ATOM     11  O   UNL     1       0.893   4.475  17.118  0.00  0.00    +0.000 OA
BRANCH  10  12
ATOM     12  O   UNL     1       1.980   2.963  18.473  0.00  0.00    +0.000 OA
BRANCH  12  13
ATOM     13  C   UNL     1       0.897   2.563  19.313  0.00  0.00    +0.000 C 
BRANCH  13  15
ATOM     14  C   UNL     1       1.878   2.992  21.590  0.00  0.00    +0.000 C 
ATOM     15  C   UNL     1       1.028   3.311  20.605  0.00  0.00    +0.000 C 
ENDBRANCH  13  15
ENDBRANCH  12  13
ENDBRANCH  10  12
ENDBRANCH   1  10
BRANCH   3  16
ATOM     16  C   UNL     1       5.171   5.879  16.644  0.00  0.00    +0.000 C 
BRANCH  16  17
ATOM     17  N   UNL     1       6.578   5.496  16.878  0.00  0.00    +0.000 NA
ATOM     18  C   UNL     1       7.203   4.842  15.722  0.00  0.00    +0.000 C 
ATOM     19  C   UNL     1       7.361   6.677  17.249  0.00  0.00    +0.000 C 
ENDBRANCH  16  17
ENDBRANCH   3  16
TORSDOF 7
ENDMDL
MODEL 2
REMARK VINA RESULT:      -6.5      2.895      5.094
REMARK  Name = 
REMARK  9 active torsions:
REMARK  status: ('A' for Active; 'I' for Inactive)
REMARK    1  A    between atoms: C_2  and  C_3
REMARK    2  A    between atoms: C_3  and  O_4
REMARK    3  A    between atoms: O_4  and  C_5
REMARK    4  A    between atoms: C_5  and  C_7
REMARK    5  A    between atoms: C_7  and  C_8
REMARK    6  A    between atoms: C_15  and  C_16
REMARK    7  A    between atoms: C_16  and  N_17
REMARK    8  A    between atoms: N_17  and  C_18
REMARK    9  A    between atoms: N_17  and  C_19
REMARK                            x       y       z     vdW  Elec       q    Type
REMARK                         _______ _______ _______ _____ _____    ______ ____
ROOT
ATOM      1  C   UNL     1       4.869   4.767  17.419  0.00  0.00    +0.000 C 
ATOM      2  C   UNL     1       4.826   6.012  16.534  0.00  0.00    +0.000 C 
ATOM      3  C   UNL     1       5.626   4.823  16.080  0.00  0.00    +0.000 C 
ENDROOT
BRANCH   1   4
ATOM      4  C   UNL     1       3.593   3.961  17.617  0.00  0.00    +0.000 A 
ATOM      5  C   UNL     1       2.362   4.596  17.862  0.00  0.00    +0.000 A 
ATOM      6  C   UNL     1       1.236   3.873  18.270  0.00  0.00    +0.000 A 
ATOM      7  C   UNL     1       1.317   2.495  18.439  0.00  0.00    +0.000 A 
ATOM      8  C   UNL     1       2.511   1.835  18.169  0.00  0.00    +0.000 A 
ATOM      9  C   UNL     1       3.633   2.561  17.756  0.00  0.00    +0.000 A 
ENDBRANCH   1   4
BRANCH   1  10
ATOM     10  C   UNL     1       5.709   4.849  18.666  0.00  0.00    +0.000 C 
ATOM     11  O   UNL     1       5.824   3.906  19.431  0.00  0.00    +0.000 OA
BRANCH  10  12
ATOM     12  O   UNL     1       6.311   6.059  18.777  0.00  0.00    +0.000 OA
BRANCH  12  13
ATOM     13  C   UNL     1       7.731   6.045  18.927  0.00  0.00    +0.000 C 
BRANCH  13  15
ATOM     14  C   UNL     1       7.705   8.123  17.508  0.00  0.00    +0.000 C 
ATOM     15  C   UNL     1       8.245   7.382  18.483  0.00  0.00    +0.000 C 
ENDBRANCH  13  15
ENDBRANCH  12  13
ENDBRANCH  10  12
ENDBRANCH   1  10
BRANCH   3  16
ATOM     16  C   UNL     1       5.235   4.115  14.819  0.00  0.00    +0.000 C 
BRANCH  16  17
ATOM     17  N   UNL     1       6.414   3.842  13.970  0.00  0.00    +0.000 NA
ATOM     18  C   UNL     1       6.065   3.483  12.590  0.00  0.00    +0.000 C 
ATOM     19  C   UNL     1       7.300   5.008  13.958  0.00  0.00    +0.000 C 
ENDBRANCH  16  17
ENDBRANCH   3  16
TORSDOF 7
ENDMDL
MODEL 3
REMARK VINA RESULT:      -6.3      2.488      4.914
REMARK  Name = 
REMARK  9 active torsions:
REMARK  status: ('A' for Active; 'I' for Inactive)
REMARK    1  A    between atoms: C_2  and  C_3
REMARK    2  A    between atoms: C_3  and  O_4
REMARK    3  A    between atoms: O_4  and  C_5
REMARK    4  A    between atoms: C_5  and  C_7
REMARK    5  A    between atoms: C_7  and  C_8
REMARK    6  A    between atoms: C_15  and  C_16
REMARK    7  A    between atoms: C_16  and  N_17
REMARK    8  A    between atoms: N_17  and  C_18
REMARK    9  A    between atoms: N_17  and  C_19
REMARK                            x       y       z     vdW  Elec       q    Type
REMARK                         _______ _______ _______ _____ _____    ______ ____
ROOT
ATOM      1  C   UNL     1       4.858   4.984  17.782  0.00  0.00    +0.000 C 
ATOM      2  C   UNL     1       4.788   4.565  16.314  0.00  0.00    +0.000 C 
ATOM      3  C   UNL     1       4.310   3.606  17.369  0.00  0.00    +0.000 C 
ENDROOT
BRANCH   1   4
ATOM      4  C   UNL     1       3.968   6.119  18.267  0.00  0.00    +0.000 A 
ATOM      5  C   UNL     1       3.229   6.005  19.458  0.00  0.00    +0.000 A 
ATOM      6  C   UNL     1       2.240   6.934  19.796  0.00  0.00    +0.000 A 
ATOM      7  C   UNL     1       1.971   8.004  18.948  0.00  0.00    +0.000 A 
ATOM      8  C   UNL     1       2.711   8.163  17.781  0.00  0.00    +0.000 A 
ATOM      9  C   UNL     1       3.703   7.233  17.450  0.00  0.00    +0.000 A 
ENDBRANCH   1   4
BRANCH   1  10
ATOM     10  C   UNL     1       6.223   4.997  18.419  0.00  0.00    +0.000 C 
ATOM     11  O   UNL     1       6.378   4.826  19.617  0.00  0.00    +0.000 OA
BRANCH  10  12
ATOM     12  O   UNL     1       7.198   5.183  17.495  0.00  0.00    +0.000 OA
BRANCH  12  13
ATOM     13  C   UNL     1       7.315   6.502  16.960  0.00  0.00    +0.000 C 
BRANCH  13  15
ATOM     14  C   UNL     1       8.092   8.694  17.921  0.00  0.00    +0.000 C 
ATOM     15  C   UNL     1       7.879   7.377  18.038  0.00  0.00    +0.000 C 
ENDBRANCH  13  15
ENDBRANCH  12  13
ENDBRANCH  10  12
ENDBRANCH   1  10
BRANCH   3  16
ATOM     16  C   UNL     1       2.871   3.191  17.385  0.00  0.00    +0.000 C 
BRANCH  16  17
ATOM     17  N   UNL     1       2.597   2.247  18.488  0.00  0.00    +0.000 NA
ATOM     18  C   UNL     1       3.661   2.209  19.499  0.00  0.00    +0.000 C 
ATOM     19  C   UNL     1       1.328   2.591  19.133  0.00  0.00    +0.000 C 
ENDBRANCH  16  17
ENDBRANCH   3  16
TORSDOF 7
ENDMDL
MODEL 4
REMARK VINA RESULT:      -6.3      0.804      1.476
REMARK  Name = 
REMARK  9 active torsions:
REMARK  status: ('A' for Active; 'I' for Inactive)
REMARK    1  A    between atoms: C_2  and  C_3
REMARK    2  A    between atoms: C_3  and  O_4
REMARK    3  A    between atoms: O_4  and  C_5
REMARK    4  A    between atoms: C_5  and  C_7
REMARK    5  A    between atoms: C_7  and  C_8
REMARK    6  A    between atoms: C_15  and  C_16
REMARK    7  A    between atoms: C_16  and  N_17
REMARK    8  A    between atoms: N_17  and  C_18
REMARK    9  A    between atoms: N_17  and  C_19
REMARK                            x       y       z     vdW  Elec       q    Type
REMARK                         _______ _______ _______ _____ _____    ______ ____
ROOT
ATOM      1  C   UNL     1       3.375   4.739  18.449  0.00  0.00    +0.000 C 
ATOM      2  C   UNL     1       4.518   4.325  19.374  0.00  0.00    +0.000 C 
ATOM      3  C   UNL     1       4.832   4.698  17.952  0.00  0.00    +0.000 C 
ENDROOT
BRANCH   1   4
ATOM      4  C   UNL     1       2.632   6.037  18.732  0.00  0.00    +0.000 A 
ATOM      5  C   UNL     1       2.458   7.009  17.730  0.00  0.00    +0.000 A 
ATOM      6  C   UNL     1       1.985   8.291  18.031  0.00  0.00    +0.000 A 
ATOM      7  C   UNL     1       1.672   8.627  19.344  0.00  0.00    +0.000 A 
ATOM      8  C   UNL     1       1.799   7.675  20.350  0.00  0.00    +0.000 A 
ATOM      9  C   UNL     1       2.267   6.393  20.044  0.00  0.00    +0.000 A 
ENDBRANCH   1   4
BRANCH   1  10
ATOM     10  C   UNL     1       2.470   3.642  17.954  0.00  0.00    +0.000 C 
ATOM     11  O   UNL     1       2.040   3.623  16.812  0.00  0.00    +0.000 OA
BRANCH  10  12
ATOM     12  O   UNL     1       2.250   2.713  18.917  0.00  0.00    +0.000 OA
BRANCH  12  13
ATOM     13  C   UNL     1       0.937   2.688  19.479  0.00  0.00    +0.000 C 
BRANCH  13  15
ATOM     14  C   UNL     1       2.142   2.835  21.684  0.00  0.00    +0.000 C 
ATOM     15  C   UNL     1       1.060   3.059  20.927  0.00  0.00    +0.000 C 
ENDBRANCH  13  15
ENDBRANCH  12  13
ENDBRANCH  10  12
ENDBRANCH   1  10
BRANCH   3  16
ATOM     16  C   UNL     1       5.703   5.887  17.682  0.00  0.00    +0.000 C 
BRANCH  16  17
ATOM     17  N   UNL     1       6.924   5.501  16.946  0.00  0.00    +0.000 NA
ATOM     18  C   UNL     1       7.779   4.565  17.688  0.00  0.00    +0.000 C 
ATOM     19  C   UNL     1       6.562   4.907  15.656  0.00  0.00    +0.000 C 
ENDBRANCH  16  17
ENDBRANCH   3  16
TORSDOF 7
ENDMDL
MODEL 5
REMARK VINA RESULT:      -6.3      0.787      1.029
REMARK  Name = 
REMARK  9 active torsions:
REMARK  status: ('A' for Active; 'I' for Inactive)
REMARK    1  A    between atoms: C_2  and  C_3
REMARK    2  A    between atoms: C_3  and  O_4
REMARK    3  A    between atoms: O_4  and  C_5
REMARK    4  A    between atoms: C_5  and  C_7
REMARK    5  A    between atoms: C_7  and  C_8
REMARK    6  A    between atoms: C_15  and  C_16
REMARK    7  A    between atoms: C_16  and  N_17
REMARK    8  A    between atoms: N_17  and  C_18
REMARK    9  A    between atoms: N_17  and  C_19
REMARK                            x       y       z     vdW  Elec       q    Type
REMARK                         _______ _______ _______ _____ _____    ______ ____
ROOT
ATOM      1  C   UNL     1       3.194   5.108  18.306  0.00  0.00    +0.000 C 
ATOM      2  C   UNL     1       4.344   4.489  19.100  0.00  0.00    +0.000 C 
ATOM      3  C   UNL     1       4.558   4.827  17.651  0.00  0.00    +0.000 C 
ENDROOT
BRANCH   1   4
ATOM      4  C   UNL     1       2.720   6.508  18.668  0.00  0.00    +0.000 A 
ATOM      5  C   UNL     1       2.347   6.833  19.985  0.00  0.00    +0.000 A 
ATOM      6  C   UNL     1       1.699   8.035  20.286  0.00  0.00    +0.000 A 
ATOM      7  C   UNL     1       1.412   8.944  19.272  0.00  0.00    +0.000 A 
ATOM      8  C   UNL     1       1.802   8.667  17.966  0.00  0.00    +0.000 A 
ATOM      9  C   UNL     1       2.455   7.465  17.671  0.00  0.00    +0.000 A 
ENDBRANCH   1   4
BRANCH   1  10
ATOM     10  C   UNL     1       2.065   4.190  17.919  0.00  0.00    +0.000 C 
ATOM     11  O   UNL     1       2.032   3.627  16.837  0.00  0.00    +0.000 OA
BRANCH  10  12
ATOM     12  O   UNL     1       1.160   4.069  18.921  0.00  0.00    +0.000 OA
BRANCH  12  13
ATOM     13  C   UNL     1       1.045   2.775  19.513  0.00  0.00    +0.000 C 
BRANCH  13  15
ATOM     14  C   UNL     1       2.245   3.161  21.691  0.00  0.00    +0.000 C 
ATOM     15  C   UNL     1       1.118   2.952  21.000  0.00  0.00    +0.000 C 
ENDBRANCH  13  15
ENDBRANCH  12  13
ENDBRANCH  10  12
ENDBRANCH   1  10
BRANCH   3  16
ATOM     16  C   UNL     1       5.585   5.854  17.283  0.00  0.00    +0.000 C 
BRANCH  16  17
ATOM     17  N   UNL     1       6.780   5.226  16.682  0.00  0.00    +0.000 NA
ATOM     18  C   UNL     1       7.674   4.613  17.671  0.00  0.00    +0.000 C 
ATOM     19  C   UNL     1       6.372   4.214  15.704  0.00  0.00    +0.000 C 
ENDBRANCH  16  17
ENDBRANCH   3  16
TORSDOF 7
ENDMDL
MODEL 6
REMARK VINA RESULT:      -6.2      2.416      4.950
REMARK  Name = 
REMARK  9 active torsions:
REMARK  status: ('A' for Active; 'I' for Inactive)
REMARK    1  A    between atoms: C_2  and  C_3
REMARK    2  A    between atoms: C_3  and  O_4
REMARK    3  A    between atoms: O_4  and  C_5
REMARK    4  A    between atoms: C_5  and  C_7
REMARK    5  A    between atoms: C_7  and  C_8
REMARK    6  A    between atoms: C_15  and  C_16
REMARK    7  A    between atoms: C_16  and  N_17
REMARK    8  A    between atoms: N_17  and  C_18
REMARK    9  A    between atoms: N_17  and  C_19
REMARK                            x       y       z     vdW  Elec       q    Type
REMARK                         _______ _______ _______ _____ _____    ______ ____
ROOT
ATOM      1  C   UNL     1       4.418   5.264  17.881  0.00  0.00    +0.000 C 
ATOM      2  C   UNL     1       4.566   4.887  16.408  0.00  0.00    +0.000 C 
ATOM      3  C   UNL     1       4.019   3.868  17.368  0.00  0.00    +0.000 C 
ENDROOT
BRANCH   1   4
ATOM      4  C   UNL     1       3.400   6.326  18.270  0.00  0.00    +0.000 A 
ATOM      5  C   UNL     1       3.187   7.460  17.464  0.00  0.00    +0.000 A 
ATOM      6  C   UNL     1       2.432   8.547  17.916  0.00  0.00    +0.000 A 
ATOM      7  C   UNL     1       1.867   8.521  19.187  0.00  0.00    +0.000 A 
ATOM      8  C   UNL     1       2.029   7.398  19.992  0.00  0.00    +0.000 A 
ATOM      9  C   UNL     1       2.781   6.311  19.534  0.00  0.00    +0.000 A 
ENDBRANCH   1   4
BRANCH   1  10
ATOM     10  C   UNL     1       5.684   5.342  18.692  0.00  0.00    +0.000 C 
ATOM     11  O   UNL     1       5.815   4.739  19.745  0.00  0.00    +0.000 OA
BRANCH  10  12
ATOM     12  O   UNL     1       6.614   6.117  18.083  0.00  0.00    +0.000 OA
BRANCH  12  13
ATOM     13  C   UNL     1       7.856   6.270  18.772  0.00  0.00    +0.000 C 
BRANCH  13  15
ATOM     14  C   UNL     1       7.901   8.501  17.608  0.00  0.00    +0.000 C 
ATOM     15  C   UNL     1       8.293   7.695  18.602  0.00  0.00    +0.000 C 
ENDBRANCH  13  15
ENDBRANCH  12  13
ENDBRANCH  10  12
ENDBRANCH   1  10
BRANCH   3  16
ATOM     16  C   UNL     1       2.620   3.365  17.185  0.00  0.00    +0.000 C 
BRANCH  16  17
ATOM     17  N   UNL     1       2.369   2.167  18.013  0.00  0.00    +0.000 NA
ATOM     18  C   UNL     1       3.592   1.579  18.572  0.00  0.00    +0.000 C 
ATOM     19  C   UNL     1       1.449   2.500  19.104  0.00  0.00    +0.000 C 
ENDBRANCH  16  17
ENDBRANCH   3  16
TORSDOF 7
ENDMDL
MODEL 7
REMARK VINA RESULT:      -6.2      1.891      3.912
REMARK  Name = 
REMARK  9 active torsions:
REMARK  status: ('A' for Active; 'I' for Inactive)
REMARK    1  A    between atoms: C_2  and  C_3
REMARK    2  A    between atoms: C_3  and  O_4
REMARK    3  A    between atoms: O_4  and  C_5
REMARK    4  A    between atoms: C_5  and  C_7
REMARK    5  A    between atoms: C_7  and  C_8
REMARK    6  A    between atoms: C_15  and  C_16
REMARK    7  A    between atoms: C_16  and  N_17
REMARK    8  A    between atoms: N_17  and  C_18
REMARK    9  A    between atoms: N_17  and  C_19
REMARK                            x       y       z     vdW  Elec       q    Type
REMARK                         _______ _______ _______ _____ _____    ______ ____
ROOT
ATOM      1  C   UNL     1       3.281   6.033  18.328  0.00  0.00    +0.000 C 
ATOM      2  C   UNL     1       4.100   5.714  17.078  0.00  0.00    +0.000 C 
ATOM      3  C   UNL     1       4.808   5.852  18.397  0.00  0.00    +0.000 C 
ENDROOT
BRANCH   1   4
ATOM      4  C   UNL     1       2.299   4.993  18.849  0.00  0.00    +0.000 A 
ATOM      5  C   UNL     1       2.032   4.870  20.225  0.00  0.00    +0.000 A 
ATOM      6  C   UNL     1       1.317   3.783  20.737  0.00  0.00    +0.000 A 
ATOM      7  C   UNL     1       0.848   2.793  19.879  0.00  0.00    +0.000 A 
ATOM      8  C   UNL     1       1.065   2.906  18.509  0.00  0.00    +0.000 A 
ATOM      9  C   UNL     1       1.776   3.999  18.002  0.00  0.00    +0.000 A 
ENDBRANCH   1   4
BRANCH   1  10
ATOM     10  C   UNL     1       2.768   7.442  18.462  0.00  0.00    +0.000 C 
ATOM     11  O   UNL     1       2.803   8.234  17.534  0.00  0.00    +0.000 OA
BRANCH  10  12
ATOM     12  O   UNL     1       2.258   7.666  19.698  0.00  0.00    +0.000 OA
BRANCH  12  13
ATOM     13  C   UNL     1       1.400   8.800  19.829  0.00  0.00    +0.000 C 
BRANCH  13  15
ATOM     14  C   UNL     1      -0.260   8.565  21.706  0.00  0.00    +0.000 C 
ATOM     15  C   UNL     1       0.965   8.873  21.262  0.00  0.00    +0.000 C 
ENDBRANCH  13  15
ENDBRANCH  12  13
ENDBRANCH  10  12
ENDBRANCH   1  10
BRANCH   3  16
ATOM     16  C   UNL     1       5.529   4.671  18.969  0.00  0.00    +0.000 C 
BRANCH  16  17
ATOM     17  N   UNL     1       6.972   4.718  18.653  0.00  0.00    +0.000 NA
ATOM     18  C   UNL     1       7.261   4.522  17.227  0.00  0.00    +0.000 C 
ATOM     19  C   UNL     1       7.536   5.997  19.090  0.00  0.00    +0.000 C 
ENDBRANCH  16  17
ENDBRANCH   3  16
TORSDOF 7
ENDMDL
MODEL 8
REMARK VINA RESULT:      -6.2      0.996      1.333
REMARK  Name = 
REMARK  9 active torsions:
REMARK  status: ('A' for Active; 'I' for Inactive)
REMARK    1  A    between atoms: C_2  and  C_3
REMARK    2  A    between atoms: C_3  and  O_4
REMARK    3  A    between atoms: O_4  and  C_5
REMARK    4  A    between atoms: C_5  and  C_7
REMARK    5  A    between atoms: C_7  and  C_8
REMARK    6  A    between atoms: C_15  and  C_16
REMARK    7  A    between atoms: C_16  and  N_17
REMARK    8  A    between atoms: N_17  and  C_18
REMARK    9  A    between atoms: N_17  and  C_19
REMARK                            x       y       z     vdW  Elec       q    Type
REMARK                         _______ _______ _______ _____ _____    ______ ____
ROOT
ATOM      1  C   UNL     1       3.710   4.273  18.572  0.00  0.00    +0.000 C 
ATOM      2  C   UNL     1       4.531   3.569  19.652  0.00  0.00    +0.000 C 
ATOM      3  C   UNL     1       5.187   3.906  18.342  0.00  0.00    +0.000 C 
ENDROOT
BRANCH   1   4
ATOM      4  C   UNL     1       3.238   5.699  18.819  0.00  0.00    +0.000 A 
ATOM      5  C   UNL     1       2.596   6.056  20.018  0.00  0.00    +0.000 A 
ATOM      6  C   UNL     1       1.957   7.291  20.166  0.00  0.00    +0.000 A 
ATOM      7  C   UNL     1       1.952   8.202  19.114  0.00  0.00    +0.000 A 
ATOM      8  C   UNL     1       2.611   7.892  17.929  0.00  0.00    +0.000 A 
ATOM      9  C   UNL     1       3.252   6.657  17.788  0.00  0.00    +0.000 A 
ENDBRANCH   1   4
BRANCH   1  10
ATOM     10  C   UNL     1       2.693   3.438  17.841  0.00  0.00    +0.000 C 
ATOM     11  O   UNL     1       2.414   3.637  16.670  0.00  0.00    +0.000 OA
BRANCH  10  12
ATOM     12  O   UNL     1       2.190   2.462  18.637  0.00  0.00    +0.000 OA
BRANCH  12  13
ATOM     13  C   UNL     1       0.806   2.570  18.969  0.00  0.00    +0.000 C 
BRANCH  13  15
ATOM     14  C   UNL     1       1.440   2.727  21.399  0.00  0.00    +0.000 C 
ATOM     15  C   UNL     1       0.717   3.143  20.352  0.00  0.00    +0.000 C 
ENDBRANCH  13  15
ENDBRANCH  12  13
ENDBRANCH  10  12
ENDBRANCH   1  10
BRANCH   3  16
ATOM     16  C   UNL     1       6.338   4.864  18.325  0.00  0.00    +0.000 C 
BRANCH  16  17
ATOM     17  N   UNL     1       6.461   5.532  17.012  0.00  0.00    +0.000 NA
ATOM     18  C   UNL     1       7.296   6.738  17.049  0.00  0.00    +0.000 C 
ATOM     19  C   UNL     1       7.006   4.595  16.026  0.00  0.00    +0.000 C 
ENDBRANCH  16  17
ENDBRANCH   3  16
TORSDOF 7
ENDMDL
MODEL 9
REMARK VINA RESULT:      -6.1      1.230      1.506
REMARK  Name = 
REMARK  9 active torsions:
REMARK  status: ('A' for Active; 'I' for Inactive)
REMARK    1  A    between atoms: C_2  and  C_3
REMARK    2  A    between atoms: C_3  and  O_4
REMARK    3  A    between atoms: O_4  and  C_5
REMARK    4  A    between atoms: C_5  and  C_7
REMARK    5  A    between atoms: C_7  and  C_8
REMARK    6  A    between atoms: C_15  and  C_16
REMARK    7  A    between atoms: C_16  and  N_17
REMARK    8  A    between atoms: N_17  and  C_18
REMARK    9  A    between atoms: N_17  and  C_19
REMARK                            x       y       z     vdW  Elec       q    Type
REMARK                         _______ _______ _______ _____ _____    ______ ____
ROOT
ATOM      1  C   UNL     1       4.216   4.678  18.441  0.00  0.00    +0.000 C 
ATOM      2  C   UNL     1       4.780   3.942  19.656  0.00  0.00    +0.000 C 
ATOM      3  C   UNL     1       5.728   4.430  18.597  0.00  0.00    +0.000 C 
ENDROOT
BRANCH   1   4
ATOM      4  C   UNL     1       3.575   6.044  18.640  0.00  0.00    +0.000 A 
ATOM      5  C   UNL     1       2.793   6.322  19.777  0.00  0.00    +0.000 A 
ATOM      6  C   UNL     1       2.016   7.482  19.863  0.00  0.00    +0.000 A 
ATOM      7  C   UNL     1       2.008   8.394  18.812  0.00  0.00    +0.000 A 
ATOM      8  C   UNL     1       2.800   8.164  17.691  0.00  0.00    +0.000 A 
ATOM      9  C   UNL     1       3.579   7.005  17.612  0.00  0.00    +0.000 A 
ENDBRANCH   1   4
BRANCH   1  10
ATOM     10  C   UNL     1       3.504   3.841  17.411  0.00  0.00    +0.000 C 
ATOM     11  O   UNL     1       3.708   3.977  16.216  0.00  0.00    +0.000 OA
BRANCH  10  12
ATOM     12  O   UNL     1       2.674   2.942  17.993  0.00  0.00    +0.000 OA
BRANCH  12  13
ATOM     13  C   UNL     1       1.320   3.358  18.172  0.00  0.00    +0.000 C 
BRANCH  13  15
ATOM     14  C   UNL     1       1.080   3.373  20.677  0.00  0.00    +0.000 C 
ATOM     15  C   UNL     1       0.849   2.808  19.485  0.00  0.00    +0.000 C 
ENDBRANCH  13  15
ENDBRANCH  12  13
ENDBRANCH  10  12
ENDBRANCH   1  10
BRANCH   3  16
ATOM     16  C   UNL     1       6.755   5.460  18.951  0.00  0.00    +0.000 C 
BRANCH  16  17
ATOM     17  N   UNL     1       7.574   5.827  17.777  0.00  0.00    +0.000 NA
ATOM     18  C   UNL     1       7.208   5.093  16.560  0.00  0.00    +0.000 C 
ATOM     19  C   UNL     1       7.467   7.267  17.526  0.00  0.00    +0.000 C 
ENDBRANCH  16  17
ENDBRANCH   3  16
TORSDOF 7
ENDMDL
