MODEL 1
REMARK VINA RESULT:      -7.3      0.000      0.000
REMARK  Name = 
REMARK  9 active torsions:
REMARK  status: ('A' for Active; 'I' for Inactive)
REMARK    1  A    between atoms: C_1  and  C_2
REMARK    2  A    between atoms: C_2  and  C_3
REMARK    3  A    between atoms: C_2  and  C_4
REMARK    4  A    between atoms: C_4  and  N_5
REMARK    5  A    between atoms: N_8  and  C_9
REMARK    6  A    between atoms: C_15  and  C_16
REMARK    7  A    between atoms: C_16  and  C_17
REMARK    8  A    between atoms: C_16  and  C_18
REMARK    9  A    between atoms: C_16  and  C_19
REMARK                            x       y       z     vdW  Elec       q    Type
REMARK                         _______ _______ _______ _____ _____    ______ ____
ROOT
ATOM      1  N   UNL     1       4.159   4.327  18.036  0.00  0.00    +0.000 N 
ATOM      2  C   UNL     1       3.904   3.334  18.979  0.00  0.00    +0.000 A 
ATOM      3  O   UNL     1       4.350   2.192  18.844  0.00  0.00    +0.000 OA
ATOM      4  N   UNL     1       3.159   3.693  20.086  0.00  0.00    +0.000 N 
ATOM      5  C   UNL     1       2.968   2.706  21.134  0.00  0.00    +0.000 C 
ATOM      6  C   UNL     1       2.571   4.940  20.293  0.00  0.00    +0.000 A 
ATOM      7  O   UNL     1       1.900   5.182  21.293  0.00  0.00    +0.000 OA
ATOM      8  C   UNL     1       2.798   5.958  19.255  0.00  0.00    +0.000 A 
ATOM      9  C   UNL     1       2.228   7.249  19.361  0.00  0.00    +0.000 A 
ATOM     10  N   UNL     1       1.402   7.825  20.307  0.00  0.00    +0.000 NA
ATOM     11  C   UNL     1       1.164   9.062  19.916  0.00  0.00    +0.000 A 
ATOM     12  N   UNL     1       1.811   9.312  18.734  0.00  0.00    +0.000 N 
ATOM     13  C   UNL     1       2.497   8.182  18.365  0.00  0.00    +0.000 A 
ATOM     14  C   UNL     1       3.308   7.918  17.267  0.00  0.00    +0.000 A 
ATOM     15  C   UNL     1       3.861   6.635  17.186  0.00  0.00    +0.000 A 
ATOM     16  C   UNL     1       3.613   5.644  18.155  0.00  0.00    +0.000 A 
ATOM     17  H   UNL     1       1.791  10.185  18.226  0.00  0.00    +0.000 HD
ENDROOT
BRANCH  11  18
ATOM     18  C   UNL     1       0.321  10.102  20.628  0.00  0.00    +0.000 C 
ATOM     19  C   UNL     1      -0.943  10.412  19.804  0.00  0.00    +0.000 C 
ATOM     20  C   UNL     1      -0.107   9.576  22.010  0.00  0.00    +0.000 C 
ATOM     21  C   UNL     1       1.117  11.408  20.808  0.00  0.00    +0.000 C 
ENDBRANCH  11  18
BRANCH   1  22
ATOM     22  C   UNL     1       5.094   3.985  16.955  0.00  0.00    +0.000 C 
BRANCH  22  24
ATOM     23  C   UNL     1       7.349   4.644  17.969  0.00  0.00    +0.000 C 
ATOM     24  C   UNL     1       6.303   4.944  16.886  0.00  0.00    +0.000 C 
ATOM     25  C   UNL     1       6.967   4.866  15.511  0.00  0.00    +0.000 C 
ENDBRANCH  22  24
ENDBRANCH   1  22
TORSDOF 3
ENDMDL
MODEL 2
REMARK VINA RESULT:      -7.1      2.165      4.298
REMARK  Name = 
REMARK  9 active torsions:
REMARK  status: ('A' for Active; 'I' for Inactive)
REMARK    1  A    between atoms: C_1  and  C_2
REMARK    2  A    between atoms: C_2  and  C_3
REMARK    3  A    between atoms: C_2  and  C_4
REMARK    4  A    between atoms: C_4  and  N_5
REMARK    5  A    between atoms: N_8  and  C_9
REMARK    6  A    between atoms: C_15  and  C_16
REMARK    7  A    between atoms: C_16  and  C_17
REMARK    8  A    between atoms: C_16  and  C_18
REMARK    9  A    between atoms: C_16  and  C_19
REMARK                            x       y       z     vdW  Elec       q    Type
REMARK                         _______ _______ _______ _____ _____    ______ ____
ROOT
ATOM      1  N   UNL     1       2.893   5.772  19.734  0.00  0.00    +0.000 N 
ATOM      2  C   UNL     1       3.740   5.696  18.632  0.00  0.00    +0.000 A 
ATOM      3  O   UNL     1       4.461   4.713  18.443  0.00  0.00    +0.000 OA
ATOM      4  N   UNL     1       3.712   6.753  17.742  0.00  0.00    +0.000 N 
ATOM      5  C   UNL     1       4.507   6.651  16.530  0.00  0.00    +0.000 C 
ATOM      6  C   UNL     1       2.973   7.924  17.903  0.00  0.00    +0.000 A 
ATOM      7  O   UNL     1       3.015   8.835  17.080  0.00  0.00    +0.000 OA
ATOM      8  C   UNL     1       2.132   8.014  19.106  0.00  0.00    +0.000 A 
ATOM      9  C   UNL     1       1.358   9.169  19.373  0.00  0.00    +0.000 A 
ATOM     10  N   UNL     1       1.215  10.367  18.698  0.00  0.00    +0.000 NA
ATOM     11  C   UNL     1       0.367  11.103  19.389  0.00  0.00    +0.000 A 
ATOM     12  N   UNL     1      -0.048  10.420  20.503  0.00  0.00    +0.000 N 
ATOM     13  C   UNL     1       0.561   9.191  20.512  0.00  0.00    +0.000 A 
ATOM     14  C   UNL     1       0.472   8.130  21.406  0.00  0.00    +0.000 A 
ATOM     15  C   UNL     1       1.245   6.999  21.120  0.00  0.00    +0.000 A 
ATOM     16  C   UNL     1       2.084   6.923  19.991  0.00  0.00    +0.000 A 
ATOM     17  H   UNL     1      -0.699  10.764  21.195  0.00  0.00    +0.000 HD
ENDROOT
BRANCH  11  18
ATOM     18  C   UNL     1      -0.124  12.497  19.049  0.00  0.00    +0.000 C 
ATOM     19  C   UNL     1      -0.619  13.209  20.322  0.00  0.00    +0.000 C 
ATOM     20  C   UNL     1       1.021  13.323  18.435  0.00  0.00    +0.000 C 
ATOM     21  C   UNL     1      -1.291  12.427  18.045  0.00  0.00    +0.000 C 
ENDBRANCH  11  18
BRANCH   1  22
ATOM     22  C   UNL     1       2.801   4.573  20.579  0.00  0.00    +0.000 C 
BRANCH  22  24
ATOM     23  C   UNL     1       1.258   3.237  19.034  0.00  0.00    +0.000 C 
ATOM     24  C   UNL     1       1.446   3.843  20.432  0.00  0.00    +0.000 C 
ATOM     25  C   UNL     1       1.321   2.737  21.480  0.00  0.00    +0.000 C 
ENDBRANCH  22  24
ENDBRANCH   1  22
TORSDOF 3
ENDMDL
MODEL 3
REMARK VINA RESULT:      -7.0      2.891      7.237
REMARK  Name = 
REMARK  9 active torsions:
REMARK  status: ('A' for Active; 'I' for Inactive)
REMARK    1  A    between atoms: C_1  and  C_2
REMARK    2  A    between atoms: C_2  and  C_3
REMARK    3  A    between atoms: C_2  and  C_4
REMARK    4  A    between atoms: C_4  and  N_5
REMARK    5  A    between atoms: N_8  and  C_9
REMARK    6  A    between atoms: C_15  and  C_16
REMARK    7  A    between atoms: C_16  and  C_17
REMARK    8  A    between atoms: C_16  and  C_18
REMARK    9  A    between atoms: C_16  and  C_19
REMARK                            x       y       z     vdW  Elec       q    Type
REMARK                         _______ _______ _______ _____ _____    ______ ____
ROOT
ATOM      1  N   UNL     1       0.479  11.687  19.801  0.00  0.00    +0.000 N 
ATOM      2  C   UNL     1      -0.157  11.842  21.030  0.00  0.00    +0.000 A 
ATOM      3  O   UNL     1      -0.602  12.936  21.389  0.00  0.00    +0.000 OA
ATOM      4  N   UNL     1      -0.298  10.712  21.814  0.00  0.00    +0.000 N 
ATOM      5  C   UNL     1      -1.050  10.825  23.051  0.00  0.00    +0.000 C 
ATOM      6  C   UNL     1       0.219   9.453  21.513  0.00  0.00    +0.000 A 
ATOM      7  O   UNL     1       0.075   8.496  22.270  0.00  0.00    +0.000 OA
ATOM      8  C   UNL     1       0.944   9.323  20.240  0.00  0.00    +0.000 A 
ATOM      9  C   UNL     1       1.524   8.092  19.852  0.00  0.00    +0.000 A 
ATOM     10  N   UNL     1       1.591   6.859  20.473  0.00  0.00    +0.000 NA
ATOM     11  C   UNL     1       2.256   6.053  19.670  0.00  0.00    +0.000 A 
ATOM     12  N   UNL     1       2.632   6.727  18.536  0.00  0.00    +0.000 N 
ATOM     13  C   UNL     1       2.176   8.018  18.625  0.00  0.00    +0.000 A 
ATOM     14  C   UNL     1       2.281   9.090  17.747  0.00  0.00    +0.000 A 
ATOM     15  C   UNL     1       1.697  10.296  18.153  0.00  0.00    +0.000 A 
ATOM     16  C   UNL     1       1.038  10.438  19.389  0.00  0.00    +0.000 A 
ATOM     17  H   UNL     1       3.152   6.334  17.764  0.00  0.00    +0.000 HD
ENDROOT
BRANCH  11  18
ATOM     18  C   UNL     1       2.579   4.589  19.901  0.00  0.00    +0.000 C 
ATOM     19  C   UNL     1       1.709   3.705  18.989  0.00  0.00    +0.000 C 
ATOM     20  C   UNL     1       4.061   4.321  19.581  0.00  0.00    +0.000 C 
ATOM     21  C   UNL     1       2.301   4.202  21.366  0.00  0.00    +0.000 C 
ENDBRANCH  11  18
BRANCH   1  22
ATOM     22  C   UNL     1       0.470  12.851  18.903  0.00  0.00    +0.000 C 
BRANCH  22  24
ATOM     23  C   UNL     1       2.753  13.760  18.191  0.00  0.00    +0.000 C 
ATOM     24  C   UNL     1       1.609  13.849  19.210  0.00  0.00    +0.000 C 
ATOM     25  C   UNL     1       1.070  15.280  19.236  0.00  0.00    +0.000 C 
ENDBRANCH  22  24
ENDBRANCH   1  22
TORSDOF 3
ENDMDL
MODEL 4
REMARK VINA RESULT:      -6.9      0.427      1.211
REMARK  Name = 
REMARK  9 active torsions:
REMARK  status: ('A' for Active; 'I' for Inactive)
REMARK    1  A    between atoms: C_1  and  C_2
REMARK    2  A    between atoms: C_2  and  C_3
REMARK    3  A    between atoms: C_2  and  C_4
REMARK    4  A    between atoms: C_4  and  N_5
REMARK    5  A    between atoms: N_8  and  C_9
REMARK    6  A    between atoms: C_15  and  C_16
REMARK    7  A    between atoms: C_16  and  C_17
REMARK    8  A    between atoms: C_16  and  C_18
REMARK    9  A    between atoms: C_16  and  C_19
REMARK                            x       y       z     vdW  Elec       q    Type
REMARK                         _______ _______ _______ _____ _____    ______ ____
ROOT
ATOM      1  N   UNL     1       4.057   4.469  18.136  0.00  0.00    +0.000 N 
ATOM      2  C   UNL     1       3.760   3.471  19.060  0.00  0.00    +0.000 A 
ATOM      3  O   UNL     1       4.201   2.326  18.931  0.00  0.00    +0.000 OA
ATOM      4  N   UNL     1       2.980   3.828  20.144  0.00  0.00    +0.000 N 
ATOM      5  C   UNL     1       2.743   2.834  21.175  0.00  0.00    +0.000 C 
ATOM      6  C   UNL     1       2.396   5.079  20.340  0.00  0.00    +0.000 A 
ATOM      7  O   UNL     1       1.693   5.319  21.318  0.00  0.00    +0.000 OA
ATOM      8  C   UNL     1       2.670   6.103  19.320  0.00  0.00    +0.000 A 
ATOM      9  C   UNL     1       2.108   7.399  19.416  0.00  0.00    +0.000 A 
ATOM     10  N   UNL     1       1.254   7.975  20.338  0.00  0.00    +0.000 NA
ATOM     11  C   UNL     1       1.042   9.216  19.949  0.00  0.00    +0.000 A 
ATOM     12  N   UNL     1       1.733   9.470  18.792  0.00  0.00    +0.000 N 
ATOM     13  C   UNL     1       2.420   8.337  18.438  0.00  0.00    +0.000 A 
ATOM     14  C   UNL     1       3.267   8.075  17.368  0.00  0.00    +0.000 A 
ATOM     15  C   UNL     1       3.810   6.787  17.295  0.00  0.00    +0.000 A 
ATOM     16  C   UNL     1       3.520   5.790  18.246  0.00  0.00    +0.000 A 
ATOM     17  H   UNL     1       1.738  10.347  18.291  0.00  0.00    +0.000 HD
ENDROOT
BRANCH  11  18
ATOM     18  C   UNL     1       0.183  10.259  20.640  0.00  0.00    +0.000 C 
ATOM     19  C   UNL     1       0.998  11.546  20.870  0.00  0.00    +0.000 C 
ATOM     20  C   UNL     1      -1.038  10.597  19.766  0.00  0.00    +0.000 C 
ATOM     21  C   UNL     1      -0.301   9.738  22.006  0.00  0.00    +0.000 C 
ENDBRANCH  11  18
BRANCH   1  22
ATOM     22  C   UNL     1       5.026   4.127  17.084  0.00  0.00    +0.000 C 
BRANCH  22  24
ATOM     23  C   UNL     1       7.142   5.427  16.467  0.00  0.00    +0.000 C 
ATOM     24  C   UNL     1       6.479   4.479  17.476  0.00  0.00    +0.000 C 
ATOM     25  C   UNL     1       6.516   5.119  18.865  0.00  0.00    +0.000 C 
ENDBRANCH  22  24
ENDBRANCH   1  22
TORSDOF 3
ENDMDL
MODEL 5
REMARK VINA RESULT:      -6.9      2.032      3.977
REMARK  Name = 
REMARK  9 active torsions:
REMARK  status: ('A' for Active; 'I' for Inactive)
REMARK    1  A    between atoms: C_1  and  C_2
REMARK    2  A    between atoms: C_2  and  C_3
REMARK    3  A    between atoms: C_2  and  C_4
REMARK    4  A    between atoms: C_4  and  N_5
REMARK    5  A    between atoms: N_8  and  C_9
REMARK    6  A    between atoms: C_15  and  C_16
REMARK    7  A    between atoms: C_16  and  C_17
REMARK    8  A    between atoms: C_16  and  C_18
REMARK    9  A    between atoms: C_16  and  C_19
REMARK                            x       y       z     vdW  Elec       q    Type
REMARK                         _______ _______ _______ _____ _____    ______ ____
ROOT
ATOM      1  N   UNL     1       3.144   5.313  19.429  0.00  0.00    +0.000 N 
ATOM      2  C   UNL     1       3.979   5.281  18.315  0.00  0.00    +0.000 A 
ATOM      3  O   UNL     1       4.673   4.292  18.062  0.00  0.00    +0.000 OA
ATOM      4  N   UNL     1       3.969   6.388  17.488  0.00  0.00    +0.000 N 
ATOM      5  C   UNL     1       4.750   6.337  16.264  0.00  0.00    +0.000 C 
ATOM      6  C   UNL     1       3.261   7.565  17.725  0.00  0.00    +0.000 A 
ATOM      7  O   UNL     1       3.318   8.521  16.955  0.00  0.00    +0.000 OA
ATOM      8  C   UNL     1       2.434   7.606  18.940  0.00  0.00    +0.000 A 
ATOM      9  C   UNL     1       1.692   8.762  19.281  0.00  0.00    +0.000 A 
ATOM     10  N   UNL     1       1.572  10.000  18.679  0.00  0.00    +0.000 NA
ATOM     11  C   UNL     1       0.749  10.715  19.419  0.00  0.00    +0.000 A 
ATOM     12  N   UNL     1       0.328   9.979  20.497  0.00  0.00    +0.000 N 
ATOM     13  C   UNL     1       0.906   8.737  20.428  0.00  0.00    +0.000 A 
ATOM     14  C   UNL     1       0.799   7.628  21.260  0.00  0.00    +0.000 A 
ATOM     15  C   UNL     1       1.541   6.498  20.901  0.00  0.00    +0.000 A 
ATOM     16  C   UNL     1       2.367   6.467  19.761  0.00  0.00    +0.000 A 
ATOM     17  H   UNL     1      -0.308  10.298  21.214  0.00  0.00    +0.000 HD
ENDROOT
BRANCH  11  18
ATOM     18  C   UNL     1       0.290  12.139  19.166  0.00  0.00    +0.000 C 
ATOM     19  C   UNL     1      -1.017  12.135  18.350  0.00  0.00    +0.000 C 
ATOM     20  C   UNL     1       0.034  12.855  20.504  0.00  0.00    +0.000 C 
ATOM     21  C   UNL     1       1.358  12.915  18.373  0.00  0.00    +0.000 C 
ENDBRANCH  11  18
BRANCH   1  22
ATOM     22  C   UNL     1       3.030   4.070  20.204  0.00  0.00    +0.000 C 
BRANCH  22  24
ATOM     23  C   UNL     1       1.776   2.232  18.939  0.00  0.00    +0.000 C 
ATOM     24  C   UNL     1       1.679   3.352  19.984  0.00  0.00    +0.000 C 
ATOM     25  C   UNL     1       1.166   2.768  21.301  0.00  0.00    +0.000 C 
ENDBRANCH  22  24
ENDBRANCH   1  22
TORSDOF 3
ENDMDL
MODEL 6
REMARK VINA RESULT:      -6.8      0.947      1.556
REMARK  Name = 
REMARK  9 active torsions:
REMARK  status: ('A' for Active; 'I' for Inactive)
REMARK    1  A    between atoms: C_1  and  C_2
REMARK    2  A    between atoms: C_2  and  C_3
REMARK    3  A    between atoms: C_2  and  C_4
REMARK    4  A    between atoms: C_4  and  N_5
REMARK    5  A    between atoms: N_8  and  C_9
REMARK    6  A    between atoms: C_15  and  C_16
REMARK    7  A    between atoms: C_16  and  C_17
REMARK    8  A    between atoms: C_16  and  C_18
REMARK    9  A    between atoms: C_16  and  C_19
REMARK                            x       y       z     vdW  Elec       q    Type
REMARK                         _______ _______ _______ _____ _____    ______ ____
ROOT
ATOM      1  N   UNL     1       3.984   4.740  17.451  0.00  0.00    +0.000 N 
ATOM      2  C   UNL     1       3.992   3.557  18.185  0.00  0.00    +0.000 A 
ATOM      3  O   UNL     1       4.474   2.519  17.724  0.00  0.00    +0.000 OA
ATOM      4  N   UNL     1       3.468   3.605  19.464  0.00  0.00    +0.000 N 
ATOM      5  C   UNL     1       3.560   2.413  20.288  0.00  0.00    +0.000 C 
ATOM      6  C   UNL     1       2.856   4.715  20.043  0.00  0.00    +0.000 A 
ATOM      7  O   UNL     1       2.391   4.679  21.179  0.00  0.00    +0.000 OA
ATOM      8  C   UNL     1       2.800   5.939  19.229  0.00  0.00    +0.000 A 
ATOM      9  C   UNL     1       2.182   7.115  19.717  0.00  0.00    +0.000 A 
ATOM     10  N   UNL     1       1.532   7.398  20.904  0.00  0.00    +0.000 NA
ATOM     11  C   UNL     1       1.140   8.655  20.843  0.00  0.00    +0.000 A 
ATOM     12  N   UNL     1       1.514   9.205  19.644  0.00  0.00    +0.000 N 
ATOM     13  C   UNL     1       2.180   8.251  18.916  0.00  0.00    +0.000 A 
ATOM     14  C   UNL     1       2.764   8.301  17.656  0.00  0.00    +0.000 A 
ATOM     15  C   UNL     1       3.370   7.126  17.195  0.00  0.00    +0.000 A 
ATOM     16  C   UNL     1       3.391   5.940  17.953  0.00  0.00    +0.000 A 
ATOM     17  H   UNL     1       1.334  10.155  19.351  0.00  0.00    +0.000 HD
ENDROOT
BRANCH  11  18
ATOM     18  C   UNL     1       0.396   9.436  21.909  0.00  0.00    +0.000 C 
ATOM     19  C   UNL     1       1.192   9.422  23.227  0.00  0.00    +0.000 C 
ATOM     20  C   UNL     1       0.211  10.896  21.458  0.00  0.00    +0.000 C 
ATOM     21  C   UNL     1      -0.987   8.809  22.168  0.00  0.00    +0.000 C 
ENDBRANCH  11  18
BRANCH   1  22
ATOM     22  C   UNL     1       4.697   4.723  16.166  0.00  0.00    +0.000 C 
BRANCH  22  24
ATOM     23  C   UNL     1       6.966   4.567  14.992  0.00  0.00    +0.000 C 
ATOM     24  C   UNL     1       6.232   4.669  16.336  0.00  0.00    +0.000 C 
ATOM     25  C   UNL     1       6.728   5.905  17.087  0.00  0.00    +0.000 C 
ENDBRANCH  22  24
ENDBRANCH   1  22
TORSDOF 3
ENDMDL
MODEL 7
REMARK VINA RESULT:      -6.8      1.874      3.681
REMARK  Name = 
REMARK  9 active torsions:
REMARK  status: ('A' for Active; 'I' for Inactive)
REMARK    1  A    between atoms: C_1  and  C_2
REMARK    2  A    between atoms: C_2  and  C_3
REMARK    3  A    between atoms: C_2  and  C_4
REMARK    4  A    between atoms: C_4  and  N_5
REMARK    5  A    between atoms: N_8  and  C_9
REMARK    6  A    between atoms: C_15  and  C_16
REMARK    7  A    between atoms: C_16  and  C_17
REMARK    8  A    between atoms: C_16  and  C_18
REMARK    9  A    between atoms: C_16  and  C_19
REMARK                            x       y       z     vdW  Elec       q    Type
REMARK                         _______ _______ _______ _____ _____    ______ ____
ROOT
ATOM      1  N   UNL     1       3.708   4.924  18.975  0.00  0.00    +0.000 N 
ATOM      2  C   UNL     1       4.492   5.126  17.843  0.00  0.00    +0.000 A 
ATOM      3  O   UNL     1       5.277   4.262  17.443  0.00  0.00    +0.000 OA
ATOM      4  N   UNL     1       4.329   6.322  17.168  0.00  0.00    +0.000 N 
ATOM      5  C   UNL     1       5.058   6.514  15.927  0.00  0.00    +0.000 C 
ATOM      6  C   UNL     1       3.510   7.373  17.577  0.00  0.00    +0.000 A 
ATOM      7  O   UNL     1       3.432   8.419  16.939  0.00  0.00    +0.000 OA
ATOM      8  C   UNL     1       2.736   7.166  18.811  0.00  0.00    +0.000 A 
ATOM      9  C   UNL     1       1.890   8.180  19.322  0.00  0.00    +0.000 A 
ATOM     10  N   UNL     1       1.613   9.463  18.890  0.00  0.00    +0.000 NA
ATOM     11  C   UNL     1       0.751   9.983  19.741  0.00  0.00    +0.000 A 
ATOM     12  N   UNL     1       0.457   9.074  20.724  0.00  0.00    +0.000 N 
ATOM     13  C   UNL     1       1.161   7.922  20.477  0.00  0.00    +0.000 A 
ATOM     14  C   UNL     1       1.209   6.712  21.160  0.00  0.00    +0.000 A 
ATOM     15  C   UNL     1       2.052   5.726  20.634  0.00  0.00    +0.000 A 
ATOM     16  C   UNL     1       2.826   5.932  19.477  0.00  0.00    +0.000 A 
ATOM     17  H   UNL     1      -0.177   9.226  21.495  0.00  0.00    +0.000 HD
ENDROOT
BRANCH  11  18
ATOM     18  C   UNL     1       0.132  11.367  19.689  0.00  0.00    +0.000 C 
ATOM     19  C   UNL     1      -0.161  11.869  21.116  0.00  0.00    +0.000 C 
ATOM     20  C   UNL     1       1.101  12.351  19.009  0.00  0.00    +0.000 C 
ATOM     21  C   UNL     1      -1.191  11.335  18.902  0.00  0.00    +0.000 C 
ENDBRANCH  11  18
BRANCH   1  22
ATOM     22  C   UNL     1       3.760   3.587  19.583  0.00  0.00    +0.000 C 
BRANCH  22  24
ATOM     23  C   UNL     1       3.609   1.290  18.466  0.00  0.00    +0.000 C 
ATOM     24  C   UNL     1       2.853   2.567  18.858  0.00  0.00    +0.000 C 
ATOM     25  C   UNL     1       1.661   2.194  19.741  0.00  0.00    +0.000 C 
ENDBRANCH  22  24
ENDBRANCH   1  22
TORSDOF 3
ENDMDL
MODEL 8
REMARK VINA RESULT:      -6.7      1.753      3.396
REMARK  Name = 
REMARK  9 active torsions:
REMARK  status: ('A' for Active; 'I' for Inactive)
REMARK    1  A    between atoms: C_1  and  C_2
REMARK    2  A    between atoms: C_2  and  C_3
REMARK    3  A    between atoms: C_2  and  C_4
REMARK    4  A    between atoms: C_4  and  N_5
REMARK    5  A    between atoms: N_8  and  C_9
REMARK    6  A    between atoms: C_15  and  C_16
REMARK    7  A    between atoms: C_16  and  C_17
REMARK    8  A    between atoms: C_16  and  C_18
REMARK    9  A    between atoms: C_16  and  C_19
REMARK                            x       y       z     vdW  Elec       q    Type
REMARK                         _______ _______ _______ _____ _____    ______ ____
ROOT
ATOM      1  N   UNL     1       4.071   4.488  18.647  0.00  0.00    +0.000 N 
ATOM      2  C   UNL     1       4.807   4.845  17.521  0.00  0.00    +0.000 A 
ATOM      3  O   UNL     1       5.611   4.063  17.005  0.00  0.00    +0.000 OA
ATOM      4  N   UNL     1       4.573   6.098  16.986  0.00  0.00    +0.000 N 
ATOM      5  C   UNL     1       5.250   6.454  15.751  0.00  0.00    +0.000 C 
ATOM      6  C   UNL     1       3.728   7.062  17.532  0.00  0.00    +0.000 A 
ATOM      7  O   UNL     1       3.585   8.167  17.014  0.00  0.00    +0.000 OA
ATOM      8  C   UNL     1       3.006   6.691  18.759  0.00  0.00    +0.000 A 
ATOM      9  C   UNL     1       2.139   7.605  19.402  0.00  0.00    +0.000 A 
ATOM     10  N   UNL     1       1.796   8.915  19.122  0.00  0.00    +0.000 NA
ATOM     11  C   UNL     1       0.944   9.302  20.051  0.00  0.00    +0.000 A 
ATOM     12  N   UNL     1       0.721   8.280  20.937  0.00  0.00    +0.000 N 
ATOM     13  C   UNL     1       1.461   7.193  20.545  0.00  0.00    +0.000 A 
ATOM     14  C   UNL     1       1.581   5.920  21.089  0.00  0.00    +0.000 A 
ATOM     15  C   UNL     1       2.443   5.033  20.434  0.00  0.00    +0.000 A 
ATOM     16  C   UNL     1       3.168   5.397  19.283  0.00  0.00    +0.000 A 
ATOM     17  H   UNL     1       0.108   8.321  21.739  0.00  0.00    +0.000 HD
ENDROOT
BRANCH  11  18
ATOM     18  C   UNL     1       0.269  10.655  20.169  0.00  0.00    +0.000 C 
ATOM     19  C   UNL     1      -1.047  10.661  19.369  0.00  0.00    +0.000 C 
ATOM     20  C   UNL     1      -0.049  10.956  21.645  0.00  0.00    +0.000 C 
ATOM     21  C   UNL     1       1.184  11.763  19.613  0.00  0.00    +0.000 C 
ENDBRANCH  11  18
BRANCH   1  22
ATOM     22  C   UNL     1       4.198   3.097  19.104  0.00  0.00    +0.000 C 
BRANCH  22  24
ATOM     23  C   UNL     1       2.015   1.834  19.538  0.00  0.00    +0.000 C 
ATOM     24  C   UNL     1       3.107   2.174  18.515  0.00  0.00    +0.000 C 
ATOM     25  C   UNL     1       2.463   2.827  17.291  0.00  0.00    +0.000 C 
ENDBRANCH  22  24
ENDBRANCH   1  22
TORSDOF 3
ENDMDL
MODEL 9
REMARK VINA RESULT:      -6.7      1.140      1.469
REMARK  Name = 
REMARK  9 active torsions:
REMARK  status: ('A' for Active; 'I' for Inactive)
REMARK    1  A    between atoms: C_1  and  C_2
REMARK    2  A    between atoms: C_2  and  C_3
REMARK    3  A    between atoms: C_2  and  C_4
REMARK    4  A    between atoms: C_4  and  N_5
REMARK    5  A    between atoms: N_8  and  C_9
REMARK    6  A    between atoms: C_15  and  C_16
REMARK    7  A    between atoms: C_16  and  C_17
REMARK    8  A    between atoms: C_16  and  C_18
REMARK    9  A    between atoms: C_16  and  C_19
REMARK                            x       y       z     vdW  Elec       q    Type
REMARK                         _______ _______ _______ _____ _____    ______ ____
ROOT
ATOM      1  N   UNL     1       4.169   4.746  18.761  0.00  0.00    +0.000 N 
ATOM      2  C   UNL     1       3.655   3.923  19.760  0.00  0.00    +0.000 A 
ATOM      3  O   UNL     1       4.084   2.779  19.933  0.00  0.00    +0.000 OA
ATOM      4  N   UNL     1       2.670   4.456  20.570  0.00  0.00    +0.000 N 
ATOM      5  C   UNL     1       2.191   3.657  21.684  0.00  0.00    +0.000 C 
ATOM      6  C   UNL     1       2.089   5.714  20.412  0.00  0.00    +0.000 A 
ATOM      7  O   UNL     1       1.199   6.114  21.158  0.00  0.00    +0.000 OA
ATOM      8  C   UNL     1       2.601   6.544  19.312  0.00  0.00    +0.000 A 
ATOM      9  C   UNL     1       2.065   7.829  19.055  0.00  0.00    +0.000 A 
ATOM     10  N   UNL     1       1.048   8.548  19.655  0.00  0.00    +0.000 NA
ATOM     11  C   UNL     1       0.955   9.698  19.017  0.00  0.00    +0.000 A 
ATOM     12  N   UNL     1       1.885   9.752  18.011  0.00  0.00    +0.000 N 
ATOM     13  C   UNL     1       2.603   8.583  18.018  0.00  0.00    +0.000 A 
ATOM     14  C   UNL     1       3.653   8.147  17.219  0.00  0.00    +0.000 A 
ATOM     15  C   UNL     1       4.167   6.874  17.493  0.00  0.00    +0.000 A 
ATOM     16  C   UNL     1       3.654   6.057  18.519  0.00  0.00    +0.000 A 
ATOM     17  H   UNL     1       2.020  10.526  17.377  0.00  0.00    +0.000 HD
ENDROOT
BRANCH  11  18
ATOM     18  C   UNL     1      -0.005  10.835  19.312  0.00  0.00    +0.000 C 
ATOM     19  C   UNL     1      -1.284  10.678  18.469  0.00  0.00    +0.000 C 
ATOM     20  C   UNL     1      -0.390  10.824  20.802  0.00  0.00    +0.000 C 
ATOM     21  C   UNL     1       0.643  12.189  18.968  0.00  0.00    +0.000 C 
ENDBRANCH  11  18
BRANCH   1  22
ATOM     22  C   UNL     1       5.332   4.236  18.021  0.00  0.00    +0.000 C 
BRANCH  22  24
ATOM     23  C   UNL     1       3.414   3.381  16.559  0.00  0.00    +0.000 C 
ATOM     24  C   UNL     1       4.935   3.496  16.723  0.00  0.00    +0.000 C 
ATOM     25  C   UNL     1       5.520   4.209  15.503  0.00  0.00    +0.000 C 
ENDBRANCH  22  24
ENDBRANCH   1  22
TORSDOF 3
ENDMDL
