MODEL 1
REMARK VINA RESULT:      -6.3      0.000      0.000
REMARK  Name = 
REMARK  5 active torsions:
REMARK  status: ('A' for Active; 'I' for Inactive)
REMARK    1  A    between atoms: C_1  and  C_2
REMARK    2  A    between atoms: C_2  and  C_3
REMARK    3  A    between atoms: N_10  and  C_11
REMARK    4  A    between atoms: C_14  and  O_15
REMARK    5  A    between atoms: O_15  and  C_16
REMARK                            x       y       z     vdW  Elec       q    Type
REMARK                         _______ _______ _______ _____ _____    ______ ____
ROOT
ATOM      1  C   UNL     1       6.518   3.724  12.802  0.00  0.00    +0.000 A 
ATOM      2  N   UNL     1       5.586   3.448  13.692  0.00  0.00    +0.000 NA
ATOM      3  N   UNL     1       5.740   4.179  14.831  0.00  0.00    +0.000 NA
ATOM      4  C   UNL     1       6.790   4.973  14.785  0.00  0.00    +0.000 A 
ATOM      5  N   UNL     1       7.221   5.859  15.725  0.00  0.00    +0.000 N 
ATOM      6  C   UNL     1       6.473   6.267  16.793  0.00  0.00    +0.000 C 
ATOM      7  O   UNL     1       6.946   7.106  17.562  0.00  0.00    +0.000 OA
ATOM      8  N   UNL     1       5.226   5.711  16.923  0.00  0.00    +0.000 N 
ATOM      9  S   UNL     1       7.687   4.873  13.343  0.00  0.00    +0.000 S 
ATOM     10  H   UNL     1       8.107   6.322  15.601  0.00  0.00    +0.000 HD
ATOM     11  H   UNL     1       5.124   4.783  16.525  0.00  0.00    +0.000 HD
ENDROOT
BRANCH   8  12
ATOM     12  C   UNL     1       4.289   6.072  17.902  0.00  0.00    +0.000 A 
ATOM     13  C   UNL     1       3.481   7.199  17.766  0.00  0.00    +0.000 A 
ATOM     14  C   UNL     1       2.509   7.472  18.734  0.00  0.00    +0.000 A 
ATOM     15  C   UNL     1       2.357   6.636  19.842  0.00  0.00    +0.000 A 
ATOM     16  C   UNL     1       3.194   5.529  19.989  0.00  0.00    +0.000 A 
ATOM     17  C   UNL     1       4.135   5.227  19.001  0.00  0.00    +0.000 A 
BRANCH  15  18
ATOM     18  O   UNL     1       1.392   7.010  20.736  0.00  0.00    +0.000 OA
ATOM     19  C   UNL     1       1.354   8.398  21.047  0.00  0.00    +0.000 C 
ENDBRANCH  15  18
ENDBRANCH   8  12
BRANCH   1  21
ATOM     20  C   UNL     1       5.901   1.752  11.414  0.00  0.00    +0.000 C 
ATOM     21  C   UNL     1       6.583   3.112  11.442  0.00  0.00    +0.000 C 
ENDBRANCH   1  21
TORSDOF 3
ENDMDL
MODEL 2
REMARK VINA RESULT:      -6.0      4.148      8.077
REMARK  Name = 
REMARK  5 active torsions:
REMARK  status: ('A' for Active; 'I' for Inactive)
REMARK    1  A    between atoms: C_1  and  C_2
REMARK    2  A    between atoms: C_2  and  C_3
REMARK    3  A    between atoms: N_10  and  C_11
REMARK    4  A    between atoms: C_14  and  O_15
REMARK    5  A    between atoms: O_15  and  C_16
REMARK                            x       y       z     vdW  Elec       q    Type
REMARK                         _______ _______ _______ _____ _____    ______ ____
ROOT
ATOM      1  C   UNL     1       0.083  10.084  20.117  0.00  0.00    +0.000 A 
ATOM      2  N   UNL     1       1.027   9.987  19.205  0.00  0.00    +0.000 NA
ATOM      3  N   UNL     1       1.752   8.841  19.343  0.00  0.00    +0.000 NA
ATOM      4  C   UNL     1       1.354   8.111  20.364  0.00  0.00    +0.000 A 
ATOM      5  N   UNL     1       1.825   6.901  20.773  0.00  0.00    +0.000 N 
ATOM      6  C   UNL     1       2.642   6.104  20.021  0.00  0.00    +0.000 C 
ATOM      7  O   UNL     1       2.978   5.007  20.471  0.00  0.00    +0.000 OA
ATOM      8  N   UNL     1       3.021   6.589  18.795  0.00  0.00    +0.000 N 
ATOM      9  S   UNL     1       0.066   8.782  21.251  0.00  0.00    +0.000 S 
ATOM     10  H   UNL     1       1.499   6.508  21.641  0.00  0.00    +0.000 HD
ATOM     11  H   UNL     1       3.050   7.601  18.722  0.00  0.00    +0.000 HD
ENDROOT
BRANCH   8  12
ATOM     12  C   UNL     1       3.780   5.877  17.855  0.00  0.00    +0.000 A 
ATOM     13  C   UNL     1       4.926   6.418  17.275  0.00  0.00    +0.000 A 
ATOM     14  C   UNL     1       5.691   5.639  16.402  0.00  0.00    +0.000 A 
ATOM     15  C   UNL     1       5.305   4.333  16.093  0.00  0.00    +0.000 A 
ATOM     16  C   UNL     1       4.137   3.811  16.651  0.00  0.00    +0.000 A 
ATOM     17  C   UNL     1       3.396   4.570  17.559  0.00  0.00    +0.000 A 
BRANCH  15  18
ATOM     18  O   UNL     1       6.114   3.671  15.211  0.00  0.00    +0.000 OA
ATOM     19  C   UNL     1       5.943   4.023  13.843  0.00  0.00    +0.000 C 
ENDBRANCH  15  18
ENDBRANCH   8  12
BRANCH   1  21
ATOM     20  C   UNL     1      -1.467  11.536  18.820  0.00  0.00    +0.000 C 
ATOM     21  C   UNL     1      -0.897  11.207  20.191  0.00  0.00    +0.000 C 
ENDBRANCH   1  21
TORSDOF 3
ENDMDL
MODEL 3
REMARK VINA RESULT:      -6.0      4.170      8.113
REMARK  Name = 
REMARK  5 active torsions:
REMARK  status: ('A' for Active; 'I' for Inactive)
REMARK    1  A    between atoms: C_1  and  C_2
REMARK    2  A    between atoms: C_2  and  C_3
REMARK    3  A    between atoms: N_10  and  C_11
REMARK    4  A    between atoms: C_14  and  O_15
REMARK    5  A    between atoms: O_15  and  C_16
REMARK                            x       y       z     vdW  Elec       q    Type
REMARK                         _______ _______ _______ _____ _____    ______ ____
ROOT
ATOM      1  C   UNL     1      -0.002  10.166  19.898  0.00  0.00    +0.000 A 
ATOM      2  N   UNL     1       0.928  10.040  18.974  0.00  0.00    +0.000 NA
ATOM      3  N   UNL     1       1.683   8.921  19.163  0.00  0.00    +0.000 NA
ATOM      4  C   UNL     1       1.322   8.241  20.232  0.00  0.00    +0.000 A 
ATOM      5  N   UNL     1       1.830   7.068  20.699  0.00  0.00    +0.000 N 
ATOM      6  C   UNL     1       2.652   6.249  19.977  0.00  0.00    +0.000 C 
ATOM      7  O   UNL     1       3.023   5.187  20.483  0.00  0.00    +0.000 OA
ATOM      8  N   UNL     1       2.997   6.671  18.719  0.00  0.00    +0.000 N 
ATOM      9  S   UNL     1       0.034   8.931  21.104  0.00  0.00    +0.000 S 
ATOM     10  H   UNL     1       1.530   6.718  21.594  0.00  0.00    +0.000 HD
ATOM     11  H   UNL     1       3.000   7.678  18.589  0.00  0.00    +0.000 HD
ENDROOT
BRANCH   8  12
ATOM     12  C   UNL     1       3.756   5.925  17.806  0.00  0.00    +0.000 A 
ATOM     13  C   UNL     1       3.566   4.555  17.639  0.00  0.00    +0.000 A 
ATOM     14  C   UNL     1       4.295   3.871  16.662  0.00  0.00    +0.000 A 
ATOM     15  C   UNL     1       5.225   4.547  15.868  0.00  0.00    +0.000 A 
ATOM     16  C   UNL     1       5.436   5.912  16.066  0.00  0.00    +0.000 A 
ATOM     17  C   UNL     1       4.676   6.607  17.010  0.00  0.00    +0.000 A 
BRANCH  15  18
ATOM     18  O   UNL     1       5.897   3.776  14.960  0.00  0.00    +0.000 OA
ATOM     19  C   UNL     1       6.640   4.493  13.981  0.00  0.00    +0.000 C 
ENDBRANCH  15  18
ENDBRANCH   8  12
BRANCH   1  21
ATOM     20  C   UNL     1      -0.933  12.119  18.669  0.00  0.00    +0.000 C 
ATOM     21  C   UNL     1      -1.007  11.269  19.928  0.00  0.00    +0.000 C 
ENDBRANCH   1  21
TORSDOF 3
ENDMDL
MODEL 4
REMARK VINA RESULT:      -5.9      5.337      7.119
REMARK  Name = 
REMARK  5 active torsions:
REMARK  status: ('A' for Active; 'I' for Inactive)
REMARK    1  A    between atoms: C_1  and  C_2
REMARK    2  A    between atoms: C_2  and  C_3
REMARK    3  A    between atoms: N_10  and  C_11
REMARK    4  A    between atoms: C_14  and  O_15
REMARK    5  A    between atoms: O_15  and  C_16
REMARK                            x       y       z     vdW  Elec       q    Type
REMARK                         _______ _______ _______ _____ _____    ______ ____
ROOT
ATOM      1  C   UNL     1       2.450   4.451  20.017  0.00  0.00    +0.000 A 
ATOM      2  N   UNL     1       1.961   5.378  20.815  0.00  0.00    +0.000 NA
ATOM      3  N   UNL     1       1.968   6.608  20.228  0.00  0.00    +0.000 NA
ATOM      4  C   UNL     1       2.479   6.587  19.015  0.00  0.00    +0.000 A 
ATOM      5  N   UNL     1       2.611   7.618  18.135  0.00  0.00    +0.000 N 
ATOM      6  C   UNL     1       1.987   8.826  18.273  0.00  0.00    +0.000 C 
ATOM      7  O   UNL     1       2.143   9.677  17.395  0.00  0.00    +0.000 OA
ATOM      8  N   UNL     1       1.210   8.997  19.390  0.00  0.00    +0.000 N 
ATOM      9  S   UNL     1       3.010   5.054  18.500  0.00  0.00    +0.000 S 
ATOM     10  H   UNL     1       3.124   7.478  17.280  0.00  0.00    +0.000 HD
ATOM     11  H   UNL     1       1.488   8.446  20.196  0.00  0.00    +0.000 HD
ENDROOT
BRANCH   8  12
ATOM     12  C   UNL     1       0.430  10.132  19.654  0.00  0.00    +0.000 A 
ATOM     13  C   UNL     1       0.877  11.154  20.490  0.00  0.00    +0.000 A 
ATOM     14  C   UNL     1       0.094  12.299  20.660  0.00  0.00    +0.000 A 
ATOM     15  C   UNL     1      -1.138  12.418  20.014  0.00  0.00    +0.000 A 
ATOM     16  C   UNL     1      -1.596  11.375  19.207  0.00  0.00    +0.000 A 
ATOM     17  C   UNL     1      -0.796  10.249  18.999  0.00  0.00    +0.000 A 
BRANCH  15  18
ATOM     18  O   UNL     1      -1.830  13.570  20.268  0.00  0.00    +0.000 OA
ATOM     19  C   UNL     1      -3.189  13.394  20.651  0.00  0.00    +0.000 C 
ENDBRANCH  15  18
ENDBRANCH   8  12
BRANCH   1  21
ATOM     20  C   UNL     1       1.670   2.679  21.581  0.00  0.00    +0.000 C 
ATOM     21  C   UNL     1       2.529   3.002  20.368  0.00  0.00    +0.000 C 
ENDBRANCH   1  21
TORSDOF 3
ENDMDL
MODEL 5
REMARK VINA RESULT:      -5.9      1.524      1.928
REMARK  Name = 
REMARK  5 active torsions:
REMARK  status: ('A' for Active; 'I' for Inactive)
REMARK    1  A    between atoms: C_1  and  C_2
REMARK    2  A    between atoms: C_2  and  C_3
REMARK    3  A    between atoms: N_10  and  C_11
REMARK    4  A    between atoms: C_14  and  O_15
REMARK    5  A    between atoms: O_15  and  C_16
REMARK                            x       y       z     vdW  Elec       q    Type
REMARK                         _______ _______ _______ _____ _____    ______ ____
ROOT
ATOM      1  C   UNL     1       6.932   3.919  12.657  0.00  0.00    +0.000 A 
ATOM      2  N   UNL     1       6.182   3.226  13.488  0.00  0.00    +0.000 NA
ATOM      3  N   UNL     1       6.170   3.773  14.736  0.00  0.00    +0.000 NA
ATOM      4  C   UNL     1       6.924   4.849  14.825  0.00  0.00    +0.000 A 
ATOM      5  N   UNL     1       7.116   5.659  15.902  0.00  0.00    +0.000 N 
ATOM      6  C   UNL     1       6.342   5.633  17.028  0.00  0.00    +0.000 C 
ATOM      7  O   UNL     1       6.580   6.440  17.929  0.00  0.00    +0.000 OA
ATOM      8  N   UNL     1       5.333   4.705  17.063  0.00  0.00    +0.000 N 
ATOM      9  S   UNL     1       7.724   5.269  13.384  0.00  0.00    +0.000 S 
ATOM     10  H   UNL     1       7.811   6.387  15.857  0.00  0.00    +0.000 HD
ATOM     11  H   UNL     1       5.497   3.870  16.511  0.00  0.00    +0.000 HD
ENDROOT
BRANCH   8  12
ATOM     12  C   UNL     1       4.389   4.592  18.093  0.00  0.00    +0.000 A 
ATOM     13  C   UNL     1       3.292   5.447  18.182  0.00  0.00    +0.000 A 
ATOM     14  C   UNL     1       2.338   5.244  19.184  0.00  0.00    +0.000 A 
ATOM     15  C   UNL     1       2.486   4.204  20.105  0.00  0.00    +0.000 A 
ATOM     16  C   UNL     1       3.606   3.374  20.031  0.00  0.00    +0.000 A 
ATOM     17  C   UNL     1       4.537   3.546  19.004  0.00  0.00    +0.000 A 
BRANCH  15  18
ATOM     18  O   UNL     1       1.506   4.112  21.054  0.00  0.00    +0.000 OA
ATOM     19  C   UNL     1       1.378   2.839  21.678  0.00  0.00    +0.000 C 
ENDBRANCH  15  18
ENDBRANCH   8  12
BRANCH   1  21
ATOM     20  C   UNL     1       7.295   2.094  11.003  0.00  0.00    +0.000 C 
ATOM     21  C   UNL     1       7.103   3.589  11.211  0.00  0.00    +0.000 C 
ENDBRANCH   1  21
TORSDOF 3
ENDMDL
MODEL 6
REMARK VINA RESULT:      -5.9      5.305      7.036
REMARK  Name = 
REMARK  5 active torsions:
REMARK  status: ('A' for Active; 'I' for Inactive)
REMARK    1  A    between atoms: C_1  and  C_2
REMARK    2  A    between atoms: C_2  and  C_3
REMARK    3  A    between atoms: N_10  and  C_11
REMARK    4  A    between atoms: C_14  and  O_15
REMARK    5  A    between atoms: O_15  and  C_16
REMARK                            x       y       z     vdW  Elec       q    Type
REMARK                         _______ _______ _______ _____ _____    ______ ____
ROOT
ATOM      1  C   UNL     1       2.513   4.448  19.994  0.00  0.00    +0.000 A 
ATOM      2  N   UNL     1       1.981   5.358  20.782  0.00  0.00    +0.000 NA
ATOM      3  N   UNL     1       1.989   6.594  20.207  0.00  0.00    +0.000 NA
ATOM      4  C   UNL     1       2.543   6.593  19.013  0.00  0.00    +0.000 A 
ATOM      5  N   UNL     1       2.689   7.634  18.148  0.00  0.00    +0.000 N 
ATOM      6  C   UNL     1       2.041   8.831  18.274  0.00  0.00    +0.000 C 
ATOM      7  O   UNL     1       2.215   9.693  17.410  0.00  0.00    +0.000 OA
ATOM      8  N   UNL     1       1.222   8.979  19.364  0.00  0.00    +0.000 N 
ATOM      9  S   UNL     1       3.117   5.074  18.503  0.00  0.00    +0.000 S 
ATOM     10  H   UNL     1       3.235   7.511  17.310  0.00  0.00    +0.000 HD
ATOM     11  H   UNL     1       1.480   8.425  20.175  0.00  0.00    +0.000 HD
ENDROOT
BRANCH   8  12
ATOM     12  C   UNL     1       0.415  10.098  19.610  0.00  0.00    +0.000 A 
ATOM     13  C   UNL     1      -0.781  10.307  18.925  0.00  0.00    +0.000 A 
ATOM     14  C   UNL     1      -1.588  11.398  19.260  0.00  0.00    +0.000 A 
ATOM     15  C   UNL     1      -1.195  12.289  20.262  0.00  0.00    +0.000 A 
ATOM     16  C   UNL     1       0.020  12.093  20.919  0.00  0.00    +0.000 A 
ATOM     17  C   UNL     1       0.807  10.979  20.618  0.00  0.00    +0.000 A 
BRANCH  15  18
ATOM     18  O   UNL     1      -2.049  13.332  20.493  0.00  0.00    +0.000 OA
ATOM     19  C   UNL     1      -2.184  13.721  21.855  0.00  0.00    +0.000 C 
ENDBRANCH  15  18
ENDBRANCH   8  12
BRANCH   1  21
ATOM     20  C   UNL     1       1.804   2.671  21.587  0.00  0.00    +0.000 C 
ATOM     21  C   UNL     1       2.603   2.997  20.334  0.00  0.00    +0.000 C 
ENDBRANCH   1  21
TORSDOF 3
ENDMDL
MODEL 7
REMARK VINA RESULT:      -5.9      0.893      1.454
REMARK  Name = 
REMARK  5 active torsions:
REMARK  status: ('A' for Active; 'I' for Inactive)
REMARK    1  A    between atoms: C_1  and  C_2
REMARK    2  A    between atoms: C_2  and  C_3
REMARK    3  A    between atoms: N_10  and  C_11
REMARK    4  A    between atoms: C_14  and  O_15
REMARK    5  A    between atoms: O_15  and  C_16
REMARK                            x       y       z     vdW  Elec       q    Type
REMARK                         _______ _______ _______ _____ _____    ______ ____
ROOT
ATOM      1  C   UNL     1       6.082   3.773  13.277  0.00  0.00    +0.000 A 
ATOM      2  N   UNL     1       5.106   3.610  14.145  0.00  0.00    +0.000 NA
ATOM      3  N   UNL     1       5.232   4.446  15.214  0.00  0.00    +0.000 NA
ATOM      4  C   UNL     1       6.307   5.204  15.140  0.00  0.00    +0.000 A 
ATOM      5  N   UNL     1       6.723   6.167  16.008  0.00  0.00    +0.000 N 
ATOM      6  C   UNL     1       5.942   6.696  16.996  0.00  0.00    +0.000 C 
ATOM      7  O   UNL     1       6.407   7.594  17.701  0.00  0.00    +0.000 OA
ATOM      8  N   UNL     1       4.674   6.188  17.122  0.00  0.00    +0.000 N 
ATOM      9  S   UNL     1       7.261   4.939  13.757  0.00  0.00    +0.000 S 
ATOM     10  H   UNL     1       7.627   6.592  15.881  0.00  0.00    +0.000 HD
ATOM     11  H   UNL     1       4.562   5.228  16.811  0.00  0.00    +0.000 HD
ENDROOT
BRANCH   8  12
ATOM     12  C   UNL     1       3.708   6.667  18.017  0.00  0.00    +0.000 A 
ATOM     13  C   UNL     1       3.423   6.009  19.212  0.00  0.00    +0.000 A 
ATOM     14  C   UNL     1       2.505   6.568  20.107  0.00  0.00    +0.000 A 
ATOM     15  C   UNL     1       1.861   7.769  19.803  0.00  0.00    +0.000 A 
ATOM     16  C   UNL     1       2.125   8.404  18.588  0.00  0.00    +0.000 A 
ATOM     17  C   UNL     1       3.074   7.872  17.713  0.00  0.00    +0.000 A 
BRANCH  15  18
ATOM     18  O   UNL     1       0.967   8.213  20.739  0.00  0.00    +0.000 OA
ATOM     19  C   UNL     1       0.830   9.626  20.829  0.00  0.00    +0.000 C 
ENDBRANCH  15  18
ENDBRANCH   8  12
BRANCH   1  21
ATOM     20  C   UNL     1       4.832   2.904  11.308  0.00  0.00    +0.000 C 
ATOM     21  C   UNL     1       6.188   3.030  11.987  0.00  0.00    +0.000 C 
ENDBRANCH   1  21
TORSDOF 3
ENDMDL
MODEL 8
REMARK VINA RESULT:      -5.8      2.876      4.799
REMARK  Name = 
REMARK  5 active torsions:
REMARK  status: ('A' for Active; 'I' for Inactive)
REMARK    1  A    between atoms: C_1  and  C_2
REMARK    2  A    between atoms: C_2  and  C_3
REMARK    3  A    between atoms: N_10  and  C_11
REMARK    4  A    between atoms: C_14  and  O_15
REMARK    5  A    between atoms: O_15  and  C_16
REMARK                            x       y       z     vdW  Elec       q    Type
REMARK                         _______ _______ _______ _____ _____    ______ ____
ROOT
ATOM      1  C   UNL     1       5.669   5.263  16.782  0.00  0.00    +0.000 A 
ATOM      2  N   UNL     1       5.064   6.432  16.827  0.00  0.00    +0.000 NA
ATOM      3  N   UNL     1       4.007   6.423  17.688  0.00  0.00    +0.000 NA
ATOM      4  C   UNL     1       3.826   5.249  18.256  0.00  0.00    +0.000 A 
ATOM      5  N   UNL     1       2.895   4.893  19.183  0.00  0.00    +0.000 N 
ATOM      6  C   UNL     1       2.134   5.786  19.885  0.00  0.00    +0.000 C 
ATOM      7  O   UNL     1       1.348   5.356  20.733  0.00  0.00    +0.000 OA
ATOM      8  N   UNL     1       2.316   7.114  19.598  0.00  0.00    +0.000 N 
ATOM      9  S   UNL     1       4.930   4.051  17.765  0.00  0.00    +0.000 S 
ATOM     10  H   UNL     1       2.802   3.926  19.448  0.00  0.00    +0.000 HD
ATOM     11  H   UNL     1       2.632   7.311  18.654  0.00  0.00    +0.000 HD
ENDROOT
BRANCH   8  12
ATOM     12  C   UNL     1       1.690   8.170  20.275  0.00  0.00    +0.000 A 
ATOM     13  C   UNL     1       1.707   8.265  21.665  0.00  0.00    +0.000 A 
ATOM     14  C   UNL     1       1.134   9.377  22.289  0.00  0.00    +0.000 A 
ATOM     15  C   UNL     1       0.530  10.383  21.530  0.00  0.00    +0.000 A 
ATOM     16  C   UNL     1       0.485  10.263  20.141  0.00  0.00    +0.000 A 
ATOM     17  C   UNL     1       1.097   9.176  19.512  0.00  0.00    +0.000 A 
BRANCH  15  18
ATOM     18  O   UNL     1      -0.017  11.413  22.244  0.00  0.00    +0.000 OA
ATOM     19  C   UNL     1      -1.315  11.167  22.773  0.00  0.00    +0.000 C 
ENDBRANCH  15  18
ENDBRANCH   8  12
BRANCH   1  21
ATOM     20  C   UNL     1       6.520   4.324  14.640  0.00  0.00    +0.000 C 
ATOM     21  C   UNL     1       6.884   4.981  15.963  0.00  0.00    +0.000 C 
ENDBRANCH   1  21
TORSDOF 3
ENDMDL
MODEL 9
REMARK VINA RESULT:      -5.7      1.485      2.207
REMARK  Name = 
REMARK  5 active torsions:
REMARK  status: ('A' for Active; 'I' for Inactive)
REMARK    1  A    between atoms: C_1  and  C_2
REMARK    2  A    between atoms: C_2  and  C_3
REMARK    3  A    between atoms: N_10  and  C_11
REMARK    4  A    between atoms: C_14  and  O_15
REMARK    5  A    between atoms: O_15  and  C_16
REMARK                            x       y       z     vdW  Elec       q    Type
REMARK                         _______ _______ _______ _____ _____    ______ ____
ROOT
ATOM      1  C   UNL     1       6.902   3.887  12.663  0.00  0.00    +0.000 A 
ATOM      2  N   UNL     1       6.160   3.178  13.488  0.00  0.00    +0.000 NA
ATOM      3  N   UNL     1       6.148   3.709  14.743  0.00  0.00    +0.000 NA
ATOM      4  C   UNL     1       6.892   4.791  14.842  0.00  0.00    +0.000 A 
ATOM      5  N   UNL     1       7.082   5.590  15.928  0.00  0.00    +0.000 N 
ATOM      6  C   UNL     1       6.311   5.545  17.056  0.00  0.00    +0.000 C 
ATOM      7  O   UNL     1       6.545   6.343  17.966  0.00  0.00    +0.000 OA
ATOM      8  N   UNL     1       5.311   4.607  17.084  0.00  0.00    +0.000 N 
ATOM      9  S   UNL     1       7.684   5.235  13.403  0.00  0.00    +0.000 S 
ATOM     10  H   UNL     1       7.770   6.325  15.890  0.00  0.00    +0.000 HD
ATOM     11  H   UNL     1       5.480   3.780  16.521  0.00  0.00    +0.000 HD
ENDROOT
BRANCH   8  12
ATOM     12  C   UNL     1       4.371   4.474  18.115  0.00  0.00    +0.000 A 
ATOM     13  C   UNL     1       4.436   3.432  19.039  0.00  0.00    +0.000 A 
ATOM     14  C   UNL     1       3.520   3.386  20.094  0.00  0.00    +0.000 A 
ATOM     15  C   UNL     1       2.532   4.365  20.218  0.00  0.00    +0.000 A 
ATOM     16  C   UNL     1       2.450   5.385  19.269  0.00  0.00    +0.000 A 
ATOM     17  C   UNL     1       3.392   5.459  18.240  0.00  0.00    +0.000 A 
BRANCH  15  18
ATOM     18  O   UNL     1       1.676   4.211  21.274  0.00  0.00    +0.000 OA
ATOM     19  C   UNL     1       1.444   2.866  21.680  0.00  0.00    +0.000 C 
ENDBRANCH  15  18
ENDBRANCH   8  12
BRANCH   1  21
ATOM     20  C   UNL     1       7.299   2.088  10.989  0.00  0.00    +0.000 C 
ATOM     21  C   UNL     1       7.070   3.575  11.213  0.00  0.00    +0.000 C 
ENDBRANCH   1  21
TORSDOF 3
ENDMDL
