MODEL 1
REMARK VINA RESULT:      -7.8      0.000      0.000
REMARK  Name = 
REMARK  5 active torsions:
REMARK  status: ('A' for Active; 'I' for Inactive)
REMARK    1  A    between atoms: C_2  and  C_3
REMARK    2  A    between atoms: C_3  and  C_4
REMARK    3  A    between atoms: C_4  and  C_5
REMARK    4  A    between atoms: C_15  and  C_16
REMARK    5  A    between atoms: C_16  and  C_17
REMARK                            x       y       z     vdW  Elec       q    Type
REMARK                         _______ _______ _______ _____ _____    ______ ____
ROOT
ATOM      1  O   UNL     1      -1.274  12.088  21.140  0.00  0.00    +0.000 OA
ATOM      2  C   UNL     1      -0.565  11.429  20.373  0.00  0.00    +0.000 C 
ATOM      3  N   UNL     1       0.033  10.276  20.826  0.00  0.00    +0.000 N 
ATOM      4  C   UNL     1       0.800   9.438  20.055  0.00  0.00    +0.000 A 
ATOM      5  N   UNL     1       1.037   9.516  18.774  0.00  0.00    +0.000 NA
ATOM      6  C   UNL     1       1.846   8.479  18.374  0.00  0.00    +0.000 A 
ATOM      7  C   UNL     1       2.235   7.617  19.376  0.00  0.00    +0.000 A 
ATOM      8  S   UNL     1       1.530   8.124  20.868  0.00  0.00    +0.000 S 
ATOM      9  H   UNL     1      -0.111  10.036  21.794  0.00  0.00    +0.000 HD
ENDROOT
BRANCH   2  10
ATOM     10  C   UNL     1      -0.319  11.842  18.934  0.00  0.00    +0.000 C 
BRANCH  10  11
ATOM     11  C   UNL     1      -1.533  12.020  18.029  0.00  0.00    +0.000 C 
BRANCH  11  12
ATOM     12  C   UNL     1      -2.417  10.743  18.042  0.00  0.00    +0.000 C 
ATOM     13  C   UNL     1      -3.935  11.016  18.049  0.00  0.00    +0.000 C 
ATOM     14  C   UNL     1      -4.462  11.541  16.717  0.00  0.00    +0.000 C 
ATOM     15  C   UNL     1      -4.049  10.662  15.540  0.00  0.00    +0.000 C 
ATOM     16  C   UNL     1      -2.556  10.346  15.532  0.00  0.00    +0.000 C 
ATOM     17  C   UNL     1      -2.080   9.805  16.877  0.00  0.00    +0.000 C 
ENDBRANCH  11  12
ENDBRANCH  10  11
ENDBRANCH   2  10
BRANCH   7  18
ATOM     18  C   UNL     1       3.077   6.388  19.256  0.00  0.00    +0.000 C 
BRANCH  18  19
ATOM     19  C   UNL     1       2.363   5.119  19.645  0.00  0.00    +0.000 A 
ATOM     20  C   UNL     1       2.450   4.616  20.951  0.00  0.00    +0.000 A 
ATOM     21  C   UNL     1       1.737   3.473  21.320  0.00  0.00    +0.000 A 
ATOM     22  C   UNL     1       0.936   2.811  20.388  0.00  0.00    +0.000 A 
ATOM     23  C   UNL     1       0.863   3.284  19.079  0.00  0.00    +0.000 A 
ATOM     24  C   UNL     1       1.577   4.427  18.718  0.00  0.00    +0.000 A 
ATOM     25  F   UNL     1       1.486   4.868  17.455  0.00  0.00    +0.000 F 
ENDBRANCH  18  19
ENDBRANCH   7  18
TORSDOF 5
ENDMDL
MODEL 2
REMARK VINA RESULT:      -7.3      3.617      8.178
REMARK  Name = 
REMARK  5 active torsions:
REMARK  status: ('A' for Active; 'I' for Inactive)
REMARK    1  A    between atoms: C_2  and  C_3
REMARK    2  A    between atoms: C_3  and  C_4
REMARK    3  A    between atoms: C_4  and  C_5
REMARK    4  A    between atoms: C_15  and  C_16
REMARK    5  A    between atoms: C_16  and  C_17
REMARK                            x       y       z     vdW  Elec       q    Type
REMARK                         _______ _______ _______ _____ _____    ______ ____
ROOT
ATOM      1  O   UNL     1       2.898   4.597  20.837  0.00  0.00    +0.000 OA
ATOM      2  C   UNL     1       2.714   5.526  20.044  0.00  0.00    +0.000 C 
ATOM      3  N   UNL     1       2.047   6.652  20.465  0.00  0.00    +0.000 N 
ATOM      4  C   UNL     1       1.826   7.765  19.692  0.00  0.00    +0.000 A 
ATOM      5  N   UNL     1       2.257   8.003  18.483  0.00  0.00    +0.000 NA
ATOM      6  C   UNL     1       1.827   9.237  18.057  0.00  0.00    +0.000 A 
ATOM      7  C   UNL     1       1.047   9.930  18.956  0.00  0.00    +0.000 A 
ATOM      8  S   UNL     1       0.875   8.997  20.397  0.00  0.00    +0.000 S 
ATOM      9  H   UNL     1       1.702   6.653  21.412  0.00  0.00    +0.000 HD
ENDROOT
BRANCH   2  10
ATOM     10  C   UNL     1       3.194   5.476  18.606  0.00  0.00    +0.000 C 
BRANCH  10  11
ATOM     11  C   UNL     1       4.597   4.941  18.345  0.00  0.00    +0.000 C 
BRANCH  11  12
ATOM     12  C   UNL     1       5.488   6.032  17.690  0.00  0.00    +0.000 C 
ATOM     13  C   UNL     1       7.003   5.757  17.775  0.00  0.00    +0.000 C 
ATOM     14  C   UNL     1       7.465   4.627  16.859  0.00  0.00    +0.000 C 
ATOM     15  C   UNL     1       7.003   4.821  15.418  0.00  0.00    +0.000 C 
ATOM     16  C   UNL     1       5.513   5.132  15.310  0.00  0.00    +0.000 C 
ATOM     17  C   UNL     1       5.102   6.280  16.227  0.00  0.00    +0.000 C 
ENDBRANCH  11  12
ENDBRANCH  10  11
ENDBRANCH   2  10
BRANCH   7  18
ATOM     18  C   UNL     1       0.461  11.297  18.802  0.00  0.00    +0.000 C 
BRANCH  18  19
ATOM     19  C   UNL     1      -1.027  11.299  18.564  0.00  0.00    +0.000 A 
ATOM     20  C   UNL     1      -1.609  10.419  17.639  0.00  0.00    +0.000 A 
ATOM     21  C   UNL     1      -2.995  10.386  17.467  0.00  0.00    +0.000 A 
ATOM     22  C   UNL     1      -3.817  11.236  18.208  0.00  0.00    +0.000 A 
ATOM     23  C   UNL     1      -3.250  12.133  19.111  0.00  0.00    +0.000 A 
ATOM     24  C   UNL     1      -1.865  12.162  19.278  0.00  0.00    +0.000 A 
ATOM     25  F   UNL     1      -1.342  13.029  20.155  0.00  0.00    +0.000 F 
ENDBRANCH  18  19
ENDBRANCH   7  18
TORSDOF 5
ENDMDL
MODEL 3
REMARK VINA RESULT:      -7.3      2.372      3.916
REMARK  Name = 
REMARK  5 active torsions:
REMARK  status: ('A' for Active; 'I' for Inactive)
REMARK    1  A    between atoms: C_2  and  C_3
REMARK    2  A    between atoms: C_3  and  C_4
REMARK    3  A    between atoms: C_4  and  C_5
REMARK    4  A    between atoms: C_15  and  C_16
REMARK    5  A    between atoms: C_16  and  C_17
REMARK                            x       y       z     vdW  Elec       q    Type
REMARK                         _______ _______ _______ _____ _____    ______ ____
ROOT
ATOM      1  O   UNL     1      -0.442  12.789  18.363  0.00  0.00    +0.000 OA
ATOM      2  C   UNL     1      -0.132  11.732  18.922  0.00  0.00    +0.000 C 
ATOM      3  N   UNL     1       0.726  10.860  18.294  0.00  0.00    +0.000 N 
ATOM      4  C   UNL     1       1.179   9.682  18.835  0.00  0.00    +0.000 A 
ATOM      5  N   UNL     1       0.963   9.213  20.034  0.00  0.00    +0.000 NA
ATOM      6  C   UNL     1       1.599   8.005  20.195  0.00  0.00    +0.000 A 
ATOM      7  C   UNL     1       2.291   7.553  19.092  0.00  0.00    +0.000 A 
ATOM      8  S   UNL     1       2.150   8.710  17.820  0.00  0.00    +0.000 S 
ATOM      9  H   UNL     1       1.042  11.114  17.371  0.00  0.00    +0.000 HD
ENDROOT
BRANCH   2  10
ATOM     10  C   UNL     1      -0.668  11.346  20.288  0.00  0.00    +0.000 C 
BRANCH  10  11
ATOM     11  C   UNL     1      -1.532  12.363  21.024  0.00  0.00    +0.000 C 
BRANCH  11  12
ATOM     12  C   UNL     1      -1.184  12.385  22.538  0.00  0.00    +0.000 C 
ATOM     13  C   UNL     1      -0.949  13.793  23.120  0.00  0.00    +0.000 C 
ATOM     14  C   UNL     1      -2.229  14.613  23.256  0.00  0.00    +0.000 C 
ATOM     15  C   UNL     1      -3.323  13.863  24.009  0.00  0.00    +0.000 C 
ATOM     16  C   UNL     1      -3.549  12.451  23.476  0.00  0.00    +0.000 C 
ATOM     17  C   UNL     1      -2.246  11.664  23.378  0.00  0.00    +0.000 C 
ENDBRANCH  11  12
ENDBRANCH  10  11
ENDBRANCH   2  10
BRANCH   7  18
ATOM     18  C   UNL     1       3.103   6.305  18.965  0.00  0.00    +0.000 C 
BRANCH  18  19
ATOM     19  C   UNL     1       2.419   5.074  19.503  0.00  0.00    +0.000 A 
ATOM     20  C   UNL     1       2.578   4.692  20.843  0.00  0.00    +0.000 A 
ATOM     21  C   UNL     1       1.893   3.584  21.350  0.00  0.00    +0.000 A 
ATOM     22  C   UNL     1       1.050   2.839  20.524  0.00  0.00    +0.000 A 
ATOM     23  C   UNL     1       0.905   3.193  19.184  0.00  0.00    +0.000 A 
ATOM     24  C   UNL     1       1.591   4.300  18.685  0.00  0.00    +0.000 A 
ATOM     25  F   UNL     1       1.432   4.625  17.394  0.00  0.00    +0.000 F 
ENDBRANCH  18  19
ENDBRANCH   7  18
TORSDOF 5
ENDMDL
MODEL 4
REMARK VINA RESULT:      -7.2      3.525      8.123
REMARK  Name = 
REMARK  5 active torsions:
REMARK  status: ('A' for Active; 'I' for Inactive)
REMARK    1  A    between atoms: C_2  and  C_3
REMARK    2  A    between atoms: C_3  and  C_4
REMARK    3  A    between atoms: C_4  and  C_5
REMARK    4  A    between atoms: C_15  and  C_16
REMARK    5  A    between atoms: C_16  and  C_17
REMARK                            x       y       z     vdW  Elec       q    Type
REMARK                         _______ _______ _______ _____ _____    ______ ____
ROOT
ATOM      1  O   UNL     1       2.884   4.582  20.545  0.00  0.00    +0.000 OA
ATOM      2  C   UNL     1       2.666   5.516  19.767  0.00  0.00    +0.000 C 
ATOM      3  N   UNL     1       2.135   6.689  20.248  0.00  0.00    +0.000 N 
ATOM      4  C   UNL     1       1.896   7.809  19.491  0.00  0.00    +0.000 A 
ATOM      5  N   UNL     1       2.189   8.007  18.234  0.00  0.00    +0.000 NA
ATOM      6  C   UNL     1       1.795   9.265  17.845  0.00  0.00    +0.000 A 
ATOM      7  C   UNL     1       1.180  10.017  18.822  0.00  0.00    +0.000 A 
ATOM      8  S   UNL     1       1.125   9.108  20.288  0.00  0.00    +0.000 S 
ATOM      9  H   UNL     1       1.910   6.720  21.230  0.00  0.00    +0.000 HD
ENDROOT
BRANCH   2  10
ATOM     10  C   UNL     1       2.960   5.423  18.281  0.00  0.00    +0.000 C 
BRANCH  10  11
ATOM     11  C   UNL     1       4.042   4.447  17.832  0.00  0.00    +0.000 C 
BRANCH  11  12
ATOM     12  C   UNL     1       4.721   4.944  16.526  0.00  0.00    +0.000 C 
ATOM     13  C   UNL     1       4.913   6.472  16.447  0.00  0.00    +0.000 C 
ATOM     14  C   UNL     1       6.001   6.994  17.382  0.00  0.00    +0.000 C 
ATOM     15  C   UNL     1       7.320   6.246  17.214  0.00  0.00    +0.000 C 
ATOM     16  C   UNL     1       7.152   4.730  17.251  0.00  0.00    +0.000 C 
ATOM     17  C   UNL     1       6.069   4.254  16.287  0.00  0.00    +0.000 C 
ENDBRANCH  11  12
ENDBRANCH  10  11
ENDBRANCH   2  10
BRANCH   7  18
ATOM     18  C   UNL     1       0.674  11.419  18.720  0.00  0.00    +0.000 C 
BRANCH  18  19
ATOM     19  C   UNL     1      -0.830  11.525  18.692  0.00  0.00    +0.000 A 
ATOM     20  C   UNL     1      -1.583  10.814  17.747  0.00  0.00    +0.000 A 
ATOM     21  C   UNL     1      -2.979  10.869  17.766  0.00  0.00    +0.000 A 
ATOM     22  C   UNL     1      -3.640  11.642  18.721  0.00  0.00    +0.000 A 
ATOM     23  C   UNL     1      -2.903  12.375  19.649  0.00  0.00    +0.000 A 
ATOM     24  C   UNL     1      -1.509  12.315  19.625  0.00  0.00    +0.000 A 
ATOM     25  F   UNL     1      -0.820  13.023  20.531  0.00  0.00    +0.000 F 
ENDBRANCH  18  19
ENDBRANCH   7  18
TORSDOF 5
ENDMDL
MODEL 5
REMARK VINA RESULT:      -7.2      2.297      3.622
REMARK  Name = 
REMARK  5 active torsions:
REMARK  status: ('A' for Active; 'I' for Inactive)
REMARK    1  A    between atoms: C_2  and  C_3
REMARK    2  A    between atoms: C_3  and  C_4
REMARK    3  A    between atoms: C_4  and  C_5
REMARK    4  A    between atoms: C_15  and  C_16
REMARK    5  A    between atoms: C_16  and  C_17
REMARK                            x       y       z     vdW  Elec       q    Type
REMARK                         _______ _______ _______ _____ _____    ______ ____
ROOT
ATOM      1  O   UNL     1      -0.986  12.567  17.739  0.00  0.00    +0.000 OA
ATOM      2  C   UNL     1      -0.617  11.662  18.495  0.00  0.00    +0.000 C 
ATOM      3  N   UNL     1       0.313  10.750  18.055  0.00  0.00    +0.000 N 
ATOM      4  C   UNL     1       0.834   9.734  18.817  0.00  0.00    +0.000 A 
ATOM      5  N   UNL     1       0.625   9.490  20.083  0.00  0.00    +0.000 NA
ATOM      6  C   UNL     1       1.339   8.385  20.480  0.00  0.00    +0.000 A 
ATOM      7  C   UNL     1       2.085   7.780  19.491  0.00  0.00    +0.000 A 
ATOM      8  S   UNL     1       1.893   8.658  18.018  0.00  0.00    +0.000 S 
ATOM      9  H   UNL     1       0.632  10.844  17.103  0.00  0.00    +0.000 HD
ENDROOT
BRANCH   2  10
ATOM     10  C   UNL     1      -1.155  11.509  19.905  0.00  0.00    +0.000 C 
BRANCH  10  11
ATOM     11  C   UNL     1      -2.408  12.295  20.276  0.00  0.00    +0.000 C 
BRANCH  11  12
ATOM     12  C   UNL     1      -2.103  13.305  21.416  0.00  0.00    +0.000 C 
ATOM     13  C   UNL     1      -3.335  14.074  21.934  0.00  0.00    +0.000 C 
ATOM     14  C   UNL     1      -4.285  13.210  22.759  0.00  0.00    +0.000 C 
ATOM     15  C   UNL     1      -3.568  12.464  23.880  0.00  0.00    +0.000 C 
ATOM     16  C   UNL     1      -2.322  11.726  23.399  0.00  0.00    +0.000 C 
ATOM     17  C   UNL     1      -1.394  12.634  22.598  0.00  0.00    +0.000 C 
ENDBRANCH  11  12
ENDBRANCH  10  11
ENDBRANCH   2  10
BRANCH   7  18
ATOM     18  C   UNL     1       2.984   6.593  19.615  0.00  0.00    +0.000 C 
BRANCH  18  19
ATOM     19  C   UNL     1       2.265   5.271  19.531  0.00  0.00    +0.000 A 
ATOM     20  C   UNL     1       1.644   4.718  20.661  0.00  0.00    +0.000 A 
ATOM     21  C   UNL     1       0.929   3.522  20.561  0.00  0.00    +0.000 A 
ATOM     22  C   UNL     1       0.830   2.859  19.337  0.00  0.00    +0.000 A 
ATOM     23  C   UNL     1       1.464   3.385  18.213  0.00  0.00    +0.000 A 
ATOM     24  C   UNL     1       2.178   4.579  18.319  0.00  0.00    +0.000 A 
ATOM     25  F   UNL     1       2.775   5.070  17.224  0.00  0.00    +0.000 F 
ENDBRANCH  18  19
ENDBRANCH   7  18
TORSDOF 5
ENDMDL
MODEL 6
REMARK VINA RESULT:      -7.1      2.564      4.170
REMARK  Name = 
REMARK  5 active torsions:
REMARK  status: ('A' for Active; 'I' for Inactive)
REMARK    1  A    between atoms: C_2  and  C_3
REMARK    2  A    between atoms: C_3  and  C_4
REMARK    3  A    between atoms: C_4  and  C_5
REMARK    4  A    between atoms: C_15  and  C_16
REMARK    5  A    between atoms: C_16  and  C_17
REMARK                            x       y       z     vdW  Elec       q    Type
REMARK                         _______ _______ _______ _____ _____    ______ ____
ROOT
ATOM      1  O   UNL     1      -0.905  12.629  18.304  0.00  0.00    +0.000 OA
ATOM      2  C   UNL     1      -0.461  11.672  18.945  0.00  0.00    +0.000 C 
ATOM      3  N   UNL     1       0.349  10.754  18.319  0.00  0.00    +0.000 N 
ATOM      4  C   UNL     1       0.939   9.680  18.937  0.00  0.00    +0.000 A 
ATOM      5  N   UNL     1       0.921   9.373  20.206  0.00  0.00    +0.000 NA
ATOM      6  C   UNL     1       1.640   8.224  20.429  0.00  0.00    +0.000 A 
ATOM      7  C   UNL     1       2.195   7.650  19.307  0.00  0.00    +0.000 A 
ATOM      8  S   UNL     1       1.812   8.614  17.927  0.00  0.00    +0.000 S 
ATOM      9  H   UNL     1       0.518  10.889  17.334  0.00  0.00    +0.000 HD
ENDROOT
BRANCH   2  10
ATOM     10  C   UNL     1      -0.777  11.459  20.414  0.00  0.00    +0.000 C 
BRANCH  10  11
ATOM     11  C   UNL     1      -1.739  12.436  21.081  0.00  0.00    +0.000 C 
BRANCH  11  12
ATOM     12  C   UNL     1      -1.573  12.399  22.625  0.00  0.00    +0.000 C 
ATOM     13  C   UNL     1      -1.032  13.705  23.241  0.00  0.00    +0.000 C 
ATOM     14  C   UNL     1      -2.048  14.845  23.233  0.00  0.00    +0.000 C 
ATOM     15  C   UNL     1      -3.383  14.437  23.848  0.00  0.00    +0.000 C 
ATOM     16  C   UNL     1      -3.922  13.127  23.282  0.00  0.00    +0.000 C 
ATOM     17  C   UNL     1      -2.880  12.014  23.330  0.00  0.00    +0.000 C 
ENDBRANCH  11  12
ENDBRANCH  10  11
ENDBRANCH   2  10
BRANCH   7  18
ATOM     18  C   UNL     1       3.051   6.427  19.227  0.00  0.00    +0.000 C 
BRANCH  18  19
ATOM     19  C   UNL     1       2.273   5.136  19.225  0.00  0.00    +0.000 A 
ATOM     20  C   UNL     1       1.892   4.528  18.020  0.00  0.00    +0.000 A 
ATOM     21  C   UNL     1       1.223   3.302  18.025  0.00  0.00    +0.000 A 
ATOM     22  C   UNL     1       0.918   2.671  19.232  0.00  0.00    +0.000 A 
ATOM     23  C   UNL     1       1.267   3.278  20.437  0.00  0.00    +0.000 A 
ATOM     24  C   UNL     1       1.935   4.502  20.425  0.00  0.00    +0.000 A 
ATOM     25  F   UNL     1       2.266   5.065  21.596  0.00  0.00    +0.000 F 
ENDBRANCH  18  19
ENDBRANCH   7  18
TORSDOF 5
ENDMDL
MODEL 7
REMARK VINA RESULT:      -7.1      3.916      8.455
REMARK  Name = 
REMARK  5 active torsions:
REMARK  status: ('A' for Active; 'I' for Inactive)
REMARK    1  A    between atoms: C_2  and  C_3
REMARK    2  A    between atoms: C_3  and  C_4
REMARK    3  A    between atoms: C_4  and  C_5
REMARK    4  A    between atoms: C_15  and  C_16
REMARK    5  A    between atoms: C_16  and  C_17
REMARK                            x       y       z     vdW  Elec       q    Type
REMARK                         _______ _______ _______ _____ _____    ______ ____
ROOT
ATOM      1  O   UNL     1       3.130   4.557  20.324  0.00  0.00    +0.000 OA
ATOM      2  C   UNL     1       2.874   5.511  19.583  0.00  0.00    +0.000 C 
ATOM      3  N   UNL     1       2.286   6.637  20.109  0.00  0.00    +0.000 N 
ATOM      4  C   UNL     1       1.999   7.775  19.396  0.00  0.00    +0.000 A 
ATOM      5  N   UNL     1       2.290   8.039  18.151  0.00  0.00    +0.000 NA
ATOM      6  C   UNL     1       1.840   9.292  17.811  0.00  0.00    +0.000 A 
ATOM      7  C   UNL     1       1.186   9.974  18.814  0.00  0.00    +0.000 A 
ATOM      8  S   UNL     1       1.165   9.004  20.241  0.00  0.00    +0.000 S 
ATOM      9  H   UNL     1       2.054   6.618  21.090  0.00  0.00    +0.000 HD
ENDROOT
BRANCH   2  10
ATOM     10  C   UNL     1       3.180   5.493  18.098  0.00  0.00    +0.000 C 
BRANCH  10  11
ATOM     11  C   UNL     1       4.107   4.400  17.577  0.00  0.00    +0.000 C 
BRANCH  11  12
ATOM     12  C   UNL     1       4.896   4.897  16.335  0.00  0.00    +0.000 C 
ATOM     13  C   UNL     1       5.074   6.427  16.260  0.00  0.00    +0.000 C 
ATOM     14  C   UNL     1       6.064   6.973  17.285  0.00  0.00    +0.000 C 
ATOM     15  C   UNL     1       7.403   6.243  17.247  0.00  0.00    +0.000 C 
ATOM     16  C   UNL     1       7.253   4.725  17.282  0.00  0.00    +0.000 C 
ATOM     17  C   UNL     1       6.271   4.225  16.227  0.00  0.00    +0.000 C 
ENDBRANCH  11  12
ENDBRANCH  10  11
ENDBRANCH   2  10
BRANCH   7  18
ATOM     18  C   UNL     1       0.616  11.355  18.766  0.00  0.00    +0.000 C 
BRANCH  18  19
ATOM     19  C   UNL     1       1.617  12.439  19.074  0.00  0.00    +0.000 A 
ATOM     20  C   UNL     1       2.364  13.040  18.051  0.00  0.00    +0.000 A 
ATOM     21  C   UNL     1       3.245  14.085  18.337  0.00  0.00    +0.000 A 
ATOM     22  C   UNL     1       3.399  14.538  19.648  0.00  0.00    +0.000 A 
ATOM     23  C   UNL     1       2.683  13.932  20.678  0.00  0.00    +0.000 A 
ATOM     24  C   UNL     1       1.804  12.889  20.385  0.00  0.00    +0.000 A 
ATOM     25  F   UNL     1       1.120  12.324  21.391  0.00  0.00    +0.000 F 
ENDBRANCH  18  19
ENDBRANCH   7  18
TORSDOF 5
ENDMDL
MODEL 8
REMARK VINA RESULT:      -7.1      5.042      8.069
REMARK  Name = 
REMARK  5 active torsions:
REMARK  status: ('A' for Active; 'I' for Inactive)
REMARK    1  A    between atoms: C_2  and  C_3
REMARK    2  A    between atoms: C_3  and  C_4
REMARK    3  A    between atoms: C_4  and  C_5
REMARK    4  A    between atoms: C_15  and  C_16
REMARK    5  A    between atoms: C_16  and  C_17
REMARK                            x       y       z     vdW  Elec       q    Type
REMARK                         _______ _______ _______ _____ _____    ______ ____
ROOT
ATOM      1  O   UNL     1       1.566   8.104  19.042  0.00  0.00    +0.000 OA
ATOM      2  C   UNL     1       2.508   7.321  18.892  0.00  0.00    +0.000 C 
ATOM      3  N   UNL     1       3.301   7.422  17.773  0.00  0.00    +0.000 N 
ATOM      4  C   UNL     1       4.403   6.642  17.522  0.00  0.00    +0.000 A 
ATOM      5  N   UNL     1       4.946   5.744  18.299  0.00  0.00    +0.000 NA
ATOM      6  C   UNL     1       6.045   5.187  17.688  0.00  0.00    +0.000 A 
ATOM      7  C   UNL     1       6.321   5.664  16.426  0.00  0.00    +0.000 A 
ATOM      8  S   UNL     1       5.165   6.877  16.011  0.00  0.00    +0.000 S 
ATOM      9  H   UNL     1       3.050   8.124  17.095  0.00  0.00    +0.000 HD
ENDROOT
BRANCH   2  10
ATOM     10  C   UNL     1       2.832   6.234  19.900  0.00  0.00    +0.000 C 
BRANCH  10  11
ATOM     11  C   UNL     1       1.665   5.541  20.594  0.00  0.00    +0.000 C 
BRANCH  11  12
ATOM     12  C   UNL     1       1.367   4.170  19.927  0.00  0.00    +0.000 C 
ATOM     13  C   UNL     1       2.512   3.621  19.053  0.00  0.00    +0.000 C 
ATOM     14  C   UNL     1       3.709   3.128  19.862  0.00  0.00    +0.000 C 
ATOM     15  C   UNL     1       3.305   2.142  20.954  0.00  0.00    +0.000 C 
ATOM     16  C   UNL     1       2.147   2.646  21.810  0.00  0.00    +0.000 C 
ATOM     17  C   UNL     1       0.968   3.108  20.959  0.00  0.00    +0.000 C 
ENDBRANCH  11  12
ENDBRANCH  10  11
ENDBRANCH   2  10
BRANCH   7  18
ATOM     18  C   UNL     1       7.454   5.286  15.528  0.00  0.00    +0.000 C 
BRANCH  18  19
ATOM     19  C   UNL     1       7.019   4.676  14.219  0.00  0.00    +0.000 A 
ATOM     20  C   UNL     1       5.907   3.823  14.159  0.00  0.00    +0.000 A 
ATOM     21  C   UNL     1       5.474   3.310  12.934  0.00  0.00    +0.000 A 
ATOM     22  C   UNL     1       6.149   3.634  11.756  0.00  0.00    +0.000 A 
ATOM     23  C   UNL     1       7.271   4.459  11.806  0.00  0.00    +0.000 A 
ATOM     24  C   UNL     1       7.698   4.968  13.033  0.00  0.00    +0.000 A 
ATOM     25  F   UNL     1       8.777   5.765  13.057  0.00  0.00    +0.000 F 
ENDBRANCH  18  19
ENDBRANCH   7  18
TORSDOF 5
ENDMDL
MODEL 9
REMARK VINA RESULT:      -7.0      3.996      8.473
REMARK  Name = 
REMARK  5 active torsions:
REMARK  status: ('A' for Active; 'I' for Inactive)
REMARK    1  A    between atoms: C_2  and  C_3
REMARK    2  A    between atoms: C_3  and  C_4
REMARK    3  A    between atoms: C_4  and  C_5
REMARK    4  A    between atoms: C_15  and  C_16
REMARK    5  A    between atoms: C_16  and  C_17
REMARK                            x       y       z     vdW  Elec       q    Type
REMARK                         _______ _______ _______ _____ _____    ______ ____
ROOT
ATOM      1  O   UNL     1       3.007   4.687  20.432  0.00  0.00    +0.000 OA
ATOM      2  C   UNL     1       2.682   5.611  19.680  0.00  0.00    +0.000 C 
ATOM      3  N   UNL     1       2.215   6.788  20.216  0.00  0.00    +0.000 N 
ATOM      4  C   UNL     1       1.871   7.899  19.486  0.00  0.00    +0.000 A 
ATOM      5  N   UNL     1       1.991   8.083  18.198  0.00  0.00    +0.000 NA
ATOM      6  C   UNL     1       1.542   9.336  17.853  0.00  0.00    +0.000 A 
ATOM      7  C   UNL     1       1.062  10.097  18.896  0.00  0.00    +0.000 A 
ATOM      8  S   UNL     1       1.210   9.205  20.366  0.00  0.00    +0.000 S 
ATOM      9  H   UNL     1       2.126   6.831  21.219  0.00  0.00    +0.000 HD
ENDROOT
BRANCH   2  10
ATOM     10  C   UNL     1       2.772   5.502  18.169  0.00  0.00    +0.000 C 
BRANCH  10  11
ATOM     11  C   UNL     1       4.028   4.871  17.578  0.00  0.00    +0.000 C 
BRANCH  11  12
ATOM     12  C   UNL     1       5.105   5.954  17.297  0.00  0.00    +0.000 C 
ATOM     13  C   UNL     1       6.525   5.581  17.769  0.00  0.00    +0.000 C 
ATOM     14  C   UNL     1       7.183   4.500  16.914  0.00  0.00    +0.000 C 
ATOM     15  C   UNL     1       7.148   4.835  15.426  0.00  0.00    +0.000 C 
ATOM     16  C   UNL     1       5.761   5.245  14.942  0.00  0.00    +0.000 C 
ATOM     17  C   UNL     1       5.153   6.340  15.814  0.00  0.00    +0.000 C 
ENDBRANCH  11  12
ENDBRANCH  10  11
ENDBRANCH   2  10
BRANCH   7  18
ATOM     18  C   UNL     1       0.541  11.497  18.848  0.00  0.00    +0.000 C 
BRANCH  18  19
ATOM     19  C   UNL     1       1.583  12.547  19.139  0.00  0.00    +0.000 A 
ATOM     20  C   UNL     1       2.420  13.030  18.123  0.00  0.00    +0.000 A 
ATOM     21  C   UNL     1       3.343  14.045  18.388  0.00  0.00    +0.000 A 
ATOM     22  C   UNL     1       3.447  14.585  19.671  0.00  0.00    +0.000 A 
ATOM     23  C   UNL     1       2.640  14.095  20.696  0.00  0.00    +0.000 A 
ATOM     24  C   UNL     1       1.721  13.081  20.424  0.00  0.00    +0.000 A 
ATOM     25  F   UNL     1       0.950  12.628  21.424  0.00  0.00    +0.000 F 
ENDBRANCH  18  19
ENDBRANCH   7  18
TORSDOF 5
ENDMDL
