MODEL 1
REMARK VINA RESULT:      -8.5      0.000      0.000
REMARK  Name = 
REMARK  9 active torsions:
REMARK  status: ('A' for Active; 'I' for Inactive)
REMARK    1  A    between atoms: C_1  and  O_2
REMARK    2  A    between atoms: O_2  and  C_3
REMARK    3  A    between atoms: C_5  and  N_6
REMARK    4  A    between atoms: N_6  and  S_7
REMARK    5  A    between atoms: S_7  and  C_8
REMARK    6  A    between atoms: C_13  and  N_14
REMARK    7  A    between atoms: N_14  and  C_15
REMARK    8  A    between atoms: C_24  and  C_25
REMARK    9  A    between atoms: C_25  and  O_26
REMARK                            x       y       z     vdW  Elec       q    Type
REMARK                         _______ _______ _______ _____ _____    ______ ____
ROOT
ATOM      1  C   UNL     1       2.699   6.018  18.198  0.00  0.00    +0.000 A 
ATOM      2  C   UNL     1       2.085   4.751  18.616  0.00  0.00    +0.000 A 
ATOM      3  C   UNL     1       1.280   4.446  19.750  0.00  0.00    +0.000 A 
ATOM      4  C   UNL     1       0.846   3.143  20.032  0.00  0.00    +0.000 A 
ATOM      5  C   UNL     1       1.135   2.109  19.155  0.00  0.00    +0.000 A 
ATOM      6  C   UNL     1       1.955   2.368  18.072  0.00  0.00    +0.000 A 
ATOM      7  C   UNL     1       2.509   3.624  17.903  0.00  0.00    +0.000 A 
ATOM      8  N   UNL     1       3.655   3.643  17.245  0.00  0.00    +0.000 NA
ATOM      9  C   UNL     1       4.389   4.752  17.353  0.00  0.00    +0.000 A 
ATOM     10  C   UNL     1       5.452   4.874  18.247  0.00  0.00    +0.000 A 
ATOM     11  C   UNL     1       6.310   5.972  18.105  0.00  0.00    +0.000 A 
ATOM     12  C   UNL     1       5.938   6.990  17.237  0.00  0.00    +0.000 A 
ATOM     13  C   UNL     1       4.606   7.021  16.842  0.00  0.00    +0.000 A 
ATOM     14  C   UNL     1       3.778   5.955  17.252  0.00  0.00    +0.000 A 
ENDROOT
BRANCH   1  15
ATOM     15  N   UNL     1       2.696   7.229  19.004  0.00  0.00    +0.000 N 
ATOM     16  H   UNL     1       2.727   6.926  19.988  0.00  0.00    +0.000 HD
BRANCH  15  22
ATOM     17  C   UNL     1       1.191   8.824  20.159  0.00  0.00    +0.000 A 
ATOM     18  C   UNL     1       0.251   9.858  20.072  0.00  0.00    +0.000 A 
ATOM     19  C   UNL     1      -0.107  10.362  18.824  0.00  0.00    +0.000 A 
ATOM     20  C   UNL     1       0.522   9.918  17.664  0.00  0.00    +0.000 A 
ATOM     21  C   UNL     1       1.491   8.924  17.741  0.00  0.00    +0.000 A 
ATOM     22  C   UNL     1       1.792   8.320  18.971  0.00  0.00    +0.000 A 
BRANCH  17  24
ATOM     23  C   UNL     1       1.375   8.968  22.541  0.00  0.00    +0.000 C 
ATOM     24  O   UNL     1       1.552   8.209  21.342  0.00  0.00    +0.000 OA
ENDBRANCH  17  24
BRANCH  19  25
ATOM     25  N   UNL     1      -1.161  11.317  18.748  0.00  0.00    +0.000 N 
ATOM     26  H   UNL     1      -1.488  11.657  19.656  0.00  0.00    +0.000 HD
BRANCH  25  27
ATOM     27  S   UNL     1      -2.508  10.916  17.804  0.00  0.00    +0.000 S 
ATOM     28  C   UNL     1      -3.795  11.806  18.655  0.00  0.00    +0.000 C 
ATOM     29  O   UNL     1      -2.360  11.450  16.470  0.00  0.00    +0.000 OA
ATOM     30  O   UNL     1      -2.724   9.503  18.029  0.00  0.00    +0.000 OA
ENDBRANCH  25  27
ENDBRANCH  19  25
ENDBRANCH  15  22
ENDBRANCH   1  15
BRANCH  10  31
ATOM     31  C   UNL     1       5.250   4.221  19.613  0.00  0.00    +0.000 C 
BRANCH  31  32
ATOM     32  O   UNL     1       5.321   2.793  19.556  0.00  0.00    +0.000 OA
ATOM     33  H   UNL     1       4.727   2.534  18.841  0.00  0.00    +0.000 HD
ENDBRANCH  31  32
ENDBRANCH  10  31
TORSDOF 7
ENDMDL
MODEL 2
REMARK VINA RESULT:      -8.5      2.433      4.099
REMARK  Name = 
REMARK  9 active torsions:
REMARK  status: ('A' for Active; 'I' for Inactive)
REMARK    1  A    between atoms: C_1  and  O_2
REMARK    2  A    between atoms: O_2  and  C_3
REMARK    3  A    between atoms: C_5  and  N_6
REMARK    4  A    between atoms: N_6  and  S_7
REMARK    5  A    between atoms: S_7  and  C_8
REMARK    6  A    between atoms: C_13  and  N_14
REMARK    7  A    between atoms: N_14  and  C_15
REMARK    8  A    between atoms: C_24  and  C_25
REMARK    9  A    between atoms: C_25  and  O_26
REMARK                            x       y       z     vdW  Elec       q    Type
REMARK                         _______ _______ _______ _____ _____    ______ ____
ROOT
ATOM      1  C   UNL     1       3.363   5.792  19.284  0.00  0.00    +0.000 A 
ATOM      2  C   UNL     1       4.471   5.703  18.324  0.00  0.00    +0.000 A 
ATOM      3  C   UNL     1       4.661   6.352  17.071  0.00  0.00    +0.000 A 
ATOM      4  C   UNL     1       5.758   6.077  16.243  0.00  0.00    +0.000 A 
ATOM      5  C   UNL     1       6.745   5.200  16.665  0.00  0.00    +0.000 A 
ATOM      6  C   UNL     1       6.561   4.519  17.855  0.00  0.00    +0.000 A 
ATOM      7  C   UNL     1       5.393   4.681  18.577  0.00  0.00    +0.000 A 
ATOM      8  N   UNL     1       5.054   3.647  19.325  0.00  0.00    +0.000 NA
ATOM      9  C   UNL     1       3.792   3.610  19.759  0.00  0.00    +0.000 A 
ATOM     10  C   UNL     1       2.794   2.870  19.127  0.00  0.00    +0.000 A 
ATOM     11  C   UNL     1       1.577   2.695  19.800  0.00  0.00    +0.000 A 
ATOM     12  C   UNL     1       1.346   3.442  20.947  0.00  0.00    +0.000 A 
ATOM     13  C   UNL     1       2.167   4.545  21.153  0.00  0.00    +0.000 A 
ATOM     14  C   UNL     1       3.235   4.740  20.253  0.00  0.00    +0.000 A 
ENDROOT
BRANCH   1  15
ATOM     15  N   UNL     1       2.124   6.511  19.032  0.00  0.00    +0.000 N 
ATOM     16  H   UNL     1       1.738   6.131  18.155  0.00  0.00    +0.000 HD
BRANCH  15  22
ATOM     17  C   UNL     1       1.272   8.609  20.041  0.00  0.00    +0.000 A 
ATOM     18  C   UNL     1       1.009   9.977  19.908  0.00  0.00    +0.000 A 
ATOM     19  C   UNL     1       1.336  10.632  18.724  0.00  0.00    +0.000 A 
ATOM     20  C   UNL     1       2.007   9.969  17.700  0.00  0.00    +0.000 A 
ATOM     21  C   UNL     1       2.316   8.621  17.837  0.00  0.00    +0.000 A 
ATOM     22  C   UNL     1       1.900   7.909  18.971  0.00  0.00    +0.000 A 
BRANCH  17  24
ATOM     23  C   UNL     1      -0.235   8.295  21.872  0.00  0.00    +0.000 C 
ATOM     24  O   UNL     1       0.915   7.859  21.143  0.00  0.00    +0.000 OA
ENDBRANCH  17  24
BRANCH  19  25
ATOM     25  N   UNL     1       0.938  11.990  18.560  0.00  0.00    +0.000 N 
ATOM     26  H   UNL     1       0.652  12.233  17.608  0.00  0.00    +0.000 HD
BRANCH  25  27
ATOM     27  S   UNL     1       1.992  13.185  19.131  0.00  0.00    +0.000 S 
ATOM     28  C   UNL     1       1.014  14.651  18.873  0.00  0.00    +0.000 C 
ATOM     29  O   UNL     1       2.228  13.011  20.544  0.00  0.00    +0.000 OA
ATOM     30  O   UNL     1       3.086  13.211  18.183  0.00  0.00    +0.000 OA
ENDBRANCH  25  27
ENDBRANCH  19  25
ENDBRANCH  15  22
ENDBRANCH   1  15
BRANCH  10  31
ATOM     31  C   UNL     1       2.843   2.853  17.601  0.00  0.00    +0.000 C 
BRANCH  31  32
ATOM     32  O   UNL     1       1.867   3.717  17.010  0.00  0.00    +0.000 OA
ATOM     33  H   UNL     1       1.619   3.295  16.178  0.00  0.00    +0.000 HD
ENDBRANCH  31  32
ENDBRANCH  10  31
TORSDOF 7
ENDMDL
MODEL 3
REMARK VINA RESULT:      -8.2      1.979      2.569
REMARK  Name = 
REMARK  9 active torsions:
REMARK  status: ('A' for Active; 'I' for Inactive)
REMARK    1  A    between atoms: C_1  and  O_2
REMARK    2  A    between atoms: O_2  and  C_3
REMARK    3  A    between atoms: C_5  and  N_6
REMARK    4  A    between atoms: N_6  and  S_7
REMARK    5  A    between atoms: S_7  and  C_8
REMARK    6  A    between atoms: C_13  and  N_14
REMARK    7  A    between atoms: N_14  and  C_15
REMARK    8  A    between atoms: C_24  and  C_25
REMARK    9  A    between atoms: C_25  and  O_26
REMARK                            x       y       z     vdW  Elec       q    Type
REMARK                         _______ _______ _______ _____ _____    ______ ____
ROOT
ATOM      1  C   UNL     1       2.576   6.121  18.529  0.00  0.00    +0.000 A 
ATOM      2  C   UNL     1       1.966   4.847  18.931  0.00  0.00    +0.000 A 
ATOM      3  C   UNL     1       1.305   4.480  20.137  0.00  0.00    +0.000 A 
ATOM      4  C   UNL     1       0.853   3.175  20.376  0.00  0.00    +0.000 A 
ATOM      5  C   UNL     1       0.976   2.205  19.394  0.00  0.00    +0.000 A 
ATOM      6  C   UNL     1       1.657   2.522  18.232  0.00  0.00    +0.000 A 
ATOM      7  C   UNL     1       2.240   3.767  18.084  0.00  0.00    +0.000 A 
ATOM      8  N   UNL     1       3.288   3.798  17.281  0.00  0.00    +0.000 NA
ATOM      9  C   UNL     1       4.081   4.869  17.371  0.00  0.00    +0.000 A 
ATOM     10  C   UNL     1       5.257   4.881  18.120  0.00  0.00    +0.000 A 
ATOM     11  C   UNL     1       6.138   5.956  17.946  0.00  0.00    +0.000 A 
ATOM     12  C   UNL     1       5.702   7.053  17.215  0.00  0.00    +0.000 A 
ATOM     13  C   UNL     1       4.331   7.163  17.007  0.00  0.00    +0.000 A 
ATOM     14  C   UNL     1       3.517   6.097  17.445  0.00  0.00    +0.000 A 
ENDROOT
BRANCH   1  15
ATOM     15  N   UNL     1       2.735   7.263  19.417  0.00  0.00    +0.000 N 
ATOM     16  H   UNL     1       3.272   6.929  20.231  0.00  0.00    +0.000 HD
BRANCH  15  22
ATOM     17  C   UNL     1       1.327   9.296  19.247  0.00  0.00    +0.000 A 
ATOM     18  C   UNL     1       0.395  10.156  19.838  0.00  0.00    +0.000 A 
ATOM     19  C   UNL     1      -0.093   9.877  21.112  0.00  0.00    +0.000 A 
ATOM     20  C   UNL     1       0.261   8.703  21.773  0.00  0.00    +0.000 A 
ATOM     21  C   UNL     1       1.151   7.816  21.177  0.00  0.00    +0.000 A 
ATOM     22  C   UNL     1       1.743   8.126  19.945  0.00  0.00    +0.000 A 
BRANCH  17  24
ATOM     23  C   UNL     1       2.348  10.869  17.761  0.00  0.00    +0.000 C 
ATOM     24  O   UNL     1       1.924   9.530  18.024  0.00  0.00    +0.000 OA
ENDBRANCH  17  24
BRANCH  19  25
ATOM     25  N   UNL     1      -0.935  10.833  21.748  0.00  0.00    +0.000 N 
ATOM     26  H   UNL     1      -1.929  10.729  21.532  0.00  0.00    +0.000 HD
BRANCH  25  27
ATOM     27  S   UNL     1      -0.515  12.466  21.593  0.00  0.00    +0.000 S 
ATOM     28  C   UNL     1      -1.275  13.151  23.050  0.00  0.00    +0.000 C 
ATOM     29  O   UNL     1       0.917  12.624  21.682  0.00  0.00    +0.000 OA
ATOM     30  O   UNL     1      -1.255  12.941  20.443  0.00  0.00    +0.000 OA
ENDBRANCH  25  27
ENDBRANCH  19  25
ENDBRANCH  15  22
ENDBRANCH   1  15
BRANCH  10  31
ATOM     31  C   UNL     1       5.208   4.128  19.448  0.00  0.00    +0.000 C 
BRANCH  31  32
ATOM     32  O   UNL     1       5.241   2.707  19.276  0.00  0.00    +0.000 OA
ATOM     33  H   UNL     1       5.841   2.551  18.536  0.00  0.00    +0.000 HD
ENDBRANCH  31  32
ENDBRANCH  10  31
TORSDOF 7
ENDMDL
MODEL 4
REMARK VINA RESULT:      -8.1      1.394      1.530
REMARK  Name = 
REMARK  9 active torsions:
REMARK  status: ('A' for Active; 'I' for Inactive)
REMARK    1  A    between atoms: C_1  and  O_2
REMARK    2  A    between atoms: O_2  and  C_3
REMARK    3  A    between atoms: C_5  and  N_6
REMARK    4  A    between atoms: N_6  and  S_7
REMARK    5  A    between atoms: S_7  and  C_8
REMARK    6  A    between atoms: C_13  and  N_14
REMARK    7  A    between atoms: N_14  and  C_15
REMARK    8  A    between atoms: C_24  and  C_25
REMARK    9  A    between atoms: C_25  and  O_26
REMARK                            x       y       z     vdW  Elec       q    Type
REMARK                         _______ _______ _______ _____ _____    ______ ____
ROOT
ATOM      1  C   UNL     1       2.661   6.006  18.286  0.00  0.00    +0.000 A 
ATOM      2  C   UNL     1       2.032   4.744  18.695  0.00  0.00    +0.000 A 
ATOM      3  C   UNL     1       1.253   4.431  19.845  0.00  0.00    +0.000 A 
ATOM      4  C   UNL     1       0.798   3.131  20.111  0.00  0.00    +0.000 A 
ATOM      5  C   UNL     1       1.038   2.111  19.204  0.00  0.00    +0.000 A 
ATOM      6  C   UNL     1       1.832   2.377  18.103  0.00  0.00    +0.000 A 
ATOM      7  C   UNL     1       2.409   3.624  17.945  0.00  0.00    +0.000 A 
ATOM      8  N   UNL     1       3.535   3.632  17.254  0.00  0.00    +0.000 NA
ATOM      9  C   UNL     1       4.298   4.723  17.365  0.00  0.00    +0.000 A 
ATOM     10  C   UNL     1       5.388   4.801  18.230  0.00  0.00    +0.000 A 
ATOM     11  C   UNL     1       6.267   5.883  18.086  0.00  0.00    +0.000 A 
ATOM     12  C   UNL     1       5.893   6.928  17.252  0.00  0.00    +0.000 A 
ATOM     13  C   UNL     1       4.550   6.998  16.896  0.00  0.00    +0.000 A 
ATOM     14  C   UNL     1       3.711   5.941  17.308  0.00  0.00    +0.000 A 
ENDROOT
BRANCH   1  15
ATOM     15  N   UNL     1       2.709   7.198  19.118  0.00  0.00    +0.000 N 
ATOM     16  H   UNL     1       2.707   6.874  20.096  0.00  0.00    +0.000 HD
BRANCH  15  22
ATOM     17  C   UNL     1       1.244   8.827  20.279  0.00  0.00    +0.000 A 
ATOM     18  C   UNL     1       0.364   9.912  20.197  0.00  0.00    +0.000 A 
ATOM     19  C   UNL     1       0.082  10.481  18.958  0.00  0.00    +0.000 A 
ATOM     20  C   UNL     1       0.733  10.048  17.806  0.00  0.00    +0.000 A 
ATOM     21  C   UNL     1       1.645   9.001  17.879  0.00  0.00    +0.000 A 
ATOM     22  C   UNL     1       1.865   8.336  19.094  0.00  0.00    +0.000 A 
BRANCH  17  24
ATOM     23  C   UNL     1       1.475   8.909  22.659  0.00  0.00    +0.000 C 
ATOM     24  O   UNL     1       1.526   8.150  21.449  0.00  0.00    +0.000 OA
ENDBRANCH  17  24
BRANCH  19  25
ATOM     25  N   UNL     1      -0.917  11.493  18.880  0.00  0.00    +0.000 N 
ATOM     26  H   UNL     1      -1.413  11.528  17.986  0.00  0.00    +0.000 HD
BRANCH  25  27
ATOM     27  S   UNL     1      -0.466  13.067  19.311  0.00  0.00    +0.000 S 
ATOM     28  C   UNL     1      -1.869  13.566  20.288  0.00  0.00    +0.000 C 
ATOM     29  O   UNL     1       0.711  13.039  20.146  0.00  0.00    +0.000 OA
ATOM     30  O   UNL     1      -0.495  13.822  18.077  0.00  0.00    +0.000 OA
ENDBRANCH  25  27
ENDBRANCH  19  25
ENDBRANCH  15  22
ENDBRANCH   1  15
BRANCH  10  31
ATOM     31  C   UNL     1       5.212   4.123  19.586  0.00  0.00    +0.000 C 
BRANCH  31  32
ATOM     32  O   UNL     1       5.295   2.696  19.503  0.00  0.00    +0.000 OA
ATOM     33  H   UNL     1       6.190   2.473  19.790  0.00  0.00    +0.000 HD
ENDBRANCH  31  32
ENDBRANCH  10  31
TORSDOF 7
ENDMDL
MODEL 5
REMARK VINA RESULT:      -8.1      1.829      3.690
REMARK  Name = 
REMARK  9 active torsions:
REMARK  status: ('A' for Active; 'I' for Inactive)
REMARK    1  A    between atoms: C_1  and  O_2
REMARK    2  A    between atoms: O_2  and  C_3
REMARK    3  A    between atoms: C_5  and  N_6
REMARK    4  A    between atoms: N_6  and  S_7
REMARK    5  A    between atoms: S_7  and  C_8
REMARK    6  A    between atoms: C_13  and  N_14
REMARK    7  A    between atoms: N_14  and  C_15
REMARK    8  A    between atoms: C_24  and  C_25
REMARK    9  A    between atoms: C_25  and  O_26
REMARK                            x       y       z     vdW  Elec       q    Type
REMARK                         _______ _______ _______ _____ _____    ______ ____
ROOT
ATOM      1  C   UNL     1       3.394   5.677  19.284  0.00  0.00    +0.000 A 
ATOM      2  C   UNL     1       4.492   5.573  18.314  0.00  0.00    +0.000 A 
ATOM      3  C   UNL     1       4.681   6.223  17.062  0.00  0.00    +0.000 A 
ATOM      4  C   UNL     1       5.768   5.933  16.224  0.00  0.00    +0.000 A 
ATOM      5  C   UNL     1       6.745   5.041  16.636  0.00  0.00    +0.000 A 
ATOM      6  C   UNL     1       6.561   4.360  17.826  0.00  0.00    +0.000 A 
ATOM      7  C   UNL     1       5.402   4.537  18.558  0.00  0.00    +0.000 A 
ATOM      8  N   UNL     1       5.053   3.506  19.307  0.00  0.00    +0.000 NA
ATOM      9  C   UNL     1       3.795   3.487  19.751  0.00  0.00    +0.000 A 
ATOM     10  C   UNL     1       2.781   2.763  19.126  0.00  0.00    +0.000 A 
ATOM     11  C   UNL     1       1.567   2.604  19.808  0.00  0.00    +0.000 A 
ATOM     12  C   UNL     1       1.357   3.351  20.959  0.00  0.00    +0.000 A 
ATOM     13  C   UNL     1       2.195   4.442  21.160  0.00  0.00    +0.000 A 
ATOM     14  C   UNL     1       3.259   4.624  20.252  0.00  0.00    +0.000 A 
ENDROOT
BRANCH   1  15
ATOM     15  N   UNL     1       2.163   6.413  19.044  0.00  0.00    +0.000 N 
ATOM     16  H   UNL     1       1.763   6.039  18.171  0.00  0.00    +0.000 HD
BRANCH  15  22
ATOM     17  C   UNL     1       1.377   8.528  20.071  0.00  0.00    +0.000 A 
ATOM     18  C   UNL     1       1.131   9.900  19.941  0.00  0.00    +0.000 A 
ATOM     19  C   UNL     1       1.431  10.546  18.745  0.00  0.00    +0.000 A 
ATOM     20  C   UNL     1       2.059   9.868  17.703  0.00  0.00    +0.000 A 
ATOM     21  C   UNL     1       2.351   8.516  17.835  0.00  0.00    +0.000 A 
ATOM     22  C   UNL     1       1.959   7.814  18.984  0.00  0.00    +0.000 A 
BRANCH  17  24
ATOM     23  C   UNL     1      -0.004   8.305  22.012  0.00  0.00    +0.000 C 
ATOM     24  O   UNL     1       1.042   7.787  21.187  0.00  0.00    +0.000 OA
ENDBRANCH  17  24
BRANCH  19  25
ATOM     25  N   UNL     1       1.049  11.909  18.588  0.00  0.00    +0.000 N 
ATOM     26  H   UNL     1       1.609  12.569  19.134  0.00  0.00    +0.000 HD
BRANCH  25  27
ATOM     27  S   UNL     1      -0.588  12.287  18.793  0.00  0.00    +0.000 S 
ATOM     28  C   UNL     1      -1.360  10.901  17.985  0.00  0.00    +0.000 C 
ATOM     29  O   UNL     1      -0.933  12.275  20.195  0.00  0.00    +0.000 OA
ATOM     30  O   UNL     1      -0.813  13.459  17.973  0.00  0.00    +0.000 OA
ENDBRANCH  25  27
ENDBRANCH  19  25
ENDBRANCH  15  22
ENDBRANCH   1  15
BRANCH  10  31
ATOM     31  C   UNL     1       2.817   2.749  17.599  0.00  0.00    +0.000 C 
BRANCH  31  32
ATOM     32  O   UNL     1       1.861   3.642  17.018  0.00  0.00    +0.000 OA
ATOM     33  H   UNL     1       1.827   3.409  16.082  0.00  0.00    +0.000 HD
ENDBRANCH  31  32
ENDBRANCH  10  31
TORSDOF 7
ENDMDL
MODEL 6
REMARK VINA RESULT:      -7.8      2.030      2.709
REMARK  Name = 
REMARK  9 active torsions:
REMARK  status: ('A' for Active; 'I' for Inactive)
REMARK    1  A    between atoms: C_1  and  O_2
REMARK    2  A    between atoms: O_2  and  C_3
REMARK    3  A    between atoms: C_5  and  N_6
REMARK    4  A    between atoms: N_6  and  S_7
REMARK    5  A    between atoms: S_7  and  C_8
REMARK    6  A    between atoms: C_13  and  N_14
REMARK    7  A    between atoms: N_14  and  C_15
REMARK    8  A    between atoms: C_24  and  C_25
REMARK    9  A    between atoms: C_25  and  O_26
REMARK                            x       y       z     vdW  Elec       q    Type
REMARK                         _______ _______ _______ _____ _____    ______ ____
ROOT
ATOM      1  C   UNL     1       2.598   6.092  18.443  0.00  0.00    +0.000 A 
ATOM      2  C   UNL     1       2.010   4.799  18.815  0.00  0.00    +0.000 A 
ATOM      3  C   UNL     1       1.283   4.416  19.978  0.00  0.00    +0.000 A 
ATOM      4  C   UNL     1       0.864   3.097  20.200  0.00  0.00    +0.000 A 
ATOM      5  C   UNL     1       1.089   2.125  19.237  0.00  0.00    +0.000 A 
ATOM      6  C   UNL     1       1.835   2.458  18.121  0.00  0.00    +0.000 A 
ATOM      7  C   UNL     1       2.380   3.723  18.000  0.00  0.00    +0.000 A 
ATOM      8  N   UNL     1       3.479   3.788  17.269  0.00  0.00    +0.000 NA
ATOM      9  C   UNL     1       4.223   4.888  17.402  0.00  0.00    +0.000 A 
ATOM     10  C   UNL     1       5.344   4.949  18.228  0.00  0.00    +0.000 A 
ATOM     11  C   UNL     1       6.195   6.056  18.102  0.00  0.00    +0.000 A 
ATOM     12  C   UNL     1       5.769   7.130  17.333  0.00  0.00    +0.000 A 
ATOM     13  C   UNL     1       4.412   7.187  17.032  0.00  0.00    +0.000 A 
ATOM     14  C   UNL     1       3.611   6.094  17.424  0.00  0.00    +0.000 A 
ENDROOT
BRANCH   1  15
ATOM     15  N   UNL     1       2.655   7.245  19.328  0.00  0.00    +0.000 N 
ATOM     16  H   UNL     1       3.077   6.918  20.209  0.00  0.00    +0.000 HD
BRANCH  15  22
ATOM     17  C   UNL     1       1.330   9.309  18.968  0.00  0.00    +0.000 A 
ATOM     18  C   UNL     1       0.338  10.187  19.421  0.00  0.00    +0.000 A 
ATOM     19  C   UNL     1      -0.339   9.911  20.606  0.00  0.00    +0.000 A 
ATOM     20  C   UNL     1      -0.111   8.727  21.302  0.00  0.00    +0.000 A 
ATOM     21  C   UNL     1       0.838   7.824  20.838  0.00  0.00    +0.000 A 
ATOM     22  C   UNL     1       1.614   8.127  19.710  0.00  0.00    +0.000 A 
BRANCH  17  24
ATOM     23  C   UNL     1       2.612  10.862  17.675  0.00  0.00    +0.000 C 
ATOM     24  O   UNL     1       2.106   9.536  17.848  0.00  0.00    +0.000 OA
ENDBRANCH  17  24
BRANCH  19  25
ATOM     25  N   UNL     1      -1.246  10.882  21.118  0.00  0.00    +0.000 N 
ATOM     26  H   UNL     1      -1.394  11.686  20.503  0.00  0.00    +0.000 HD
BRANCH  25  27
ATOM     27  S   UNL     1      -0.977  11.446  22.692  0.00  0.00    +0.000 S 
ATOM     28  C   UNL     1      -0.508  13.134  22.371  0.00  0.00    +0.000 C 
ATOM     29  O   UNL     1      -2.207  11.427  23.447  0.00  0.00    +0.000 OA
ATOM     30  O   UNL     1       0.200  10.740  23.152  0.00  0.00    +0.000 OA
ENDBRANCH  25  27
ENDBRANCH  19  25
ENDBRANCH  15  22
ENDBRANCH   1  15
BRANCH  10  31
ATOM     31  C   UNL     1       5.234   4.206  19.557  0.00  0.00    +0.000 C 
BRANCH  31  32
ATOM     32  O   UNL     1       5.334   2.786  19.402  0.00  0.00    +0.000 OA
ATOM     33  H   UNL     1       5.671   2.647  18.508  0.00  0.00    +0.000 HD
ENDBRANCH  31  32
ENDBRANCH  10  31
TORSDOF 7
ENDMDL
MODEL 7
REMARK VINA RESULT:      -7.6      2.368      4.284
REMARK  Name = 
REMARK  9 active torsions:
REMARK  status: ('A' for Active; 'I' for Inactive)
REMARK    1  A    between atoms: C_1  and  O_2
REMARK    2  A    between atoms: O_2  and  C_3
REMARK    3  A    between atoms: C_5  and  N_6
REMARK    4  A    between atoms: N_6  and  S_7
REMARK    5  A    between atoms: S_7  and  C_8
REMARK    6  A    between atoms: C_13  and  N_14
REMARK    7  A    between atoms: N_14  and  C_15
REMARK    8  A    between atoms: C_24  and  C_25
REMARK    9  A    between atoms: C_25  and  O_26
REMARK                            x       y       z     vdW  Elec       q    Type
REMARK                         _______ _______ _______ _____ _____    ______ ____
ROOT
ATOM      1  C   UNL     1       3.201   5.729  19.608  0.00  0.00    +0.000 A 
ATOM      2  C   UNL     1       4.300   5.820  18.638  0.00  0.00    +0.000 A 
ATOM      3  C   UNL     1       4.443   6.635  17.480  0.00  0.00    +0.000 A 
ATOM      4  C   UNL     1       5.543   6.524  16.617  0.00  0.00    +0.000 A 
ATOM      5  C   UNL     1       6.575   5.649  16.915  0.00  0.00    +0.000 A 
ATOM      6  C   UNL     1       6.439   4.811  18.007  0.00  0.00    +0.000 A 
ATOM      7  C   UNL     1       5.273   4.820  18.750  0.00  0.00    +0.000 A 
ATOM      8  N   UNL     1       4.992   3.681  19.359  0.00  0.00    +0.000 NA
ATOM      9  C   UNL     1       3.739   3.527  19.791  0.00  0.00    +0.000 A 
ATOM     10  C   UNL     1       2.770   2.827  19.074  0.00  0.00    +0.000 A 
ATOM     11  C   UNL     1       1.571   2.507  19.724  0.00  0.00    +0.000 A 
ATOM     12  C   UNL     1       1.318   3.085  20.961  0.00  0.00    +0.000 A 
ATOM     13  C   UNL     1       2.088   4.192  21.305  0.00  0.00    +0.000 A 
ATOM     14  C   UNL     1       3.135   4.555  20.432  0.00  0.00    +0.000 A 
ENDROOT
BRANCH   1  15
ATOM     15  N   UNL     1       1.925   6.412  19.459  0.00  0.00    +0.000 N 
ATOM     16  H   UNL     1       1.774   6.534  18.447  0.00  0.00    +0.000 HD
BRANCH  15  22
ATOM     17  C   UNL     1       1.405   8.832  19.312  0.00  0.00    +0.000 A 
ATOM     18  C   UNL     1       1.032  10.015  19.959  0.00  0.00    +0.000 A 
ATOM     19  C   UNL     1       0.772  10.002  21.327  0.00  0.00    +0.000 A 
ATOM     20  C   UNL     1       0.787   8.811  22.048  0.00  0.00    +0.000 A 
ATOM     21  C   UNL     1       1.111   7.620  21.407  0.00  0.00    +0.000 A 
ATOM     22  C   UNL     1       1.486   7.620  20.056  0.00  0.00    +0.000 A 
BRANCH  17  24
ATOM     23  C   UNL     1       2.416   9.902  17.426  0.00  0.00    +0.000 C 
ATOM     24  O   UNL     1       1.756   8.761  17.978  0.00  0.00    +0.000 OA
ENDBRANCH  17  24
BRANCH  19  25
ATOM     25  N   UNL     1       0.527  11.238  21.990  0.00  0.00    +0.000 N 
ATOM     26  H   UNL     1       1.007  11.338  22.887  0.00  0.00    +0.000 HD
BRANCH  25  27
ATOM     27  S   UNL     1      -1.087  11.711  22.183  0.00  0.00    +0.000 S 
ATOM     28  C   UNL     1      -0.883  13.376  22.780  0.00  0.00    +0.000 C 
ATOM     29  O   UNL     1      -1.757  11.741  20.905  0.00  0.00    +0.000 OA
ATOM     30  O   UNL     1      -1.590  10.907  23.277  0.00  0.00    +0.000 OA
ENDBRANCH  25  27
ENDBRANCH  19  25
ENDBRANCH  15  22
ENDBRANCH   1  15
BRANCH  10  31
ATOM     31  C   UNL     1       2.801   3.012  17.558  0.00  0.00    +0.000 C 
BRANCH  31  32
ATOM     32  O   UNL     1       1.678   3.753  17.071  0.00  0.00    +0.000 OA
ATOM     33  H   UNL     1       1.017   3.711  17.774  0.00  0.00    +0.000 HD
ENDBRANCH  31  32
ENDBRANCH  10  31
TORSDOF 7
ENDMDL
MODEL 8
REMARK VINA RESULT:      -7.5      2.252      2.907
REMARK  Name = 
REMARK  9 active torsions:
REMARK  status: ('A' for Active; 'I' for Inactive)
REMARK    1  A    between atoms: C_1  and  O_2
REMARK    2  A    between atoms: O_2  and  C_3
REMARK    3  A    between atoms: C_5  and  N_6
REMARK    4  A    between atoms: N_6  and  S_7
REMARK    5  A    between atoms: S_7  and  C_8
REMARK    6  A    between atoms: C_13  and  N_14
REMARK    7  A    between atoms: N_14  and  C_15
REMARK    8  A    between atoms: C_24  and  C_25
REMARK    9  A    between atoms: C_25  and  O_26
REMARK                            x       y       z     vdW  Elec       q    Type
REMARK                         _______ _______ _______ _____ _____    ______ ____
ROOT
ATOM      1  C   UNL     1       2.362   6.196  19.114  0.00  0.00    +0.000 A 
ATOM      2  C   UNL     1       2.114   4.899  19.756  0.00  0.00    +0.000 A 
ATOM      3  C   UNL     1       1.869   4.577  21.121  0.00  0.00    +0.000 A 
ATOM      4  C   UNL     1       1.733   3.255  21.567  0.00  0.00    +0.000 A 
ATOM      5  C   UNL     1       1.764   2.209  20.658  0.00  0.00    +0.000 A 
ATOM      6  C   UNL     1       2.049   2.489  19.334  0.00  0.00    +0.000 A 
ATOM      7  C   UNL     1       2.343   3.783  18.944  0.00  0.00    +0.000 A 
ATOM      8  N   UNL     1       3.121   3.880  17.880  0.00  0.00    +0.000 NA
ATOM      9  C   UNL     1       3.707   5.062  17.673  0.00  0.00    +0.000 A 
ATOM     10  C   UNL     1       5.017   5.337  18.063  0.00  0.00    +0.000 A 
ATOM     11  C   UNL     1       5.617   6.507  17.577  0.00  0.00    +0.000 A 
ATOM     12  C   UNL     1       4.817   7.433  16.921  0.00  0.00    +0.000 A 
ATOM     13  C   UNL     1       3.443   7.310  17.095  0.00  0.00    +0.000 A 
ATOM     14  C   UNL     1       2.974   6.190  17.815  0.00  0.00    +0.000 A 
ENDROOT
BRANCH   1  15
ATOM     15  N   UNL     1       2.544   7.443  19.841  0.00  0.00    +0.000 N 
ATOM     16  H   UNL     1       3.148   7.227  20.647  0.00  0.00    +0.000 HD
BRANCH  15  22
ATOM     17  C   UNL     1       1.065   9.409  19.533  0.00  0.00    +0.000 A 
ATOM     18  C   UNL     1       0.147  10.312  20.083  0.00  0.00    +0.000 A 
ATOM     19  C   UNL     1      -0.247  10.173  21.411  0.00  0.00    +0.000 A 
ATOM     20  C   UNL     1       0.186   9.094  22.178  0.00  0.00    +0.000 A 
ATOM     21  C   UNL     1       1.062   8.164  21.630  0.00  0.00    +0.000 A 
ATOM     22  C   UNL     1       1.563   8.340  20.332  0.00  0.00    +0.000 A 
BRANCH  17  24
ATOM     23  C   UNL     1       2.108  10.780  17.873  0.00  0.00    +0.000 C 
ATOM     24  O   UNL     1       1.573   9.510  18.253  0.00  0.00    +0.000 OA
ENDBRANCH  17  24
BRANCH  19  25
ATOM     25  N   UNL     1      -1.074  11.178  21.989  0.00  0.00    +0.000 N 
ATOM     26  H   UNL     1      -2.011  11.237  21.582  0.00  0.00    +0.000 HD
BRANCH  25  27
ATOM     27  S   UNL     1      -0.435  12.742  22.104  0.00  0.00    +0.000 S 
ATOM     28  C   UNL     1      -1.383  13.587  20.856  0.00  0.00    +0.000 C 
ATOM     29  O   UNL     1      -0.734  13.310  23.397  0.00  0.00    +0.000 OA
ATOM     30  O   UNL     1       0.927  12.632  21.626  0.00  0.00    +0.000 OA
ENDBRANCH  25  27
ENDBRANCH  19  25
ENDBRANCH  15  22
ENDBRANCH   1  15
BRANCH  10  31
ATOM     31  C   UNL     1       5.452   4.743  19.400  0.00  0.00    +0.000 C 
BRANCH  31  32
ATOM     32  O   UNL     1       6.704   5.268  19.853  0.00  0.00    +0.000 OA
ATOM     33  H   UNL     1       6.510   5.716  20.686  0.00  0.00    +0.000 HD
ENDBRANCH  31  32
ENDBRANCH  10  31
TORSDOF 7
ENDMDL
