MODEL 1
REMARK VINA RESULT:      -6.8      0.000      0.000
REMARK  Name = 
REMARK  5 active torsions:
REMARK  status: ('A' for Active; 'I' for Inactive)
REMARK    1  A    between atoms: C_1  and  O_2
REMARK    2  A    between atoms: O_2  and  C_3
REMARK    3  A    between atoms: C_6  and  N_7
REMARK    4  A    between atoms: C_11  and  C_13
REMARK    5  A    between atoms: C_15  and  C_16
REMARK                            x       y       z     vdW  Elec       q    Type
REMARK                         _______ _______ _______ _____ _____    ______ ____
ROOT
ATOM      1  N   UNL     1       2.788   6.903  19.542  0.00  0.00    +0.000 N 
ATOM      2  C   UNL     1       2.619   5.474  19.876  0.00  0.00    +0.000 C 
ATOM      3  C   UNL     1       2.504   4.595  18.611  0.00  0.00    +0.000 C 
ATOM      4  N   UNL     1       3.553   4.914  17.635  0.00  0.00    +0.000 N 
ATOM      5  C   UNL     1       4.318   3.892  17.072  0.00  0.00    +0.000 C 
ATOM      6  O   UNL     1       4.030   2.709  17.257  0.00  0.00    +0.000 OA
ATOM      7  C   UNL     1       3.608   6.342  17.288  0.00  0.00    +0.000 C 
ATOM      8  C   UNL     1       3.838   7.197  18.545  0.00  0.00    +0.000 C 
ENDROOT
BRANCH   1  12
ATOM      9  C   UNL     1       0.015   9.880  20.684  0.00  0.00    +0.000 A 
ATOM     10  C   UNL     1       0.342   8.843  21.547  0.00  0.00    +0.000 A 
ATOM     11  C   UNL     1       1.265   7.864  21.160  0.00  0.00    +0.000 A 
ATOM     12  C   UNL     1       1.879   7.878  19.897  0.00  0.00    +0.000 A 
ATOM     13  C   UNL     1       1.504   8.913  19.033  0.00  0.00    +0.000 A 
ATOM     14  C   UNL     1       0.588   9.906  19.415  0.00  0.00    +0.000 A 
BRANCH   9  16
ATOM     15  C   UNL     1      -0.905  10.943  22.576  0.00  0.00    +0.000 C 
ATOM     16  O   UNL     1      -0.891  10.783  21.161  0.00  0.00    +0.000 OA
ENDBRANCH   9  16
ENDBRANCH   1  12
BRANCH   5  17
ATOM     17  C   UNL     1       5.476   4.235  16.232  0.00  0.00    +0.000 A 
ATOM     18  C   UNL     1       5.489   4.345  14.814  0.00  0.00    +0.000 A 
ATOM     19  C   UNL     1       6.790   4.651  14.499  0.00  0.00    +0.000 A 
ATOM     20  C   UNL     1       7.523   4.907  13.248  0.00  0.00    +0.000 C 
ATOM     21  O   UNL     1       7.523   4.700  15.640  0.00  0.00    +0.000 OA
ATOM     22  N   UNL     1       6.717   4.404  16.720  0.00  0.00    +0.000 NA
ENDBRANCH   5  17
TORSDOF 3
ENDMDL
MODEL 2
REMARK VINA RESULT:      -6.8      0.610      1.254
REMARK  Name = 
REMARK  5 active torsions:
REMARK  status: ('A' for Active; 'I' for Inactive)
REMARK    1  A    between atoms: C_1  and  O_2
REMARK    2  A    between atoms: O_2  and  C_3
REMARK    3  A    between atoms: C_6  and  N_7
REMARK    4  A    between atoms: C_11  and  C_13
REMARK    5  A    between atoms: C_15  and  C_16
REMARK                            x       y       z     vdW  Elec       q    Type
REMARK                         _______ _______ _______ _____ _____    ______ ____
ROOT
ATOM      1  N   UNL     1       2.664   7.015  19.561  0.00  0.00    +0.000 N 
ATOM      2  C   UNL     1       2.490   5.595  19.928  0.00  0.00    +0.000 C 
ATOM      3  C   UNL     1       2.403   4.684  18.685  0.00  0.00    +0.000 C 
ATOM      4  N   UNL     1       3.471   4.979  17.723  0.00  0.00    +0.000 N 
ATOM      5  C   UNL     1       4.249   3.945  17.201  0.00  0.00    +0.000 C 
ATOM      6  O   UNL     1       3.959   2.766  17.411  0.00  0.00    +0.000 OA
ATOM      7  C   UNL     1       3.531   6.397  17.340  0.00  0.00    +0.000 C 
ATOM      8  C   UNL     1       3.734   7.286  18.578  0.00  0.00    +0.000 C 
ENDROOT
BRANCH   1  12
ATOM      9  C   UNL     1      -0.155  10.032  20.459  0.00  0.00    +0.000 A 
ATOM     10  C   UNL     1       0.507  10.017  19.238  0.00  0.00    +0.000 A 
ATOM     11  C   UNL     1       1.437   9.010  18.950  0.00  0.00    +0.000 A 
ATOM     12  C   UNL     1       1.746   7.998  19.872  0.00  0.00    +0.000 A 
ATOM     13  C   UNL     1       1.092   8.057  21.108  0.00  0.00    +0.000 A 
ATOM     14  C   UNL     1       0.150   9.055  21.404  0.00  0.00    +0.000 A 
BRANCH   9  16
ATOM     15  C   UNL     1      -1.415  11.752  19.452  0.00  0.00    +0.000 C 
ATOM     16  O   UNL     1      -1.044  11.053  20.636  0.00  0.00    +0.000 OA
ENDBRANCH   9  16
ENDBRANCH   1  12
BRANCH   5  17
ATOM     17  C   UNL     1       5.424   4.268  16.377  0.00  0.00    +0.000 A 
ATOM     18  C   UNL     1       5.454   4.391  14.960  0.00  0.00    +0.000 A 
ATOM     19  C   UNL     1       6.765   4.669  14.661  0.00  0.00    +0.000 A 
ATOM     20  C   UNL     1       7.517   4.919  13.421  0.00  0.00    +0.000 C 
ATOM     21  O   UNL     1       7.487   4.690  15.811  0.00  0.00    +0.000 OA
ATOM     22  N   UNL     1       6.663   4.403  16.880  0.00  0.00    +0.000 NA
ENDBRANCH   5  17
TORSDOF 3
ENDMDL
MODEL 3
REMARK VINA RESULT:      -6.6      2.404      3.184
REMARK  Name = 
REMARK  5 active torsions:
REMARK  status: ('A' for Active; 'I' for Inactive)
REMARK    1  A    between atoms: C_1  and  O_2
REMARK    2  A    between atoms: O_2  and  C_3
REMARK    3  A    between atoms: C_6  and  N_7
REMARK    4  A    between atoms: C_11  and  C_13
REMARK    5  A    between atoms: C_15  and  C_16
REMARK                            x       y       z     vdW  Elec       q    Type
REMARK                         _______ _______ _______ _____ _____    ______ ____
ROOT
ATOM      1  N   UNL     1       1.303   9.385  19.068  0.00  0.00    +0.000 N 
ATOM      2  C   UNL     1       1.726   8.626  20.263  0.00  0.00    +0.000 C 
ATOM      3  C   UNL     1       1.921   7.126  19.955  0.00  0.00    +0.000 C 
ATOM      4  N   UNL     1       2.721   6.923  18.741  0.00  0.00    +0.000 N 
ATOM      5  C   UNL     1       3.806   6.046  18.757  0.00  0.00    +0.000 C 
ATOM      6  O   UNL     1       4.018   5.316  19.726  0.00  0.00    +0.000 OA
ATOM      7  C   UNL     1       2.193   7.642  17.572  0.00  0.00    +0.000 C 
ATOM      8  C   UNL     1       2.112   9.151  17.854  0.00  0.00    +0.000 C 
ENDROOT
BRANCH   1  12
ATOM      9  C   UNL     1      -2.411  11.374  18.754  0.00  0.00    +0.000 A 
ATOM     10  C   UNL     1      -1.967  10.535  17.742  0.00  0.00    +0.000 A 
ATOM     11  C   UNL     1      -0.735   9.877  17.858  0.00  0.00    +0.000 A 
ATOM     12  C   UNL     1       0.096  10.047  18.977  0.00  0.00    +0.000 A 
ATOM     13  C   UNL     1      -0.360  10.927  19.965  0.00  0.00    +0.000 A 
ATOM     14  C   UNL     1      -1.597  11.582  19.864  0.00  0.00    +0.000 A 
BRANCH   9  16
ATOM     15  C   UNL     1      -4.642  11.098  18.039  0.00  0.00    +0.000 C 
ATOM     16  O   UNL     1      -3.627  11.961  18.543  0.00  0.00    +0.000 OA
ENDBRANCH   9  16
ENDBRANCH   1  12
BRANCH   5  17
ATOM     17  C   UNL     1       4.702   5.983  17.591  0.00  0.00    +0.000 A 
ATOM     18  C   UNL     1       4.764   4.937  16.630  0.00  0.00    +0.000 A 
ATOM     19  C   UNL     1       5.762   5.316  15.766  0.00  0.00    +0.000 A 
ATOM     20  C   UNL     1       6.364   4.734  14.554  0.00  0.00    +0.000 C 
ATOM     21  O   UNL     1       6.287   6.495  16.185  0.00  0.00    +0.000 OA
ATOM     22  N   UNL     1       5.656   6.897  17.343  0.00  0.00    +0.000 NA
ENDBRANCH   5  17
TORSDOF 3
ENDMDL
MODEL 4
REMARK VINA RESULT:      -6.6      3.404      8.804
REMARK  Name = 
REMARK  5 active torsions:
REMARK  status: ('A' for Active; 'I' for Inactive)
REMARK    1  A    between atoms: C_1  and  O_2
REMARK    2  A    between atoms: O_2  and  C_3
REMARK    3  A    between atoms: C_6  and  N_7
REMARK    4  A    between atoms: C_11  and  C_13
REMARK    5  A    between atoms: C_15  and  C_16
REMARK                            x       y       z     vdW  Elec       q    Type
REMARK                         _______ _______ _______ _____ _____    ______ ____
ROOT
ATOM      1  N   UNL     1       2.028   7.812  19.553  0.00  0.00    +0.000 N 
ATOM      2  C   UNL     1       2.197   8.763  18.435  0.00  0.00    +0.000 C 
ATOM      3  C   UNL     1       0.923   9.602  18.194  0.00  0.00    +0.000 C 
ATOM      4  N   UNL     1       0.397  10.159  19.446  0.00  0.00    +0.000 N 
ATOM      5  C   UNL     1       0.079  11.514  19.529  0.00  0.00    +0.000 C 
ATOM      6  O   UNL     1       0.082  12.230  18.527  0.00  0.00    +0.000 OA
ATOM      7  C   UNL     1       0.176   9.142  20.485  0.00  0.00    +0.000 C 
ATOM      8  C   UNL     1       1.481   8.392  20.797  0.00  0.00    +0.000 C 
ENDROOT
BRANCH   1  12
ATOM      9  C   UNL     1       2.212   3.612  19.134  0.00  0.00    +0.000 A 
ATOM     10  C   UNL     1       1.986   4.194  20.374  0.00  0.00    +0.000 A 
ATOM     11  C   UNL     1       1.923   5.587  20.500  0.00  0.00    +0.000 A 
ATOM     12  C   UNL     1       2.098   6.442  19.401  0.00  0.00    +0.000 A 
ATOM     13  C   UNL     1       2.360   5.830  18.170  0.00  0.00    +0.000 A 
ATOM     14  C   UNL     1       2.414   4.435  18.029  0.00  0.00    +0.000 A 
BRANCH   9  16
ATOM     15  C   UNL     1       3.417   1.674  18.541  0.00  0.00    +0.000 C 
ATOM     16  O   UNL     1       2.249   2.246  19.121  0.00  0.00    +0.000 OA
ENDBRANCH   9  16
ENDBRANCH   1  12
BRANCH   5  17
ATOM     17  C   UNL     1      -0.280  12.094  20.833  0.00  0.00    +0.000 A 
ATOM     18  C   UNL     1      -1.593  12.382  21.297  0.00  0.00    +0.000 A 
ATOM     19  C   UNL     1      -1.411  12.932  22.542  0.00  0.00    +0.000 A 
ATOM     20  C   UNL     1      -2.306  13.455  23.588  0.00  0.00    +0.000 C 
ATOM     21  O   UNL     1      -0.082  12.999  22.807  0.00  0.00    +0.000 OA
ATOM     22  N   UNL     1       0.630  12.512  21.730  0.00  0.00    +0.000 NA
ENDBRANCH   5  17
TORSDOF 3
ENDMDL
MODEL 5
REMARK VINA RESULT:      -6.6      3.463      8.761
REMARK  Name = 
REMARK  5 active torsions:
REMARK  status: ('A' for Active; 'I' for Inactive)
REMARK    1  A    between atoms: C_1  and  O_2
REMARK    2  A    between atoms: O_2  and  C_3
REMARK    3  A    between atoms: C_6  and  N_7
REMARK    4  A    between atoms: C_11  and  C_13
REMARK    5  A    between atoms: C_15  and  C_16
REMARK                            x       y       z     vdW  Elec       q    Type
REMARK                         _______ _______ _______ _____ _____    ______ ____
ROOT
ATOM      1  N   UNL     1       2.100   7.771  19.552  0.00  0.00    +0.000 N 
ATOM      2  C   UNL     1       2.307   8.661  18.391  0.00  0.00    +0.000 C 
ATOM      3  C   UNL     1       1.081   9.562  18.128  0.00  0.00    +0.000 C 
ATOM      4  N   UNL     1       0.608  10.203  19.361  0.00  0.00    +0.000 N 
ATOM      5  C   UNL     1       0.370  11.577  19.388  0.00  0.00    +0.000 C 
ATOM      6  O   UNL     1       0.400  12.246  18.355  0.00  0.00    +0.000 OA
ATOM      7  C   UNL     1       0.343   9.247  20.447  0.00  0.00    +0.000 C 
ATOM      8  C   UNL     1       1.607   8.436  20.776  0.00  0.00    +0.000 C 
ENDROOT
BRANCH   1  12
ATOM      9  C   UNL     1       2.094   3.558  19.225  0.00  0.00    +0.000 A 
ATOM     10  C   UNL     1       2.283   4.358  18.107  0.00  0.00    +0.000 A 
ATOM     11  C   UNL     1       2.287   5.754  18.227  0.00  0.00    +0.000 A 
ATOM     12  C   UNL     1       2.087   6.394  19.460  0.00  0.00    +0.000 A 
ATOM     13  C   UNL     1       1.863   5.564  20.565  0.00  0.00    +0.000 A 
ATOM     14  C   UNL     1       1.868   4.165  20.458  0.00  0.00    +0.000 A 
BRANCH   9  16
ATOM     15  C   UNL     1       3.369   1.679  18.590  0.00  0.00    +0.000 C 
ATOM     16  O   UNL     1       2.112   2.211  18.998  0.00  0.00    +0.000 OA
ENDBRANCH   9  16
ENDBRANCH   1  12
BRANCH   5  17
ATOM     17  C   UNL     1       0.066  12.234  20.669  0.00  0.00    +0.000 A 
ATOM     18  C   UNL     1      -1.224  12.414  21.240  0.00  0.00    +0.000 A 
ATOM     19  C   UNL     1      -0.996  13.097  22.410  0.00  0.00    +0.000 A 
ATOM     20  C   UNL     1      -1.847  13.613  23.495  0.00  0.00    +0.000 C 
ATOM     21  O   UNL     1       0.334  13.337  22.531  0.00  0.00    +0.000 OA
ATOM     22  N   UNL     1       0.997  12.834  21.430  0.00  0.00    +0.000 NA
ENDBRANCH   5  17
TORSDOF 3
ENDMDL
MODEL 6
REMARK VINA RESULT:      -6.6      2.327      2.979
REMARK  Name = 
REMARK  5 active torsions:
REMARK  status: ('A' for Active; 'I' for Inactive)
REMARK    1  A    between atoms: C_1  and  O_2
REMARK    2  A    between atoms: O_2  and  C_3
REMARK    3  A    between atoms: C_6  and  N_7
REMARK    4  A    between atoms: C_11  and  C_13
REMARK    5  A    between atoms: C_15  and  C_16
REMARK                            x       y       z     vdW  Elec       q    Type
REMARK                         _______ _______ _______ _____ _____    ______ ____
ROOT
ATOM      1  N   UNL     1       1.340   9.333  19.144  0.00  0.00    +0.000 N 
ATOM      2  C   UNL     1       1.744   8.533  20.318  0.00  0.00    +0.000 C 
ATOM      3  C   UNL     1       1.918   7.040  19.967  0.00  0.00    +0.000 C 
ATOM      4  N   UNL     1       2.723   6.861  18.753  0.00  0.00    +0.000 N 
ATOM      5  C   UNL     1       3.794   5.967  18.749  0.00  0.00    +0.000 C 
ATOM      6  O   UNL     1       3.989   5.206  19.697  0.00  0.00    +0.000 OA
ATOM      7  C   UNL     1       2.213   7.622  17.602  0.00  0.00    +0.000 C 
ATOM      8  C   UNL     1       2.153   9.123  17.928  0.00  0.00    +0.000 C 
ENDROOT
BRANCH   1  12
ATOM      9  C   UNL     1      -2.305  11.461  18.943  0.00  0.00    +0.000 A 
ATOM     10  C   UNL     1      -1.513  11.514  20.081  0.00  0.00    +0.000 A 
ATOM     11  C   UNL     1      -0.304  10.807  20.135  0.00  0.00    +0.000 A 
ATOM     12  C   UNL     1       0.143  10.016  19.066  0.00  0.00    +0.000 A 
ATOM     13  C   UNL     1      -0.693   9.951  17.945  0.00  0.00    +0.000 A 
ATOM     14  C   UNL     1      -1.900  10.664  17.875  0.00  0.00    +0.000 A 
BRANCH   9  16
ATOM     15  C   UNL     1      -4.602  11.563  18.418  0.00  0.00    +0.000 C 
ATOM     16  O   UNL     1      -3.459  12.189  18.993  0.00  0.00    +0.000 OA
ENDBRANCH   9  16
ENDBRANCH   1  12
BRANCH   5  17
ATOM     17  C   UNL     1       4.696   5.925  17.587  0.00  0.00    +0.000 A 
ATOM     18  C   UNL     1       4.756   4.903  16.601  0.00  0.00    +0.000 A 
ATOM     19  C   UNL     1       5.762   5.294  15.752  0.00  0.00    +0.000 A 
ATOM     20  C   UNL     1       6.366   4.737  14.530  0.00  0.00    +0.000 C 
ATOM     21  O   UNL     1       6.294   6.459  16.202  0.00  0.00    +0.000 OA
ATOM     22  N   UNL     1       5.659   6.838  17.367  0.00  0.00    +0.000 NA
ENDBRANCH   5  17
TORSDOF 3
ENDMDL
MODEL 7
REMARK VINA RESULT:      -6.3      1.827      2.580
REMARK  Name = 
REMARK  5 active torsions:
REMARK  status: ('A' for Active; 'I' for Inactive)
REMARK    1  A    between atoms: C_1  and  O_2
REMARK    2  A    between atoms: O_2  and  C_3
REMARK    3  A    between atoms: C_6  and  N_7
REMARK    4  A    between atoms: C_11  and  C_13
REMARK    5  A    between atoms: C_15  and  C_16
REMARK                            x       y       z     vdW  Elec       q    Type
REMARK                         _______ _______ _______ _____ _____    ______ ____
ROOT
ATOM      1  N   UNL     1       1.803   8.338  19.634  0.00  0.00    +0.000 N 
ATOM      2  C   UNL     1       1.883   7.394  20.768  0.00  0.00    +0.000 C 
ATOM      3  C   UNL     1       1.813   5.924  20.302  0.00  0.00    +0.000 C 
ATOM      4  N   UNL     1       2.724   5.669  19.180  0.00  0.00    +0.000 N 
ATOM      5  C   UNL     1       3.594   4.579  19.219  0.00  0.00    +0.000 C 
ATOM      6  O   UNL     1       3.509   3.731  20.108  0.00  0.00    +0.000 OA
ATOM      7  C   UNL     1       2.530   6.594  18.054  0.00  0.00    +0.000 C 
ATOM      8  C   UNL     1       2.717   8.050  18.509  0.00  0.00    +0.000 C 
ENDROOT
BRANCH   1  12
ATOM      9  C   UNL     1      -1.336  11.117  19.110  0.00  0.00    +0.000 A 
ATOM     10  C   UNL     1      -0.747  10.496  18.018  0.00  0.00    +0.000 A 
ATOM     11  C   UNL     1       0.291   9.573  18.203  0.00  0.00    +0.000 A 
ATOM     12  C   UNL     1       0.782   9.253  19.479  0.00  0.00    +0.000 A 
ATOM     13  C   UNL     1       0.194   9.921  20.559  0.00  0.00    +0.000 A 
ATOM     14  C   UNL     1      -0.853  10.839  20.386  0.00  0.00    +0.000 A 
BRANCH   9  16
ATOM     15  C   UNL     1      -3.368  11.488  17.972  0.00  0.00    +0.000 C 
ATOM     16  O   UNL     1      -2.341  11.995  18.819  0.00  0.00    +0.000 OA
ENDBRANCH   9  16
ENDBRANCH   1  12
BRANCH   5  17
ATOM     17  C   UNL     1       4.619   4.434  18.173  0.00  0.00    +0.000 A 
ATOM     18  C   UNL     1       4.389   4.162  16.797  0.00  0.00    +0.000 A 
ATOM     19  C   UNL     1       5.643   4.091  16.240  0.00  0.00    +0.000 A 
ATOM     20  C   UNL     1       6.166   3.846  14.886  0.00  0.00    +0.000 C 
ATOM     21  O   UNL     1       6.571   4.281  17.213  0.00  0.00    +0.000 OA
ATOM     22  N   UNL     1       5.939   4.458  18.426  0.00  0.00    +0.000 NA
ENDBRANCH   5  17
TORSDOF 3
ENDMDL
MODEL 8
REMARK VINA RESULT:      -6.3      1.687      2.240
REMARK  Name = 
REMARK  5 active torsions:
REMARK  status: ('A' for Active; 'I' for Inactive)
REMARK    1  A    between atoms: C_1  and  O_2
REMARK    2  A    between atoms: O_2  and  C_3
REMARK    3  A    between atoms: C_6  and  N_7
REMARK    4  A    between atoms: C_11  and  C_13
REMARK    5  A    between atoms: C_15  and  C_16
REMARK                            x       y       z     vdW  Elec       q    Type
REMARK                         _______ _______ _______ _____ _____    ______ ____
ROOT
ATOM      1  N   UNL     1       1.789   8.346  19.669  0.00  0.00    +0.000 N 
ATOM      2  C   UNL     1       1.846   7.391  20.794  0.00  0.00    +0.000 C 
ATOM      3  C   UNL     1       1.766   5.926  20.313  0.00  0.00    +0.000 C 
ATOM      4  N   UNL     1       2.688   5.672  19.199  0.00  0.00    +0.000 N 
ATOM      5  C   UNL     1       3.546   4.573  19.237  0.00  0.00    +0.000 C 
ATOM      6  O   UNL     1       3.442   3.718  20.117  0.00  0.00    +0.000 OA
ATOM      7  C   UNL     1       2.516   6.610  18.080  0.00  0.00    +0.000 C 
ATOM      8  C   UNL     1       2.713   8.060  18.552  0.00  0.00    +0.000 C 
ENDROOT
BRANCH   1  12
ATOM      9  C   UNL     1      -1.289  11.208  19.236  0.00  0.00    +0.000 A 
ATOM     10  C   UNL     1      -0.810  10.863  20.492  0.00  0.00    +0.000 A 
ATOM     11  C   UNL     1       0.213   9.916  20.624  0.00  0.00    +0.000 A 
ATOM     12  C   UNL     1       0.779   9.273  19.511  0.00  0.00    +0.000 A 
ATOM     13  C   UNL     1       0.253   9.613  18.260  0.00  0.00    +0.000 A 
ATOM     14  C   UNL     1      -0.765  10.569  18.115  0.00  0.00    +0.000 A 
BRANCH   9  16
ATOM     15  C   UNL     1      -2.506  12.819  20.453  0.00  0.00    +0.000 C 
ATOM     16  O   UNL     1      -2.283  12.145  19.219  0.00  0.00    +0.000 OA
ENDBRANCH   9  16
ENDBRANCH   1  12
BRANCH   5  17
ATOM     17  C   UNL     1       4.582   4.428  18.202  0.00  0.00    +0.000 A 
ATOM     18  C   UNL     1       4.366   4.157  16.823  0.00  0.00    +0.000 A 
ATOM     19  C   UNL     1       5.625   4.085  16.280  0.00  0.00    +0.000 A 
ATOM     20  C   UNL     1       6.162   3.840  14.931  0.00  0.00    +0.000 C 
ATOM     21  O   UNL     1       6.543   4.273  17.261  0.00  0.00    +0.000 OA
ATOM     22  N   UNL     1       5.899   4.451  18.469  0.00  0.00    +0.000 NA
ENDBRANCH   5  17
TORSDOF 3
ENDMDL
MODEL 9
REMARK VINA RESULT:      -6.2      1.937      2.656
REMARK  Name = 
REMARK  5 active torsions:
REMARK  status: ('A' for Active; 'I' for Inactive)
REMARK    1  A    between atoms: C_1  and  O_2
REMARK    2  A    between atoms: O_2  and  C_3
REMARK    3  A    between atoms: C_6  and  N_7
REMARK    4  A    between atoms: C_11  and  C_13
REMARK    5  A    between atoms: C_15  and  C_16
REMARK                            x       y       z     vdW  Elec       q    Type
REMARK                         _______ _______ _______ _____ _____    ______ ____
ROOT
ATOM      1  N   UNL     1       1.656   8.526  19.591  0.00  0.00    +0.000 N 
ATOM      2  C   UNL     1       1.826   7.675  20.786  0.00  0.00    +0.000 C 
ATOM      3  C   UNL     1       1.682   6.175  20.452  0.00  0.00    +0.000 C 
ATOM      4  N   UNL     1       2.477   5.806  19.274  0.00  0.00    +0.000 N 
ATOM      5  C   UNL     1       3.325   4.699  19.321  0.00  0.00    +0.000 C 
ATOM      6  O   UNL     1       3.308   3.928  20.281  0.00  0.00    +0.000 OA
ATOM      7  C   UNL     1       2.195   6.643  18.099  0.00  0.00    +0.000 C 
ATOM      8  C   UNL     1       2.453   8.125  18.414  0.00  0.00    +0.000 C 
ENDROOT
BRANCH   1  12
ATOM      9  C   UNL     1      -1.428  11.392  19.230  0.00  0.00    +0.000 A 
ATOM     10  C   UNL     1      -0.888  11.081  20.470  0.00  0.00    +0.000 A 
ATOM     11  C   UNL     1       0.137  10.132  20.578  0.00  0.00    +0.000 A 
ATOM     12  C   UNL     1       0.643   9.454  19.458  0.00  0.00    +0.000 A 
ATOM     13  C   UNL     1       0.056   9.760  18.225  0.00  0.00    +0.000 A 
ATOM     14  C   UNL     1      -0.964  10.717  18.104  0.00  0.00    +0.000 A 
BRANCH   9  16
ATOM     15  C   UNL     1      -3.697  11.876  18.808  0.00  0.00    +0.000 C 
ATOM     16  O   UNL     1      -2.418  12.333  19.236  0.00  0.00    +0.000 OA
ENDBRANCH   9  16
ENDBRANCH   1  12
BRANCH   5  17
ATOM     17  C   UNL     1       4.243   4.443  18.200  0.00  0.00    +0.000 A 
ATOM     18  C   UNL     1       5.487   5.090  17.962  0.00  0.00    +0.000 A 
ATOM     19  C   UNL     1       5.950   4.537  16.794  0.00  0.00    +0.000 A 
ATOM     20  C   UNL     1       7.153   4.719  15.963  0.00  0.00    +0.000 C 
ATOM     21  O   UNL     1       5.042   3.636  16.339  0.00  0.00    +0.000 OA
ATOM     22  N   UNL     1       3.959   3.601  17.191  0.00  0.00    +0.000 NA
ENDBRANCH   5  17
TORSDOF 3
ENDMDL
