MODEL 1
REMARK VINA RESULT:      -6.9      0.000      0.000
REMARK  Name = 
REMARK  7 active torsions:
REMARK  status: ('A' for Active; 'I' for Inactive)
REMARK    1  A    between atoms: C_1  and  O_2
REMARK    2  A    between atoms: O_2  and  C_3
REMARK    3  A    between atoms: C_6  and  C_7
REMARK    4  A    between atoms: N_13  and  C_14
REMARK    5  A    between atoms: C_14  and  C_15
REMARK    6  A    between atoms: C_22  and  C_23
REMARK    7  A    between atoms: C_22  and  C_24
REMARK                            x       y       z     vdW  Elec       q    Type
REMARK                         _______ _______ _______ _____ _____    ______ ____
ROOT
ATOM      1  C   UNL     1       1.123  11.470  19.110  0.00  0.00    +0.000 A 
ATOM      2  N   UNL     1       2.157  12.191  18.790  0.00  0.00    +0.000 NA
ATOM      3  C   UNL     1       2.157  13.561  18.808  0.00  0.00    +0.000 A 
ATOM      4  S   UNL     1       3.588  14.381  18.416  0.00  0.00    +0.000 S 
ATOM      5  C   UNL     1       0.879  14.234  19.198  0.00  0.00    +0.000 A 
ATOM      6  C   UNL     1      -0.172  13.458  19.529  0.00  0.00    +0.000 A 
ATOM      7  N   UNL     1      -0.102  12.046  19.496  0.00  0.00    +0.000 N 
ATOM      8  C   UNL     1      -1.457  14.152  19.949  0.00  0.00    +0.000 C 
ATOM      9  C   UNL     1      -1.237  15.600  20.426  0.00  0.00    +0.000 C 
ATOM     10  C   UNL     1      -0.578  15.664  21.814  0.00  0.00    +0.000 C 
ATOM     11  C   UNL     1      -2.592  16.316  20.497  0.00  0.00    +0.000 C 
ATOM     12  O   UNL     1      -0.468  16.289  19.438  0.00  0.00    +0.000 OA
ATOM     13  C   UNL     1       0.837  15.741  19.214  0.00  0.00    +0.000 C 
ENDROOT
BRANCH   1  17
ATOM     14  C   UNL     1       2.342   7.311  18.827  0.00  0.00    +0.000 A 
ATOM     15  C   UNL     1       1.780   7.785  20.008  0.00  0.00    +0.000 A 
ATOM     16  C   UNL     1       1.336   9.108  20.114  0.00  0.00    +0.000 A 
ATOM     17  C   UNL     1       1.416   9.979  19.028  0.00  0.00    +0.000 A 
ATOM     18  C   UNL     1       1.959   9.481  17.830  0.00  0.00    +0.000 A 
ATOM     19  C   UNL     1       2.424   8.162  17.729  0.00  0.00    +0.000 A 
BRANCH  14  21
ATOM     20  C   UNL     1       2.209   5.055  18.099  0.00  0.00    +0.000 C 
ATOM     21  O   UNL     1       2.836   6.041  18.906  0.00  0.00    +0.000 OA
ENDBRANCH  14  21
ENDBRANCH   1  17
BRANCH   7  22
ATOM     22  C   UNL     1      -1.314  11.239  19.751  0.00  0.00    +0.000 C 
BRANCH  22  23
ATOM     23  C   UNL     1      -2.139  10.958  18.510  0.00  0.00    +0.000 A 
ATOM     24  C   UNL     1      -1.738  10.111  17.467  0.00  0.00    +0.000 A 
ATOM     25  C   UNL     1      -2.541   9.961  16.339  0.00  0.00    +0.000 A 
ATOM     26  C   UNL     1      -3.735  10.657  16.289  0.00  0.00    +0.000 A 
ATOM     27  N   UNL     1      -4.161  11.480  17.269  0.00  0.00    +0.000 NA
ATOM     28  C   UNL     1      -3.357  11.614  18.348  0.00  0.00    +0.000 A 
ENDBRANCH  22  23
ENDBRANCH   7  22
TORSDOF 4
ENDMDL
MODEL 2
REMARK VINA RESULT:      -6.6      4.193      7.766
REMARK  Name = 
REMARK  7 active torsions:
REMARK  status: ('A' for Active; 'I' for Inactive)
REMARK    1  A    between atoms: C_1  and  O_2
REMARK    2  A    between atoms: O_2  and  C_3
REMARK    3  A    between atoms: C_6  and  C_7
REMARK    4  A    between atoms: N_13  and  C_14
REMARK    5  A    between atoms: C_14  and  C_15
REMARK    6  A    between atoms: C_22  and  C_23
REMARK    7  A    between atoms: C_22  and  C_24
REMARK                            x       y       z     vdW  Elec       q    Type
REMARK                         _______ _______ _______ _____ _____    ______ ____
ROOT
ATOM      1  C   UNL     1      -3.906  13.319  21.113  0.00  0.00    +0.000 A 
ATOM      2  N   UNL     1      -5.188  13.357  20.893  0.00  0.00    +0.000 NA
ATOM      3  C   UNL     1      -5.778  12.835  19.772  0.00  0.00    +0.000 A 
ATOM      4  S   UNL     1      -7.466  12.908  19.632  0.00  0.00    +0.000 S 
ATOM      5  C   UNL     1      -4.872  12.215  18.756  0.00  0.00    +0.000 A 
ATOM      6  C   UNL     1      -3.551  12.186  19.016  0.00  0.00    +0.000 A 
ATOM      7  N   UNL     1      -3.006  12.738  20.199  0.00  0.00    +0.000 N 
ATOM      8  C   UNL     1      -2.644  11.529  17.989  0.00  0.00    +0.000 C 
ATOM      9  C   UNL     1      -3.387  10.553  17.058  0.00  0.00    +0.000 C 
ATOM     10  C   UNL     1      -3.771   9.244  17.769  0.00  0.00    +0.000 C 
ATOM     11  C   UNL     1      -2.485  10.212  15.865  0.00  0.00    +0.000 C 
ATOM     12  O   UNL     1      -4.530  11.222  16.522  0.00  0.00    +0.000 OA
ATOM     13  C   UNL     1      -5.486  11.643  17.503  0.00  0.00    +0.000 C 
ENDROOT
BRANCH   1  17
ATOM     14  C   UNL     1      -2.629  14.783  24.997  0.00  0.00    +0.000 A 
ATOM     15  C   UNL     1      -2.242  15.460  23.844  0.00  0.00    +0.000 A 
ATOM     16  C   UNL     1      -2.675  15.038  22.582  0.00  0.00    +0.000 A 
ATOM     17  C   UNL     1      -3.533  13.947  22.447  0.00  0.00    +0.000 A 
ATOM     18  C   UNL     1      -3.942  13.289  23.621  0.00  0.00    +0.000 A 
ATOM     19  C   UNL     1      -3.491  13.696  24.885  0.00  0.00    +0.000 A 
BRANCH  14  21
ATOM     20  C   UNL     1      -0.942  16.125  25.993  0.00  0.00    +0.000 C 
ATOM     21  O   UNL     1      -2.038  15.233  26.141  0.00  0.00    +0.000 OA
ENDBRANCH  14  21
ENDBRANCH   1  17
BRANCH   7  22
ATOM     22  C   UNL     1      -1.541  12.789  20.385  0.00  0.00    +0.000 C 
BRANCH  22  23
ATOM     23  C   UNL     1      -0.973  11.596  21.127  0.00  0.00    +0.000 A 
ATOM     24  C   UNL     1      -0.571  10.400  20.515  0.00  0.00    +0.000 A 
ATOM     25  C   UNL     1      -0.114   9.336  21.289  0.00  0.00    +0.000 A 
ATOM     26  C   UNL     1      -0.061   9.501  22.661  0.00  0.00    +0.000 A 
ATOM     27  N   UNL     1      -0.435  10.633  23.292  0.00  0.00    +0.000 NA
ATOM     28  C   UNL     1      -0.882  11.646  22.516  0.00  0.00    +0.000 A 
ENDBRANCH  22  23
ENDBRANCH   7  22
TORSDOF 4
ENDMDL
MODEL 3
REMARK VINA RESULT:      -6.5      3.712      7.934
REMARK  Name = 
REMARK  7 active torsions:
REMARK  status: ('A' for Active; 'I' for Inactive)
REMARK    1  A    between atoms: C_1  and  O_2
REMARK    2  A    between atoms: O_2  and  C_3
REMARK    3  A    between atoms: C_6  and  C_7
REMARK    4  A    between atoms: N_13  and  C_14
REMARK    5  A    between atoms: C_14  and  C_15
REMARK    6  A    between atoms: C_22  and  C_23
REMARK    7  A    between atoms: C_22  and  C_24
REMARK                            x       y       z     vdW  Elec       q    Type
REMARK                         _______ _______ _______ _____ _____    ______ ____
ROOT
ATOM      1  C   UNL     1       1.762   6.889  20.213  0.00  0.00    +0.000 A 
ATOM      2  N   UNL     1       1.563   5.641  20.521  0.00  0.00    +0.000 NA
ATOM      3  C   UNL     1       2.086   4.594  19.808  0.00  0.00    +0.000 A 
ATOM      4  S   UNL     1       1.790   3.014  20.346  0.00  0.00    +0.000 S 
ATOM      5  C   UNL     1       2.906   4.936  18.604  0.00  0.00    +0.000 A 
ATOM      6  C   UNL     1       3.098   6.238  18.315  0.00  0.00    +0.000 A 
ATOM      7  N   UNL     1       2.534   7.272  19.099  0.00  0.00    +0.000 N 
ATOM      8  C   UNL     1       3.955   6.574  17.106  0.00  0.00    +0.000 C 
ATOM      9  C   UNL     1       4.889   5.425  16.686  0.00  0.00    +0.000 C 
ATOM     10  C   UNL     1       6.070   5.247  17.654  0.00  0.00    +0.000 C 
ATOM     11  C   UNL     1       5.446   5.716  15.287  0.00  0.00    +0.000 C 
ATOM     12  O   UNL     1       4.111   4.231  16.569  0.00  0.00    +0.000 OA
ATOM     13  C   UNL     1       3.485   3.810  17.787  0.00  0.00    +0.000 C 
ENDROOT
BRANCH   1  17
ATOM     14  C   UNL     1       0.006   9.895  22.808  0.00  0.00    +0.000 A 
ATOM     15  C   UNL     1      -0.820   9.089  22.030  0.00  0.00    +0.000 A 
ATOM     16  C   UNL     1      -0.285   8.082  21.219  0.00  0.00    +0.000 A 
ATOM     17  C   UNL     1       1.087   7.837  21.192  0.00  0.00    +0.000 A 
ATOM     18  C   UNL     1       1.910   8.637  22.005  0.00  0.00    +0.000 A 
ATOM     19  C   UNL     1       1.378   9.662  22.802  0.00  0.00    +0.000 A 
BRANCH  14  21
ATOM     20  C   UNL     1      -1.342  11.843  22.651  0.00  0.00    +0.000 C 
ATOM     21  O   UNL     1      -0.640  10.908  23.456  0.00  0.00    +0.000 OA
ENDBRANCH  14  21
ENDBRANCH   1  17
BRANCH   7  22
ATOM     22  C   UNL     1       2.672   8.681  18.675  0.00  0.00    +0.000 C 
BRANCH  22  23
ATOM     23  C   UNL     1       1.351   9.406  18.510  0.00  0.00    +0.000 A 
ATOM     24  C   UNL     1       0.296   8.958  17.702  0.00  0.00    +0.000 A 
ATOM     25  C   UNL     1      -0.860   9.724  17.570  0.00  0.00    +0.000 A 
ATOM     26  C   UNL     1      -0.934  10.919  18.262  0.00  0.00    +0.000 A 
ATOM     27  N   UNL     1       0.054  11.388  19.052  0.00  0.00    +0.000 NA
ATOM     28  C   UNL     1       1.167  10.627  19.154  0.00  0.00    +0.000 A 
ENDBRANCH  22  23
ENDBRANCH   7  22
TORSDOF 4
ENDMDL
MODEL 4
REMARK VINA RESULT:      -6.5      3.778      5.312
REMARK  Name = 
REMARK  7 active torsions:
REMARK  status: ('A' for Active; 'I' for Inactive)
REMARK    1  A    between atoms: C_1  and  O_2
REMARK    2  A    between atoms: O_2  and  C_3
REMARK    3  A    between atoms: C_6  and  C_7
REMARK    4  A    between atoms: N_13  and  C_14
REMARK    5  A    between atoms: C_14  and  C_15
REMARK    6  A    between atoms: C_22  and  C_23
REMARK    7  A    between atoms: C_22  and  C_24
REMARK                            x       y       z     vdW  Elec       q    Type
REMARK                         _______ _______ _______ _____ _____    ______ ____
ROOT
ATOM      1  C   UNL     1      -2.639  11.748  18.921  0.00  0.00    +0.000 A 
ATOM      2  N   UNL     1      -1.392  11.667  19.285  0.00  0.00    +0.000 NA
ATOM      3  C   UNL     1      -0.916  12.174  20.465  0.00  0.00    +0.000 A 
ATOM      4  S   UNL     1       0.723  11.957  20.841  0.00  0.00    +0.000 S 
ATOM      5  C   UNL     1      -1.900  12.870  21.351  0.00  0.00    +0.000 A 
ATOM      6  C   UNL     1      -3.184  12.931  20.948  0.00  0.00    +0.000 A 
ATOM      7  N   UNL     1      -3.612  12.381  19.718  0.00  0.00    +0.000 N 
ATOM      8  C   UNL     1      -4.180  13.617  21.868  0.00  0.00    +0.000 C 
ATOM      9  C   UNL     1      -3.704  13.692  23.331  0.00  0.00    +0.000 C 
ATOM     10  C   UNL     1      -3.770  12.329  24.038  0.00  0.00    +0.000 C 
ATOM     11  C   UNL     1      -4.591  14.682  24.098  0.00  0.00    +0.000 C 
ATOM     12  O   UNL     1      -2.383  14.238  23.348  0.00  0.00    +0.000 OA
ATOM     13  C   UNL     1      -1.408  13.453  22.651  0.00  0.00    +0.000 C 
ENDROOT
BRANCH   1  17
ATOM     14  C   UNL     1      -3.221  10.167  14.918  0.00  0.00    +0.000 A 
ATOM     15  C   UNL     1      -2.310   9.555  15.775  0.00  0.00    +0.000 A 
ATOM     16  C   UNL     1      -2.135  10.014  17.085  0.00  0.00    +0.000 A 
ATOM     17  C   UNL     1      -2.890  11.077  17.579  0.00  0.00    +0.000 A 
ATOM     18  C   UNL     1      -3.829  11.669  16.714  0.00  0.00    +0.000 A 
ATOM     19  C   UNL     1      -3.990  11.224  15.394  0.00  0.00    +0.000 A 
BRANCH  14  21
ATOM     20  C   UNL     1      -4.405   9.799  12.893  0.00  0.00    +0.000 C 
ATOM     21  O   UNL     1      -3.202   9.690  13.640  0.00  0.00    +0.000 OA
ENDBRANCH  14  21
ENDBRANCH   1  17
BRANCH   7  22
ATOM     22  C   UNL     1      -5.005  12.577  19.264  0.00  0.00    +0.000 C 
BRANCH  22  23
ATOM     23  C   UNL     1      -5.955  11.479  19.700  0.00  0.00    +0.000 A 
ATOM     24  C   UNL     1      -6.178  10.294  18.984  0.00  0.00    +0.000 A 
ATOM     25  C   UNL     1      -7.115   9.368  19.438  0.00  0.00    +0.000 A 
ATOM     26  C   UNL     1      -7.798   9.648  20.607  0.00  0.00    +0.000 A 
ATOM     27  N   UNL     1      -7.614  10.773  21.328  0.00  0.00    +0.000 NA
ATOM     28  C   UNL     1      -6.705  11.658  20.860  0.00  0.00    +0.000 A 
ENDBRANCH  22  23
ENDBRANCH   7  22
TORSDOF 4
ENDMDL
MODEL 5
REMARK VINA RESULT:      -6.4      1.072      1.306
REMARK  Name = 
REMARK  7 active torsions:
REMARK  status: ('A' for Active; 'I' for Inactive)
REMARK    1  A    between atoms: C_1  and  O_2
REMARK    2  A    between atoms: O_2  and  C_3
REMARK    3  A    between atoms: C_6  and  C_7
REMARK    4  A    between atoms: N_13  and  C_14
REMARK    5  A    between atoms: C_14  and  C_15
REMARK    6  A    between atoms: C_22  and  C_23
REMARK    7  A    between atoms: C_22  and  C_24
REMARK                            x       y       z     vdW  Elec       q    Type
REMARK                         _______ _______ _______ _____ _____    ______ ____
ROOT
ATOM      1  C   UNL     1       0.766  11.246  19.464  0.00  0.00    +0.000 A 
ATOM      2  N   UNL     1       1.747  12.101  19.478  0.00  0.00    +0.000 NA
ATOM      3  C   UNL     1       1.581  13.437  19.731  0.00  0.00    +0.000 A 
ATOM      4  S   UNL     1       2.952  14.434  19.768  0.00  0.00    +0.000 S 
ATOM      5  C   UNL     1       0.184  13.912  19.978  0.00  0.00    +0.000 A 
ATOM      6  C   UNL     1      -0.808  13.001  19.963  0.00  0.00    +0.000 A 
ATOM      7  N   UNL     1      -0.568  11.633  19.701  0.00  0.00    +0.000 N 
ATOM      8  C   UNL     1      -2.219  13.491  20.242  0.00  0.00    +0.000 C 
ATOM      9  C   UNL     1      -2.259  14.835  20.994  0.00  0.00    +0.000 C 
ATOM     10  C   UNL     1      -1.861  14.689  22.472  0.00  0.00    +0.000 C 
ATOM     11  C   UNL     1      -3.680  15.407  20.926  0.00  0.00    +0.000 C 
ATOM     12  O   UNL     1      -1.417  15.762  20.306  0.00  0.00    +0.000 OA
ATOM     13  C   UNL     1      -0.037  15.379  20.245  0.00  0.00    +0.000 C 
ENDROOT
BRANCH   1  17
ATOM     14  C   UNL     1       2.492   7.352  18.620  0.00  0.00    +0.000 A 
ATOM     15  C   UNL     1       1.925   7.599  19.867  0.00  0.00    +0.000 A 
ATOM     16  C   UNL     1       1.321   8.828  20.152  0.00  0.00    +0.000 A 
ATOM     17  C   UNL     1       1.242   9.829  19.185  0.00  0.00    +0.000 A 
ATOM     18  C   UNL     1       1.793   9.559  17.919  0.00  0.00    +0.000 A 
ATOM     19  C   UNL     1       2.418   8.336  17.638  0.00  0.00    +0.000 A 
BRANCH  14  21
ATOM     20  C   UNL     1       3.109   5.309  19.660  0.00  0.00    +0.000 C 
ATOM     21  O   UNL     1       3.146   6.159  18.523  0.00  0.00    +0.000 OA
ENDBRANCH  14  21
ENDBRANCH   1  17
BRANCH   7  22
ATOM     22  C   UNL     1      -1.701  10.692  19.576  0.00  0.00    +0.000 C 
BRANCH  22  23
ATOM     23  C   UNL     1      -2.379  10.723  18.221  0.00  0.00    +0.000 A 
ATOM     24  C   UNL     1      -3.578  11.398  17.949  0.00  0.00    +0.000 A 
ATOM     25  C   UNL     1      -4.154  11.320  16.683  0.00  0.00    +0.000 A 
ATOM     26  C   UNL     1      -3.507  10.575  15.715  0.00  0.00    +0.000 A 
ATOM     27  N   UNL     1      -2.351   9.912  15.931  0.00  0.00    +0.000 NA
ATOM     28  C   UNL     1      -1.820   9.998  17.171  0.00  0.00    +0.000 A 
ENDBRANCH  22  23
ENDBRANCH   7  22
TORSDOF 4
ENDMDL
MODEL 6
REMARK VINA RESULT:      -6.3      1.438      1.836
REMARK  Name = 
REMARK  7 active torsions:
REMARK  status: ('A' for Active; 'I' for Inactive)
REMARK    1  A    between atoms: C_1  and  O_2
REMARK    2  A    between atoms: O_2  and  C_3
REMARK    3  A    between atoms: C_6  and  C_7
REMARK    4  A    between atoms: N_13  and  C_14
REMARK    5  A    between atoms: C_14  and  C_15
REMARK    6  A    between atoms: C_22  and  C_23
REMARK    7  A    between atoms: C_22  and  C_24
REMARK                            x       y       z     vdW  Elec       q    Type
REMARK                         _______ _______ _______ _____ _____    ______ ____
ROOT
ATOM      1  C   UNL     1       0.428  11.386  19.580  0.00  0.00    +0.000 A 
ATOM      2  N   UNL     1       1.224  12.404  19.732  0.00  0.00    +0.000 NA
ATOM      3  C   UNL     1       0.791  13.659  20.068  0.00  0.00    +0.000 A 
ATOM      4  S   UNL     1       1.940  14.886  20.284  0.00  0.00    +0.000 S 
ATOM      5  C   UNL     1      -0.684  13.843  20.242  0.00  0.00    +0.000 A 
ATOM      6  C   UNL     1      -1.481  12.768  20.083  0.00  0.00    +0.000 A 
ATOM      7  N   UNL     1      -0.967  11.496  19.741  0.00  0.00    +0.000 N 
ATOM      8  C   UNL     1      -2.974  12.961  20.289  0.00  0.00    +0.000 C 
ATOM      9  C   UNL     1      -3.316  14.203  21.132  0.00  0.00    +0.000 C 
ATOM     10  C   UNL     1      -2.990  14.006  22.622  0.00  0.00    +0.000 C 
ATOM     11  C   UNL     1      -4.814  14.506  20.998  0.00  0.00    +0.000 C 
ATOM     12  O   UNL     1      -2.626  15.327  20.581  0.00  0.00    +0.000 OA
ATOM     13  C   UNL     1      -1.198  15.214  20.599  0.00  0.00    +0.000 C 
ENDROOT
BRANCH   1  17
ATOM     14  C   UNL     1       2.238   7.553  18.635  0.00  0.00    +0.000 A 
ATOM     15  C   UNL     1       2.215   8.560  17.674  0.00  0.00    +0.000 A 
ATOM     16  C   UNL     1       1.680   9.820  17.965  0.00  0.00    +0.000 A 
ATOM     17  C   UNL     1       1.184  10.112  19.234  0.00  0.00    +0.000 A 
ATOM     18  C   UNL     1       1.238   9.097  20.206  0.00  0.00    +0.000 A 
ATOM     19  C   UNL     1       1.754   7.827  19.911  0.00  0.00    +0.000 A 
BRANCH  14  21
ATOM     20  C   UNL     1       3.996   6.301  17.645  0.00  0.00    +0.000 C 
ATOM     21  O   UNL     1       2.680   6.346  18.178  0.00  0.00    +0.000 OA
ENDBRANCH  14  21
ENDBRANCH   1  17
BRANCH   7  22
ATOM     22  C   UNL     1      -1.889  10.376  19.461  0.00  0.00    +0.000 C 
BRANCH  22  23
ATOM     23  C   UNL     1      -2.499  10.414  18.073  0.00  0.00    +0.000 A 
ATOM     24  C   UNL     1      -1.861   9.949  16.914  0.00  0.00    +0.000 A 
ATOM     25  C   UNL     1      -2.480  10.079  15.674  0.00  0.00    +0.000 A 
ATOM     26  C   UNL     1      -3.733  10.664  15.626  0.00  0.00    +0.000 A 
ATOM     27  N   UNL     1      -4.384  11.122  16.715  0.00  0.00    +0.000 NA
ATOM     28  C   UNL     1      -3.756  10.990  17.905  0.00  0.00    +0.000 A 
ENDBRANCH  22  23
ENDBRANCH   7  22
TORSDOF 4
ENDMDL
MODEL 7
REMARK VINA RESULT:      -6.2      3.645      5.935
REMARK  Name = 
REMARK  7 active torsions:
REMARK  status: ('A' for Active; 'I' for Inactive)
REMARK    1  A    between atoms: C_1  and  O_2
REMARK    2  A    between atoms: O_2  and  C_3
REMARK    3  A    between atoms: C_6  and  C_7
REMARK    4  A    between atoms: N_13  and  C_14
REMARK    5  A    between atoms: C_14  and  C_15
REMARK    6  A    between atoms: C_22  and  C_23
REMARK    7  A    between atoms: C_22  and  C_24
REMARK                            x       y       z     vdW  Elec       q    Type
REMARK                         _______ _______ _______ _____ _____    ______ ____
ROOT
ATOM      1  C   UNL     1      -3.681  11.904  19.382  0.00  0.00    +0.000 A 
ATOM      2  N   UNL     1      -4.911  11.931  19.806  0.00  0.00    +0.000 NA
ATOM      3  C   UNL     1      -5.289  12.508  20.990  0.00  0.00    +0.000 A 
ATOM      4  S   UNL     1      -6.934  12.518  21.401  0.00  0.00    +0.000 S 
ATOM      5  C   UNL     1      -4.206  13.111  21.827  0.00  0.00    +0.000 A 
ATOM      6  C   UNL     1      -2.944  13.072  21.357  0.00  0.00    +0.000 A 
ATOM      7  N   UNL     1      -2.622  12.465  20.121  0.00  0.00    +0.000 N 
ATOM      8  C   UNL     1      -1.856  13.712  22.204  0.00  0.00    +0.000 C 
ATOM      9  C   UNL     1      -2.397  14.745  23.209  0.00  0.00    +0.000 C 
ATOM     10  C   UNL     1      -2.835  16.051  22.527  0.00  0.00    +0.000 C 
ATOM     11  C   UNL     1      -1.301  15.073  24.231  0.00  0.00    +0.000 C 
ATOM     12  O   UNL     1      -3.465  14.143  23.944  0.00  0.00    +0.000 OA
ATOM     13  C   UNL     1      -4.584  13.743  23.143  0.00  0.00    +0.000 C 
ENDROOT
BRANCH   1  17
ATOM     14  C   UNL     1      -3.192  10.316  15.371  0.00  0.00    +0.000 A 
ATOM     15  C   UNL     1      -2.426   9.802  16.413  0.00  0.00    +0.000 A 
ATOM     16  C   UNL     1      -2.594  10.262  17.724  0.00  0.00    +0.000 A 
ATOM     17  C   UNL     1      -3.555  11.225  18.027  0.00  0.00    +0.000 A 
ATOM     18  C   UNL     1      -4.344  11.716  16.971  0.00  0.00    +0.000 A 
ATOM     19  C   UNL     1      -4.162  11.272  15.653  0.00  0.00    +0.000 A 
BRANCH  14  21
ATOM     20  C   UNL     1      -3.846   9.873  13.131  0.00  0.00    +0.000 C 
ATOM     21  O   UNL     1      -2.840   9.860  14.133  0.00  0.00    +0.000 OA
ENDBRANCH  14  21
ENDBRANCH   1  17
BRANCH   7  22
ATOM     22  C   UNL     1      -1.209  12.341  19.704  0.00  0.00    +0.000 C 
BRANCH  22  23
ATOM     23  C   UNL     1      -0.533  11.074  20.191  0.00  0.00    +0.000 A 
ATOM     24  C   UNL     1      -0.768  10.480  21.440  0.00  0.00    +0.000 A 
ATOM     25  C   UNL     1      -0.056   9.346  21.821  0.00  0.00    +0.000 A 
ATOM     26  C   UNL     1       0.870   8.826  20.935  0.00  0.00    +0.000 A 
ATOM     27  N   UNL     1       1.127   9.363  19.723  0.00  0.00    +0.000 NA
ATOM     28  C   UNL     1       0.426  10.468  19.383  0.00  0.00    +0.000 A 
ENDBRANCH  22  23
ENDBRANCH   7  22
TORSDOF 4
ENDMDL
MODEL 8
REMARK VINA RESULT:      -6.2      0.434      1.003
REMARK  Name = 
REMARK  7 active torsions:
REMARK  status: ('A' for Active; 'I' for Inactive)
REMARK    1  A    between atoms: C_1  and  O_2
REMARK    2  A    between atoms: O_2  and  C_3
REMARK    3  A    between atoms: C_6  and  C_7
REMARK    4  A    between atoms: N_13  and  C_14
REMARK    5  A    between atoms: C_14  and  C_15
REMARK    6  A    between atoms: C_22  and  C_23
REMARK    7  A    between atoms: C_22  and  C_24
REMARK                            x       y       z     vdW  Elec       q    Type
REMARK                         _______ _______ _______ _____ _____    ______ ____
ROOT
ATOM      1  C   UNL     1       1.241  11.724  19.079  0.00  0.00    +0.000 A 
ATOM      2  N   UNL     1       2.199  12.534  18.736  0.00  0.00    +0.000 NA
ATOM      3  C   UNL     1       2.079  13.899  18.758  0.00  0.00    +0.000 A 
ATOM      4  S   UNL     1       3.423  14.841  18.333  0.00  0.00    +0.000 S 
ATOM      5  C   UNL     1       0.757  14.456  19.183  0.00  0.00    +0.000 A 
ATOM      6  C   UNL     1      -0.212  13.591  19.537  0.00  0.00    +0.000 A 
ATOM      7  N   UNL     1      -0.020  12.191  19.498  0.00  0.00    +0.000 N 
ATOM      8  C   UNL     1      -1.542  14.170  19.993  0.00  0.00    +0.000 C 
ATOM      9  C   UNL     1      -1.438  15.630  20.469  0.00  0.00    +0.000 C 
ATOM     10  C   UNL     1      -0.751  15.751  21.839  0.00  0.00    +0.000 C 
ATOM     11  C   UNL     1      -2.847  16.226  20.576  0.00  0.00    +0.000 C 
ATOM     12  O   UNL     1      -0.757  16.385  19.464  0.00  0.00    +0.000 OA
ATOM     13  C   UNL     1       0.585  15.954  19.205  0.00  0.00    +0.000 C 
ENDROOT
BRANCH   1  17
ATOM     14  C   UNL     1       2.056   7.464  18.878  0.00  0.00    +0.000 A 
ATOM     15  C   UNL     1       2.254   8.257  17.752  0.00  0.00    +0.000 A 
ATOM     16  C   UNL     1       2.044   9.640  17.800  0.00  0.00    +0.000 A 
ATOM     17  C   UNL     1       1.660  10.265  18.985  0.00  0.00    +0.000 A 
ATOM     18  C   UNL     1       1.492   9.458  20.125  0.00  0.00    +0.000 A 
ATOM     19  C   UNL     1       1.681   8.070  20.074  0.00  0.00    +0.000 A 
BRANCH  14  21
ATOM     20  C   UNL     1       2.446   5.304  19.786  0.00  0.00    +0.000 C 
ATOM     21  O   UNL     1       2.185   6.124  18.655  0.00  0.00    +0.000 OA
ENDBRANCH  14  21
ENDBRANCH   1  17
BRANCH   7  22
ATOM     22  C   UNL     1      -1.150  11.280  19.781  0.00  0.00    +0.000 C 
BRANCH  22  23
ATOM     23  C   UNL     1      -1.994  10.952  18.565  0.00  0.00    +0.000 A 
ATOM     24  C   UNL     1      -1.591  10.099  17.528  0.00  0.00    +0.000 A 
ATOM     25  C   UNL     1      -2.416   9.903  16.422  0.00  0.00    +0.000 A 
ATOM     26  C   UNL     1      -3.632  10.561  16.389  0.00  0.00    +0.000 A 
ATOM     27  N   UNL     1      -4.061  11.388  17.365  0.00  0.00    +0.000 NA
ATOM     28  C   UNL     1      -3.237  11.565  18.422  0.00  0.00    +0.000 A 
ENDBRANCH  22  23
ENDBRANCH   7  22
TORSDOF 4
ENDMDL
MODEL 9
REMARK VINA RESULT:      -6.1      4.003      6.099
REMARK  Name = 
REMARK  7 active torsions:
REMARK  status: ('A' for Active; 'I' for Inactive)
REMARK    1  A    between atoms: C_1  and  O_2
REMARK    2  A    between atoms: O_2  and  C_3
REMARK    3  A    between atoms: C_6  and  C_7
REMARK    4  A    between atoms: N_13  and  C_14
REMARK    5  A    between atoms: C_14  and  C_15
REMARK    6  A    between atoms: C_22  and  C_23
REMARK    7  A    between atoms: C_22  and  C_24
REMARK                            x       y       z     vdW  Elec       q    Type
REMARK                         _______ _______ _______ _____ _____    ______ ____
ROOT
ATOM      1  C   UNL     1      -3.395  12.527  20.302  0.00  0.00    +0.000 A 
ATOM      2  N   UNL     1      -4.661  12.637  20.578  0.00  0.00    +0.000 NA
ATOM      3  C   UNL     1      -5.136  13.221  21.723  0.00  0.00    +0.000 A 
ATOM      4  S   UNL     1      -6.814  13.344  21.938  0.00  0.00    +0.000 S 
ATOM      5  C   UNL     1      -4.121  13.730  22.696  0.00  0.00    +0.000 A 
ATOM      6  C   UNL     1      -2.818  13.606  22.377  0.00  0.00    +0.000 A 
ATOM      7  N   UNL     1      -2.394  12.997  21.174  0.00  0.00    +0.000 N 
ATOM      8  C   UNL     1      -1.796  14.151  23.362  0.00  0.00    +0.000 C 
ATOM      9  C   UNL     1      -2.379  15.205  24.322  0.00  0.00    +0.000 C 
ATOM     10  C   UNL     1      -2.641  16.550  23.625  0.00  0.00    +0.000 C 
ATOM     11  C   UNL     1      -1.393  15.436  25.473  0.00  0.00    +0.000 C 
ATOM     12  O   UNL     1      -3.567  14.670  24.910  0.00  0.00    +0.000 OA
ATOM     13  C   UNL     1      -4.608  14.366  23.973  0.00  0.00    +0.000 C 
ENDROOT
BRANCH   1  17
ATOM     14  C   UNL     1      -2.765  10.279  16.640  0.00  0.00    +0.000 A 
ATOM     15  C   UNL     1      -3.853  11.141  16.741  0.00  0.00    +0.000 A 
ATOM     16  C   UNL     1      -4.056  11.913  17.890  0.00  0.00    +0.000 A 
ATOM     17  C   UNL     1      -3.156  11.862  18.954  0.00  0.00    +0.000 A 
ATOM     18  C   UNL     1      -2.044  11.010  18.830  0.00  0.00    +0.000 A 
ATOM     19  C   UNL     1      -1.851  10.220  17.687  0.00  0.00    +0.000 A 
BRANCH  14  21
ATOM     20  C   UNL     1      -3.323  10.074  14.341  0.00  0.00    +0.000 C 
ATOM     21  O   UNL     1      -2.759   9.507  15.515  0.00  0.00    +0.000 OA
ENDBRANCH  14  21
ENDBRANCH   1  17
BRANCH   7  22
ATOM     22  C   UNL     1      -0.954  12.777  20.923  0.00  0.00    +0.000 C 
BRANCH  22  23
ATOM     23  C   UNL     1      -0.403  11.520  21.567  0.00  0.00    +0.000 A 
ATOM     24  C   UNL     1      -1.023  10.832  22.620  0.00  0.00    +0.000 A 
ATOM     25  C   UNL     1      -0.409   9.716  23.184  0.00  0.00    +0.000 A 
ATOM     26  C   UNL     1       0.809   9.310  22.670  0.00  0.00    +0.000 A 
ATOM     27  N   UNL     1       1.439   9.939  21.657  0.00  0.00    +0.000 NA
ATOM     28  C   UNL     1       0.825  11.024  21.135  0.00  0.00    +0.000 A 
ENDBRANCH  22  23
ENDBRANCH   7  22
TORSDOF 4
ENDMDL
