MODEL 1
REMARK VINA RESULT:      -8.7      0.000      0.000
REMARK  Name = 
REMARK  7 active torsions:
REMARK  status: ('A' for Active; 'I' for Inactive)
REMARK    1  A    between atoms: C_1  and  C_2
REMARK    2  A    between atoms: C_4  and  N_5
REMARK    3  A    between atoms: C_12  and  O_13
REMARK    4  A    between atoms: O_13  and  C_14
REMARK    5  A    between atoms: C_14  and  C_15
REMARK    6  A    between atoms: C_22  and  O_23
REMARK    7  A    between atoms: C_24  and  O_25
REMARK                            x       y       z     vdW  Elec       q    Type
REMARK                         _______ _______ _______ _____ _____    ______ ____
ROOT
ATOM      1  N   UNL     1       4.687   4.372  18.019  0.00  0.00    +0.000 N 
ATOM      2  C   UNL     1       4.378   3.616  16.913  0.00  0.00    +0.000 A 
ATOM      3  N   UNL     1       5.140   3.901  15.884  0.00  0.00    +0.000 NA
ATOM      4  C   UNL     1       5.990   4.880  16.347  0.00  0.00    +0.000 A 
ATOM      5  C   UNL     1       7.038   5.570  15.719  0.00  0.00    +0.000 A 
ATOM      6  N   UNL     1       7.369   5.353  14.385  0.00  0.00    +0.000 N 
ATOM      7  N   UNL     1       7.769   6.445  16.445  0.00  0.00    +0.000 NA
ATOM      8  C   UNL     1       7.436   6.650  17.740  0.00  0.00    +0.000 A 
ATOM      9  N   UNL     1       6.427   6.066  18.431  0.00  0.00    +0.000 NA
ATOM     10  C   UNL     1       5.747   5.184  17.677  0.00  0.00    +0.000 A 
ATOM     11  H   UNL     1       7.005   4.479  14.026  0.00  0.00    +0.000 HD
ATOM     12  H   UNL     1       8.329   5.583  14.183  0.00  0.00    +0.000 HD
ENDROOT
BRANCH   1  16
ATOM     13  C   UNL     1       1.334   2.292  18.932  0.00  0.00    +0.000 C 
ATOM     14  C   UNL     1       2.250   2.864  20.001  0.00  0.00    +0.000 C 
ATOM     15  O   UNL     1       3.602   2.882  19.498  0.00  0.00    +0.000 OA
ATOM     16  C   UNL     1       3.992   4.253  19.283  0.00  0.00    +0.000 C 
ATOM     17  C   UNL     1       2.760   5.137  19.447  0.00  0.00    +0.000 C 
ATOM     18  C   UNL     1       1.907   4.301  20.388  0.00  0.00    +0.000 C 
BRANCH  17  19
ATOM     19  O   UNL     1       3.079   6.408  20.025  0.00  0.00    +0.000 OA
ATOM     20  H   UNL     1       3.969   6.643  19.685  0.00  0.00    +0.000 HD
ENDBRANCH  17  19
BRANCH  18  21
ATOM     21  O   UNL     1       2.316   4.599  21.739  0.00  0.00    +0.000 OA
ATOM     22  H   UNL     1       3.268   4.407  21.831  0.00  0.00    +0.000 HD
ENDBRANCH  18  21
ENDBRANCH   1  16
BRANCH   8  23
ATOM     23  O   UNL     1       8.161   7.583  18.463  0.00  0.00    +0.000 OA
BRANCH  23  24
ATOM     24  C   UNL     1       8.014   8.917  17.957  0.00  0.00    +0.000 C 
BRANCH  24  25
ATOM     25  C   UNL     1       9.225   9.728  18.338  0.00  0.00    +0.000 C 
ATOM     26  C   UNL     1       9.205  10.572  19.636  0.00  0.00    +0.000 C 
ATOM     27  C   UNL     1       9.215  11.190  18.315  0.00  0.00    +0.000 C 
ATOM     28  C   UNL     1       8.476  12.256  17.652  0.00  0.00    +0.000 C 
ATOM     29  C   UNL     1      10.010  12.247  17.693  0.00  0.00    +0.000 C 
ENDBRANCH  24  25
ENDBRANCH  23  24
ENDBRANCH   8  23
TORSDOF 6
ENDMDL
MODEL 2
REMARK VINA RESULT:      -8.6      3.025      5.764
REMARK  Name = 
REMARK  7 active torsions:
REMARK  status: ('A' for Active; 'I' for Inactive)
REMARK    1  A    between atoms: C_1  and  C_2
REMARK    2  A    between atoms: C_4  and  N_5
REMARK    3  A    between atoms: C_12  and  O_13
REMARK    4  A    between atoms: O_13  and  C_14
REMARK    5  A    between atoms: C_14  and  C_15
REMARK    6  A    between atoms: C_22  and  O_23
REMARK    7  A    between atoms: C_24  and  O_25
REMARK                            x       y       z     vdW  Elec       q    Type
REMARK                         _______ _______ _______ _____ _____    ______ ____
ROOT
ATOM      1  N   UNL     1       4.481   4.321  18.614  0.00  0.00    +0.000 N 
ATOM      2  C   UNL     1       4.863   4.619  19.900  0.00  0.00    +0.000 A 
ATOM      3  N   UNL     1       5.977   5.309  19.944  0.00  0.00    +0.000 NA
ATOM      4  C   UNL     1       6.329   5.477  18.623  0.00  0.00    +0.000 A 
ATOM      5  C   UNL     1       7.412   6.145  18.031  0.00  0.00    +0.000 A 
ATOM      6  N   UNL     1       8.400   6.765  18.789  0.00  0.00    +0.000 N 
ATOM      7  N   UNL     1       7.474   6.216  16.683  0.00  0.00    +0.000 NA
ATOM      8  C   UNL     1       6.509   5.606  15.956  0.00  0.00    +0.000 A 
ATOM      9  N   UNL     1       5.446   4.909  16.424  0.00  0.00    +0.000 NA
ATOM     10  C   UNL     1       5.410   4.890  17.768  0.00  0.00    +0.000 A 
ATOM     11  H   UNL     1       8.110   6.944  19.743  0.00  0.00    +0.000 HD
ATOM     12  H   UNL     1       8.861   7.509  18.289  0.00  0.00    +0.000 HD
ENDROOT
BRANCH   1  16
ATOM     13  C   UNL     1       0.981   4.045  20.632  0.00  0.00    +0.000 C 
ATOM     14  C   UNL     1       1.131   3.561  19.200  0.00  0.00    +0.000 C 
ATOM     15  O   UNL     1       2.120   4.373  18.533  0.00  0.00    +0.000 OA
ATOM     16  C   UNL     1       3.289   3.565  18.292  0.00  0.00    +0.000 C 
ATOM     17  C   UNL     1       3.124   2.242  19.034  0.00  0.00    +0.000 C 
ATOM     18  C   UNL     1       1.609   2.114  19.095  0.00  0.00    +0.000 C 
BRANCH  17  19
ATOM     19  O   UNL     1       3.710   1.146  18.323  0.00  0.00    +0.000 OA
ATOM     20  H   UNL     1       4.669   1.346  18.264  0.00  0.00    +0.000 HD
ENDBRANCH  17  19
BRANCH  18  21
ATOM     21  O   UNL     1       1.168   1.496  17.869  0.00  0.00    +0.000 OA
ATOM     22  H   UNL     1       1.935   1.382  17.278  0.00  0.00    +0.000 HD
ENDBRANCH  18  21
ENDBRANCH   1  16
BRANCH   8  23
ATOM     23  O   UNL     1       6.607   5.644  14.575  0.00  0.00    +0.000 OA
BRANCH  23  24
ATOM     24  C   UNL     1       5.666   4.779  13.925  0.00  0.00    +0.000 C 
BRANCH  24  25
ATOM     25  C   UNL     1       6.415   3.708  13.175  0.00  0.00    +0.000 C 
ATOM     26  C   UNL     1       7.026   4.028  11.789  0.00  0.00    +0.000 C 
ATOM     27  C   UNL     1       5.894   3.121  11.941  0.00  0.00    +0.000 C 
ATOM     28  C   UNL     1       4.603   2.939  11.290  0.00  0.00    +0.000 C 
ATOM     29  C   UNL     1       5.594   1.778  11.449  0.00  0.00    +0.000 C 
ENDBRANCH  24  25
ENDBRANCH  23  24
ENDBRANCH   8  23
TORSDOF 6
ENDMDL
MODEL 3
REMARK VINA RESULT:      -8.6      3.225      6.175
REMARK  Name = 
REMARK  7 active torsions:
REMARK  status: ('A' for Active; 'I' for Inactive)
REMARK    1  A    between atoms: C_1  and  C_2
REMARK    2  A    between atoms: C_4  and  N_5
REMARK    3  A    between atoms: C_12  and  O_13
REMARK    4  A    between atoms: O_13  and  C_14
REMARK    5  A    between atoms: C_14  and  C_15
REMARK    6  A    between atoms: C_22  and  O_23
REMARK    7  A    between atoms: C_24  and  O_25
REMARK                            x       y       z     vdW  Elec       q    Type
REMARK                         _______ _______ _______ _____ _____    ______ ____
ROOT
ATOM      1  N   UNL     1       4.190   4.615  17.993  0.00  0.00    +0.000 N 
ATOM      2  C   UNL     1       4.375   5.635  18.896  0.00  0.00    +0.000 A 
ATOM      3  N   UNL     1       5.418   6.376  18.606  0.00  0.00    +0.000 NA
ATOM      4  C   UNL     1       5.926   5.817  17.455  0.00  0.00    +0.000 A 
ATOM      5  C   UNL     1       7.023   6.178  16.657  0.00  0.00    +0.000 A 
ATOM      6  N   UNL     1       7.852   7.247  16.982  0.00  0.00    +0.000 N 
ATOM      7  N   UNL     1       7.256   5.485  15.520  0.00  0.00    +0.000 NA
ATOM      8  C   UNL     1       6.444   4.446  15.216  0.00  0.00    +0.000 A 
ATOM      9  N   UNL     1       5.386   3.995  15.931  0.00  0.00    +0.000 NA
ATOM     10  C   UNL     1       5.175   4.731  17.036  0.00  0.00    +0.000 A 
ATOM     11  H   UNL     1       7.427   7.889  17.638  0.00  0.00    +0.000 HD
ATOM     12  H   UNL     1       8.316   7.635  16.175  0.00  0.00    +0.000 HD
ENDROOT
BRANCH   1  16
ATOM     13  C   UNL     1       1.174   4.384  20.686  0.00  0.00    +0.000 C 
ATOM     14  C   UNL     1       1.168   3.588  19.392  0.00  0.00    +0.000 C 
ATOM     15  O   UNL     1       1.876   4.334  18.380  0.00  0.00    +0.000 OA
ATOM     16  C   UNL     1       3.112   3.654  18.089  0.00  0.00    +0.000 C 
ATOM     17  C   UNL     1       3.306   2.543  19.117  0.00  0.00    +0.000 C 
ATOM     18  C   UNL     1       1.868   2.235  19.508  0.00  0.00    +0.000 C 
BRANCH  17  19
ATOM     19  O   UNL     1       3.949   1.393  18.556  0.00  0.00    +0.000 OA
ATOM     20  H   UNL     1       3.310   1.012  17.917  0.00  0.00    +0.000 HD
ENDBRANCH  17  19
BRANCH  18  21
ATOM     21  O   UNL     1       1.345   1.284  18.559  0.00  0.00    +0.000 OA
ATOM     22  H   UNL     1       1.378   1.676  17.666  0.00  0.00    +0.000 HD
ENDBRANCH  18  21
ENDBRANCH   1  16
BRANCH   8  23
ATOM     23  O   UNL     1       6.719   3.713  14.073  0.00  0.00    +0.000 OA
BRANCH  23  24
ATOM     24  C   UNL     1       5.942   4.129  12.943  0.00  0.00    +0.000 C 
BRANCH  24  25
ATOM     25  C   UNL     1       5.060   2.990  12.500  0.00  0.00    +0.000 C 
ATOM     26  C   UNL     1       5.477   2.126  11.285  0.00  0.00    +0.000 C 
ATOM     27  C   UNL     1       4.330   3.024  11.234  0.00  0.00    +0.000 C 
ATOM     28  C   UNL     1       3.823   4.025  10.305  0.00  0.00    +0.000 C 
ATOM     29  C   UNL     1       2.939   2.875  10.808  0.00  0.00    +0.000 C 
ENDBRANCH  24  25
ENDBRANCH  23  24
ENDBRANCH   8  23
TORSDOF 6
ENDMDL
MODEL 4
REMARK VINA RESULT:      -8.3      3.091      6.168
REMARK  Name = 
REMARK  7 active torsions:
REMARK  status: ('A' for Active; 'I' for Inactive)
REMARK    1  A    between atoms: C_1  and  C_2
REMARK    2  A    between atoms: C_4  and  N_5
REMARK    3  A    between atoms: C_12  and  O_13
REMARK    4  A    between atoms: O_13  and  C_14
REMARK    5  A    between atoms: C_14  and  C_15
REMARK    6  A    between atoms: C_22  and  O_23
REMARK    7  A    between atoms: C_24  and  O_25
REMARK                            x       y       z     vdW  Elec       q    Type
REMARK                         _______ _______ _______ _____ _____    ______ ____
ROOT
ATOM      1  N   UNL     1       4.317   4.514  18.236  0.00  0.00    +0.000 N 
ATOM      2  C   UNL     1       4.589   5.219  19.384  0.00  0.00    +0.000 A 
ATOM      3  N   UNL     1       5.685   5.933  19.283  0.00  0.00    +0.000 NA
ATOM      4  C   UNL     1       6.137   5.689  18.006  0.00  0.00    +0.000 A 
ATOM      5  C   UNL     1       7.252   6.180  17.310  0.00  0.00    +0.000 A 
ATOM      6  N   UNL     1       8.166   7.049  17.898  0.00  0.00    +0.000 N 
ATOM      7  N   UNL     1       7.420   5.823  16.016  0.00  0.00    +0.000 NA
ATOM      8  C   UNL     1       6.527   4.976  15.456  0.00  0.00    +0.000 A 
ATOM      9  N   UNL     1       5.442   4.419  16.046  0.00  0.00    +0.000 NA
ATOM     10  C   UNL     1       5.300   4.824  17.320  0.00  0.00    +0.000 A 
ATOM     11  H   UNL     1       7.798   7.508  18.721  0.00  0.00    +0.000 HD
ATOM     12  H   UNL     1       8.652   7.615  17.220  0.00  0.00    +0.000 HD
ENDROOT
BRANCH   1  16
ATOM     13  C   UNL     1       1.033   4.166  20.580  0.00  0.00    +0.000 C 
ATOM     14  C   UNL     1       1.101   3.565  19.186  0.00  0.00    +0.000 C 
ATOM     15  O   UNL     1       1.961   4.383  18.366  0.00  0.00    +0.000 OA
ATOM     16  C   UNL     1       3.167   3.646  18.089  0.00  0.00    +0.000 C 
ATOM     17  C   UNL     1       3.174   2.388  18.952  0.00  0.00    +0.000 C 
ATOM     18  C   UNL     1       1.685   2.154  19.161  0.00  0.00    +0.000 C 
BRANCH  17  19
ATOM     19  O   UNL     1       3.785   1.278  18.285  0.00  0.00    +0.000 OA
ATOM     20  H   UNL     1       3.791   0.543  18.936  0.00  0.00    +0.000 HD
ENDBRANCH  17  19
BRANCH  18  21
ATOM     21  O   UNL     1       1.193   1.396  18.037  0.00  0.00    +0.000 OA
ATOM     22  H   UNL     1       1.552   1.780  17.215  0.00  0.00    +0.000 HD
ENDBRANCH  18  21
ENDBRANCH   1  16
BRANCH   8  23
ATOM     23  O   UNL     1       6.734   4.579  14.145  0.00  0.00    +0.000 OA
BRANCH  23  24
ATOM     24  C   UNL     1       5.740   3.657  13.678  0.00  0.00    +0.000 C 
BRANCH  24  25
ATOM     25  C   UNL     1       5.827   3.554  12.177  0.00  0.00    +0.000 C 
ATOM     26  C   UNL     1       4.605   3.048  11.372  0.00  0.00    +0.000 C 
ATOM     27  C   UNL     1       5.828   2.263  11.490  0.00  0.00    +0.000 C 
ATOM     28  C   UNL     1       6.158   0.877  11.793  0.00  0.00    +0.000 C 
ATOM     29  C   UNL     1       6.689   1.572  10.532  0.00  0.00    +0.000 C 
ENDBRANCH  24  25
ENDBRANCH  23  24
ENDBRANCH   8  23
TORSDOF 6
ENDMDL
MODEL 5
REMARK VINA RESULT:      -8.2      3.851      6.446
REMARK  Name = 
REMARK  7 active torsions:
REMARK  status: ('A' for Active; 'I' for Inactive)
REMARK    1  A    between atoms: C_1  and  C_2
REMARK    2  A    between atoms: C_4  and  N_5
REMARK    3  A    between atoms: C_12  and  O_13
REMARK    4  A    between atoms: O_13  and  C_14
REMARK    5  A    between atoms: C_14  and  C_15
REMARK    6  A    between atoms: C_22  and  O_23
REMARK    7  A    between atoms: C_24  and  O_25
REMARK                            x       y       z     vdW  Elec       q    Type
REMARK                         _______ _______ _______ _____ _____    ______ ____
ROOT
ATOM      1  N   UNL     1       4.091   4.550  17.933  0.00  0.00    +0.000 N 
ATOM      2  C   UNL     1       3.731   3.258  17.637  0.00  0.00    +0.000 A 
ATOM      3  N   UNL     1       2.711   2.846  18.351  0.00  0.00    +0.000 NA
ATOM      4  C   UNL     1       2.387   3.927  19.141  0.00  0.00    +0.000 A 
ATOM      5  C   UNL     1       1.375   4.106  20.096  0.00  0.00    +0.000 A 
ATOM      6  N   UNL     1       0.489   3.087  20.432  0.00  0.00    +0.000 N 
ATOM      7  N   UNL     1       1.238   5.317  20.680  0.00  0.00    +0.000 NA
ATOM      8  C   UNL     1       2.107   6.299  20.348  0.00  0.00    +0.000 A 
ATOM      9  N   UNL     1       3.135   6.223  19.469  0.00  0.00    +0.000 NA
ATOM     10  C   UNL     1       3.215   5.011  18.893  0.00  0.00    +0.000 A 
ATOM     11  H   UNL     1       0.452   2.352  19.736  0.00  0.00    +0.000 HD
ATOM     12  H   UNL     1      -0.384   3.438  20.795  0.00  0.00    +0.000 HD
ENDROOT
BRANCH   1  16
ATOM     13  C   UNL     1       5.539   4.135  14.174  0.00  0.00    +0.000 C 
ATOM     14  C   UNL     1       5.917   5.307  15.064  0.00  0.00    +0.000 C 
ATOM     15  O   UNL     1       4.813   5.602  15.944  0.00  0.00    +0.000 OA
ATOM     16  C   UNL     1       5.188   5.239  17.287  0.00  0.00    +0.000 C 
ATOM     17  C   UNL     1       6.507   4.474  17.231  0.00  0.00    +0.000 C 
ATOM     18  C   UNL     1       7.126   5.027  15.955  0.00  0.00    +0.000 C 
BRANCH  17  19
ATOM     19  O   UNL     1       7.336   4.740  18.368  0.00  0.00    +0.000 OA
ATOM     20  H   UNL     1       6.757   5.179  19.027  0.00  0.00    +0.000 HD
ENDBRANCH  17  19
BRANCH  18  21
ATOM     21  O   UNL     1       7.829   6.240  16.294  0.00  0.00    +0.000 OA
ATOM     22  H   UNL     1       8.655   6.008  16.757  0.00  0.00    +0.000 HD
ENDBRANCH  18  21
ENDBRANCH   1  16
BRANCH   8  23
ATOM     23  O   UNL     1       1.987   7.523  20.987  0.00  0.00    +0.000 OA
BRANCH  23  24
ATOM     24  C   UNL     1       0.662   8.064  20.913  0.00  0.00    +0.000 C 
BRANCH  24  25
ATOM     25  C   UNL     1       0.728   9.467  20.368  0.00  0.00    +0.000 C 
ATOM     26  C   UNL     1      -0.394   9.980  19.433  0.00  0.00    +0.000 C 
ATOM     27  C   UNL     1       0.959   9.735  18.949  0.00  0.00    +0.000 C 
ATOM     28  C   UNL     1       1.557   9.061  17.805  0.00  0.00    +0.000 C 
ATOM     29  C   UNL     1       1.913  10.512  18.159  0.00  0.00    +0.000 C 
ENDBRANCH  24  25
ENDBRANCH  23  24
ENDBRANCH   8  23
TORSDOF 6
ENDMDL
MODEL 6
REMARK VINA RESULT:      -8.1      1.280      1.568
REMARK  Name = 
REMARK  7 active torsions:
REMARK  status: ('A' for Active; 'I' for Inactive)
REMARK    1  A    between atoms: C_1  and  C_2
REMARK    2  A    between atoms: C_4  and  N_5
REMARK    3  A    between atoms: C_12  and  O_13
REMARK    4  A    between atoms: O_13  and  C_14
REMARK    5  A    between atoms: C_14  and  C_15
REMARK    6  A    between atoms: C_22  and  O_23
REMARK    7  A    between atoms: C_24  and  O_25
REMARK                            x       y       z     vdW  Elec       q    Type
REMARK                         _______ _______ _______ _____ _____    ______ ____
ROOT
ATOM      1  N   UNL     1       4.130   5.248  18.101  0.00  0.00    +0.000 N 
ATOM      2  C   UNL     1       3.620   4.091  17.562  0.00  0.00    +0.000 A 
ATOM      3  N   UNL     1       4.314   3.672  16.531  0.00  0.00    +0.000 NA
ATOM      4  C   UNL     1       5.329   4.594  16.403  0.00  0.00    +0.000 A 
ATOM      5  C   UNL     1       6.397   4.675  15.497  0.00  0.00    +0.000 A 
ATOM      6  N   UNL     1       6.570   3.747  14.475  0.00  0.00    +0.000 N 
ATOM      7  N   UNL     1       7.304   5.666  15.647  0.00  0.00    +0.000 NA
ATOM      8  C   UNL     1       7.124   6.564  16.643  0.00  0.00    +0.000 A 
ATOM      9  N   UNL     1       6.114   6.598  17.545  0.00  0.00    +0.000 NA
ATOM     10  C   UNL     1       5.254   5.579  17.375  0.00  0.00    +0.000 A 
ATOM     11  H   UNL     1       6.060   2.887  14.633  0.00  0.00    +0.000 HD
ATOM     12  H   UNL     1       7.530   3.678  14.174  0.00  0.00    +0.000 HD
ENDROOT
BRANCH   1  16
ATOM     13  C   UNL     1       1.019   4.122  20.437  0.00  0.00    +0.000 C 
ATOM     14  C   UNL     1       1.971   5.238  20.836  0.00  0.00    +0.000 C 
ATOM     15  O   UNL     1       3.275   4.960  20.285  0.00  0.00    +0.000 OA
ATOM     16  C   UNL     1       3.546   5.918  19.244  0.00  0.00    +0.000 C 
ATOM     17  C   UNL     1       2.269   6.706  18.967  0.00  0.00    +0.000 C 
ATOM     18  C   UNL     1       1.555   6.609  20.308  0.00  0.00    +0.000 C 
BRANCH  17  19
ATOM     19  O   UNL     1       2.538   8.068  18.620  0.00  0.00    +0.000 OA
ATOM     20  H   UNL     1       1.672   8.529  18.646  0.00  0.00    +0.000 HD
ENDBRANCH  17  19
BRANCH  18  21
ATOM     21  O   UNL     1       2.044   7.673  21.148  0.00  0.00    +0.000 OA
ATOM     22  H   UNL     1       1.323   7.973  21.732  0.00  0.00    +0.000 HD
ENDBRANCH  18  21
ENDBRANCH   1  16
BRANCH   8  23
ATOM     23  O   UNL     1       8.033   7.604  16.759  0.00  0.00    +0.000 OA
BRANCH  23  24
ATOM     24  C   UNL     1       7.703   8.517  17.814  0.00  0.00    +0.000 C 
BRANCH  24  25
ATOM     25  C   UNL     1       8.966   9.158  18.328  0.00  0.00    +0.000 C 
ATOM     26  C   UNL     1       8.936   9.955  19.655  0.00  0.00    +0.000 C 
ATOM     27  C   UNL     1       9.135  10.610  18.368  0.00  0.00    +0.000 C 
ATOM     28  C   UNL     1       8.591  11.781  17.694  0.00  0.00    +0.000 C 
ATOM     29  C   UNL     1      10.104  11.579  17.860  0.00  0.00    +0.000 C 
ENDBRANCH  24  25
ENDBRANCH  23  24
ENDBRANCH   8  23
TORSDOF 6
ENDMDL
MODEL 7
REMARK VINA RESULT:      -8.0      3.810      6.785
REMARK  Name = 
REMARK  7 active torsions:
REMARK  status: ('A' for Active; 'I' for Inactive)
REMARK    1  A    between atoms: C_1  and  C_2
REMARK    2  A    between atoms: C_4  and  N_5
REMARK    3  A    between atoms: C_12  and  O_13
REMARK    4  A    between atoms: O_13  and  C_14
REMARK    5  A    between atoms: C_14  and  C_15
REMARK    6  A    between atoms: C_22  and  O_23
REMARK    7  A    between atoms: C_24  and  O_25
REMARK                            x       y       z     vdW  Elec       q    Type
REMARK                         _______ _______ _______ _____ _____    ______ ____
ROOT
ATOM      1  N   UNL     1       4.187   4.502  18.178  0.00  0.00    +0.000 N 
ATOM      2  C   UNL     1       4.004   3.157  17.965  0.00  0.00    +0.000 A 
ATOM      3  N   UNL     1       3.013   2.669  18.674  0.00  0.00    +0.000 NA
ATOM      4  C   UNL     1       2.524   3.752  19.369  0.00  0.00    +0.000 A 
ATOM      5  C   UNL     1       1.457   3.865  20.274  0.00  0.00    +0.000 A 
ATOM      6  N   UNL     1       0.692   2.767  20.654  0.00  0.00    +0.000 N 
ATOM      7  N   UNL     1       1.145   5.087  20.762  0.00  0.00    +0.000 NA
ATOM      8  C   UNL     1       1.898   6.146  20.388  0.00  0.00    +0.000 A 
ATOM      9  N   UNL     1       2.965   6.141  19.552  0.00  0.00    +0.000 NA
ATOM     10  C   UNL     1       3.220   4.912  19.071  0.00  0.00    +0.000 A 
ATOM     11  H   UNL     1       0.777   1.988  20.014  0.00  0.00    +0.000 HD
ATOM     12  H   UNL     1      -0.233   3.028  20.960  0.00  0.00    +0.000 HD
ENDROOT
BRANCH   1  16
ATOM     13  C   UNL     1       5.537   4.290  14.366  0.00  0.00    +0.000 C 
ATOM     14  C   UNL     1       5.868   5.458  15.279  0.00  0.00    +0.000 C 
ATOM     15  O   UNL     1       4.777   5.655  16.201  0.00  0.00    +0.000 OA
ATOM     16  C   UNL     1       5.217   5.278  17.520  0.00  0.00    +0.000 C 
ATOM     17  C   UNL     1       6.580   4.603  17.400  0.00  0.00    +0.000 C 
ATOM     18  C   UNL     1       7.120   5.231  16.124  0.00  0.00    +0.000 C 
BRANCH  17  19
ATOM     19  O   UNL     1       7.426   4.890  18.519  0.00  0.00    +0.000 OA
ATOM     20  H   UNL     1       8.346   4.804  18.190  0.00  0.00    +0.000 HD
ENDBRANCH  17  19
BRANCH  18  21
ATOM     21  O   UNL     1       7.755   6.477  16.478  0.00  0.00    +0.000 OA
ATOM     22  H   UNL     1       8.301   6.778  15.728  0.00  0.00    +0.000 HD
ENDBRANCH  18  21
ENDBRANCH   1  16
BRANCH   8  23
ATOM     23  O   UNL     1       1.600   7.386  20.930  0.00  0.00    +0.000 OA
BRANCH  23  24
ATOM     24  C   UNL     1       1.506   8.419  19.940  0.00  0.00    +0.000 C 
BRANCH  24  25
ATOM     25  C   UNL     1       0.444   9.405  20.352  0.00  0.00    +0.000 C 
ATOM     26  C   UNL     1       0.849  10.844  20.757  0.00  0.00    +0.000 C 
ATOM     27  C   UNL     1       0.329   9.888  21.727  0.00  0.00    +0.000 C 
ATOM     28  C   UNL     1       0.702   9.445  23.064  0.00  0.00    +0.000 C 
ATOM     29  C   UNL     1      -0.715   9.943  22.749  0.00  0.00    +0.000 C 
ENDBRANCH  24  25
ENDBRANCH  23  24
ENDBRANCH   8  23
TORSDOF 6
ENDMDL
MODEL 8
REMARK VINA RESULT:      -8.0      3.265      6.290
REMARK  Name = 
REMARK  7 active torsions:
REMARK  status: ('A' for Active; 'I' for Inactive)
REMARK    1  A    between atoms: C_1  and  C_2
REMARK    2  A    between atoms: C_4  and  N_5
REMARK    3  A    between atoms: C_12  and  O_13
REMARK    4  A    between atoms: O_13  and  C_14
REMARK    5  A    between atoms: C_14  and  C_15
REMARK    6  A    between atoms: C_22  and  O_23
REMARK    7  A    between atoms: C_24  and  O_25
REMARK                            x       y       z     vdW  Elec       q    Type
REMARK                         _______ _______ _______ _____ _____    ______ ____
ROOT
ATOM      1  N   UNL     1       4.308   4.044  17.925  0.00  0.00    +0.000 N 
ATOM      2  C   UNL     1       3.832   2.774  17.701  0.00  0.00    +0.000 A 
ATOM      3  N   UNL     1       2.748   2.517  18.393  0.00  0.00    +0.000 NA
ATOM      4  C   UNL     1       2.502   3.679  19.089  0.00  0.00    +0.000 A 
ATOM      5  C   UNL     1       1.475   4.024  19.981  0.00  0.00    +0.000 A 
ATOM      6  N   UNL     1       0.478   3.124  20.343  0.00  0.00    +0.000 N 
ATOM      7  N   UNL     1       1.437   5.283  20.473  0.00  0.00    +0.000 NA
ATOM      8  C   UNL     1       2.413   6.149  20.116  0.00  0.00    +0.000 A 
ATOM      9  N   UNL     1       3.463   5.909  19.295  0.00  0.00    +0.000 NA
ATOM     10  C   UNL     1       3.444   4.656  18.808  0.00  0.00    +0.000 A 
ATOM     11  H   UNL     1       0.396   2.348  19.698  0.00  0.00    +0.000 HD
ATOM     12  H   UNL     1      -0.369   3.584  20.638  0.00  0.00    +0.000 HD
ENDROOT
BRANCH   1  16
ATOM     13  C   UNL     1       7.588   5.746  19.584  0.00  0.00    +0.000 C 
ATOM     14  C   UNL     1       7.555   5.292  18.134  0.00  0.00    +0.000 C 
ATOM     15  O   UNL     1       6.667   4.161  18.017  0.00  0.00    +0.000 OA
ATOM     16  C   UNL     1       5.495   4.573  17.287  0.00  0.00    +0.000 C 
ATOM     17  C   UNL     1       5.536   6.089  17.120  0.00  0.00    +0.000 C 
ATOM     18  C   UNL     1       7.032   6.361  17.176  0.00  0.00    +0.000 C 
BRANCH  17  19
ATOM     19  O   UNL     1       4.978   6.512  15.871  0.00  0.00    +0.000 OA
ATOM     20  H   UNL     1       5.261   5.844  15.210  0.00  0.00    +0.000 HD
ENDBRANCH  17  19
BRANCH  18  21
ATOM     21  O   UNL     1       7.564   6.187  15.846  0.00  0.00    +0.000 OA
ATOM     22  H   UNL     1       7.503   7.035  15.368  0.00  0.00    +0.000 HD
ENDBRANCH  18  21
ENDBRANCH   1  16
BRANCH   8  23
ATOM     23  O   UNL     1       2.391   7.422  20.663  0.00  0.00    +0.000 OA
BRANCH  23  24
ATOM     24  C   UNL     1       1.062   7.907  20.893  0.00  0.00    +0.000 C 
BRANCH  24  25
ATOM     25  C   UNL     1       0.973   9.343  20.443  0.00  0.00    +0.000 C 
ATOM     26  C   UNL     1      -0.288   9.835  19.693  0.00  0.00    +0.000 C 
ATOM     27  C   UNL     1       1.004   9.713  19.029  0.00  0.00    +0.000 C 
ATOM     28  C   UNL     1       1.489   9.153  17.775  0.00  0.00    +0.000 C 
ATOM     29  C   UNL     1       1.800  10.600  18.182  0.00  0.00    +0.000 C 
ENDBRANCH  24  25
ENDBRANCH  23  24
ENDBRANCH   8  23
TORSDOF 6
ENDMDL
MODEL 9
REMARK VINA RESULT:      -8.0      3.350      5.801
REMARK  Name = 
REMARK  7 active torsions:
REMARK  status: ('A' for Active; 'I' for Inactive)
REMARK    1  A    between atoms: C_1  and  C_2
REMARK    2  A    between atoms: C_4  and  N_5
REMARK    3  A    between atoms: C_12  and  O_13
REMARK    4  A    between atoms: O_13  and  C_14
REMARK    5  A    between atoms: C_14  and  C_15
REMARK    6  A    between atoms: C_22  and  O_23
REMARK    7  A    between atoms: C_24  and  O_25
REMARK                            x       y       z     vdW  Elec       q    Type
REMARK                         _______ _______ _______ _____ _____    ______ ____
ROOT
ATOM      1  N   UNL     1       3.659   4.567  18.770  0.00  0.00    +0.000 N 
ATOM      2  C   UNL     1       3.926   5.441  19.796  0.00  0.00    +0.000 A 
ATOM      3  N   UNL     1       5.114   5.988  19.691  0.00  0.00    +0.000 NA
ATOM      4  C   UNL     1       5.637   5.451  18.536  0.00  0.00    +0.000 A 
ATOM      5  C   UNL     1       6.865   5.663  17.891  0.00  0.00    +0.000 A 
ATOM      6  N   UNL     1       7.835   6.514  18.412  0.00  0.00    +0.000 N 
ATOM      7  N   UNL     1       7.094   5.047  16.710  0.00  0.00    +0.000 NA
ATOM      8  C   UNL     1       6.145   4.220  16.215  0.00  0.00    +0.000 A 
ATOM      9  N   UNL     1       4.946   3.920  16.771  0.00  0.00    +0.000 NA
ATOM     10  C   UNL     1       4.751   4.576  17.928  0.00  0.00    +0.000 A 
ATOM     11  H   UNL     1       7.464   7.162  19.094  0.00  0.00    +0.000 HD
ATOM     12  H   UNL     1       8.452   6.877  17.702  0.00  0.00    +0.000 HD
ENDROOT
BRANCH   1  16
ATOM     13  C   UNL     1       1.376   2.892  21.665  0.00  0.00    +0.000 C 
ATOM     14  C   UNL     1       0.871   3.087  20.246  0.00  0.00    +0.000 C 
ATOM     15  O   UNL     1       1.501   4.256  19.681  0.00  0.00    +0.000 OA
ATOM     16  C   UNL     1       2.418   3.830  18.655  0.00  0.00    +0.000 C 
ATOM     17  C   UNL     1       2.542   2.311  18.716  0.00  0.00    +0.000 C 
ATOM     18  C   UNL     1       1.201   1.920  19.318  0.00  0.00    +0.000 C 
BRANCH  17  19
ATOM     19  O   UNL     1       2.719   1.729  17.420  0.00  0.00    +0.000 OA
ATOM     20  H   UNL     1       2.487   2.431  16.775  0.00  0.00    +0.000 HD
ENDBRANCH  17  19
BRANCH  18  21
ATOM     21  O   UNL     1       0.247   1.811  18.242  0.00  0.00    +0.000 OA
ATOM     22  H   UNL     1       0.688   1.412  17.468  0.00  0.00    +0.000 HD
ENDBRANCH  18  21
ENDBRANCH   1  16
BRANCH   8  23
ATOM     23  O   UNL     1       6.408   3.557  15.027  0.00  0.00    +0.000 OA
BRANCH  23  24
ATOM     24  C   UNL     1       6.793   4.443  13.968  0.00  0.00    +0.000 C 
BRANCH  24  25
ATOM     25  C   UNL     1       7.072   3.638  12.725  0.00  0.00    +0.000 C 
ATOM     26  C   UNL     1       6.962   4.312  11.335  0.00  0.00    +0.000 C 
ATOM     27  C   UNL     1       6.016   3.294  11.774  0.00  0.00    +0.000 C 
ATOM     28  C   UNL     1       4.567   3.141  11.775  0.00  0.00    +0.000 C 
ATOM     29  C   UNL     1       5.487   2.070  11.173  0.00  0.00    +0.000 C 
ENDBRANCH  24  25
ENDBRANCH  23  24
ENDBRANCH   8  23
TORSDOF 6
ENDMDL
