MODEL 1
REMARK VINA RESULT:      -7.2      0.000      0.000
REMARK  Name = 
REMARK  6 active torsions:
REMARK  status: ('A' for Active; 'I' for Inactive)
REMARK    1  A    between atoms: C_1  and  S_2
REMARK    2  A    between atoms: S_2  and  C_3
REMARK    3  A    between atoms: C_8  and  N_9
REMARK    4  A    between atoms: N_13  and  C_14
REMARK    5  A    between atoms: C_14  and  C_15
REMARK    6  A    between atoms: C_15  and  O_16
REMARK                            x       y       z     vdW  Elec       q    Type
REMARK                         _______ _______ _______ _____ _____    ______ ____
ROOT
ATOM      1  N   UNL     1       5.031   7.125  17.087  0.00  0.00    +0.000 N 
ATOM      2  C   UNL     1       3.926   7.018  17.935  0.00  0.00    +0.000 A 
ATOM      3  N   UNL     1       3.116   8.067  17.998  0.00  0.00    +0.000 NA
ATOM      4  C   UNL     1       2.125   7.959  18.868  0.00  0.00    +0.000 A 
ATOM      5  N   UNL     1       1.201   8.980  19.025  0.00  0.00    +0.000 N 
ATOM      6  N   UNL     1       1.913   6.903  19.635  0.00  0.00    +0.000 NA
ATOM      7  C   UNL     1       2.738   5.876  19.481  0.00  0.00    +0.000 A 
ATOM      8  N   UNL     1       2.506   4.748  20.221  0.00  0.00    +0.000 N 
ATOM      9  C   UNL     1       3.301   3.545  20.071  0.00  0.00    +0.000 C 
ATOM     10  C   UNL     1       2.290   2.416  20.261  0.00  0.00    +0.000 C 
ATOM     11  C   UNL     1       1.244   3.021  21.187  0.00  0.00    +0.000 C 
ATOM     12  C   UNL     1       1.180   4.485  20.754  0.00  0.00    +0.000 C 
ATOM     13  N   UNL     1       3.766   5.910  18.652  0.00  0.00    +0.000 NA
ATOM     14  H   UNL     1       5.004   8.007  16.591  0.00  0.00    +0.000 HD
ATOM     15  H   UNL     1       1.311   9.329  19.972  0.00  0.00    +0.000 HD
ENDROOT
BRANCH   1  21
ATOM     16  C   UNL     1       6.757   5.396  16.821  0.00  0.00    +0.000 A 
ATOM     17  C   UNL     1       7.368   4.412  16.030  0.00  0.00    +0.000 A 
ATOM     18  C   UNL     1       6.883   4.122  14.753  0.00  0.00    +0.000 A 
ATOM     19  C   UNL     1       5.787   4.818  14.255  0.00  0.00    +0.000 A 
ATOM     20  C   UNL     1       5.165   5.792  15.039  0.00  0.00    +0.000 A 
ATOM     21  C   UNL     1       5.626   6.088  16.334  0.00  0.00    +0.000 A 
BRANCH  16  23
ATOM     22  C   UNL     1       8.054   7.462  18.118  0.00  0.00    +0.000 C 
ATOM     23  S   UNL     1       7.495   5.761  18.417  0.00  0.00    +0.000 S 
ENDBRANCH  16  23
ENDBRANCH   1  21
BRANCH   5  24
ATOM     24  C   UNL     1       1.147  10.017  18.001  0.00  0.00    +0.000 C 
BRANCH  24  25
ATOM     25  C   UNL     1       1.688  11.337  18.572  0.00  0.00    +0.000 C 
BRANCH  25  26
ATOM     26  O   UNL     1       2.564  11.956  17.626  0.00  0.00    +0.000 OA
ATOM     27  H   UNL     1       1.994  12.578  17.128  0.00  0.00    +0.000 HD
ENDBRANCH  25  26
ENDBRANCH  24  25
ENDBRANCH   5  24
TORSDOF 5
ENDMDL
MODEL 2
REMARK VINA RESULT:      -6.6      2.974      6.763
REMARK  Name = 
REMARK  6 active torsions:
REMARK  status: ('A' for Active; 'I' for Inactive)
REMARK    1  A    between atoms: C_1  and  S_2
REMARK    2  A    between atoms: S_2  and  C_3
REMARK    3  A    between atoms: C_8  and  N_9
REMARK    4  A    between atoms: N_13  and  C_14
REMARK    5  A    between atoms: C_14  and  C_15
REMARK    6  A    between atoms: C_15  and  O_16
REMARK                            x       y       z     vdW  Elec       q    Type
REMARK                         _______ _______ _______ _____ _____    ______ ____
ROOT
ATOM      1  N   UNL     1       2.426   7.083  20.377  0.00  0.00    +0.000 N 
ATOM      2  C   UNL     1       3.091   5.998  19.800  0.00  0.00    +0.000 A 
ATOM      3  N   UNL     1       2.950   4.822  20.398  0.00  0.00    +0.000 NA
ATOM      4  C   UNL     1       3.655   3.835  19.869  0.00  0.00    +0.000 A 
ATOM      5  N   UNL     1       3.590   2.553  20.393  0.00  0.00    +0.000 N 
ATOM      6  N   UNL     1       4.451   3.961  18.822  0.00  0.00    +0.000 NA
ATOM      7  C   UNL     1       4.505   5.158  18.250  0.00  0.00    +0.000 A 
ATOM      8  N   UNL     1       5.276   5.301  17.129  0.00  0.00    +0.000 N 
ATOM      9  C   UNL     1       5.341   6.545  16.386  0.00  0.00    +0.000 C 
ATOM     10  C   UNL     1       5.446   6.093  14.931  0.00  0.00    +0.000 C 
ATOM     11  C   UNL     1       6.147   4.745  15.022  0.00  0.00    +0.000 C 
ATOM     12  C   UNL     1       5.607   4.142  16.318  0.00  0.00    +0.000 C 
ATOM     13  N   UNL     1       3.851   6.201  18.728  0.00  0.00    +0.000 NA
ATOM     14  H   UNL     1       1.871   6.770  21.164  0.00  0.00    +0.000 HD
ATOM     15  H   UNL     1       4.516   2.337  20.750  0.00  0.00    +0.000 HD
ENDROOT
BRANCH   1  21
ATOM     16  C   UNL     1       1.111   9.157  20.405  0.00  0.00    +0.000 A 
ATOM     17  C   UNL     1       0.498  10.208  19.706  0.00  0.00    +0.000 A 
ATOM     18  C   UNL     1       0.597  10.292  18.316  0.00  0.00    +0.000 A 
ATOM     19  C   UNL     1       1.304   9.321  17.613  0.00  0.00    +0.000 A 
ATOM     20  C   UNL     1       1.925   8.278  18.301  0.00  0.00    +0.000 A 
ATOM     21  C   UNL     1       1.853   8.183  19.702  0.00  0.00    +0.000 A 
BRANCH  16  23
ATOM     22  C   UNL     1      -0.344  10.421  22.386  0.00  0.00    +0.000 C 
ATOM     23  S   UNL     1       0.865   9.082  22.182  0.00  0.00    +0.000 S 
ENDBRANCH  16  23
ENDBRANCH   1  21
BRANCH   5  24
ATOM     24  C   UNL     1       2.499   2.244  21.310  0.00  0.00    +0.000 C 
BRANCH  24  25
ATOM     25  C   UNL     1       1.178   2.158  20.531  0.00  0.00    +0.000 C 
BRANCH  25  26
ATOM     26  O   UNL     1       0.459   3.389  20.653  0.00  0.00    +0.000 OA
ATOM     27  H   UNL     1       0.799   3.797  21.475  0.00  0.00    +0.000 HD
ENDBRANCH  25  26
ENDBRANCH  24  25
ENDBRANCH   5  24
TORSDOF 5
ENDMDL
MODEL 3
REMARK VINA RESULT:      -6.6      7.114      9.743
REMARK  Name = 
REMARK  6 active torsions:
REMARK  status: ('A' for Active; 'I' for Inactive)
REMARK    1  A    between atoms: C_1  and  S_2
REMARK    2  A    between atoms: S_2  and  C_3
REMARK    3  A    between atoms: C_8  and  N_9
REMARK    4  A    between atoms: N_13  and  C_14
REMARK    5  A    between atoms: C_14  and  C_15
REMARK    6  A    between atoms: C_15  and  O_16
REMARK                            x       y       z     vdW  Elec       q    Type
REMARK                         _______ _______ _______ _____ _____    ______ ____
ROOT
ATOM      1  N   UNL     1      -1.008  11.443  17.698  0.00  0.00    +0.000 N 
ATOM      2  C   UNL     1      -2.368  11.400  17.378  0.00  0.00    +0.000 A 
ATOM      3  N   UNL     1      -2.681  11.012  16.149  0.00  0.00    +0.000 NA
ATOM      4  C   UNL     1      -3.972  11.058  15.858  0.00  0.00    +0.000 A 
ATOM      5  N   UNL     1      -4.435  10.670  14.610  0.00  0.00    +0.000 N 
ATOM      6  N   UNL     1      -4.915  11.449  16.697  0.00  0.00    +0.000 NA
ATOM      7  C   UNL     1      -4.528  11.777  17.923  0.00  0.00    +0.000 A 
ATOM      8  N   UNL     1      -5.491  12.130  18.829  0.00  0.00    +0.000 N 
ATOM      9  C   UNL     1      -5.181  12.431  20.214  0.00  0.00    +0.000 C 
ATOM     10  C   UNL     1      -6.374  11.868  20.983  0.00  0.00    +0.000 C 
ATOM     11  C   UNL     1      -7.524  11.970  19.991  0.00  0.00    +0.000 C 
ATOM     12  C   UNL     1      -6.865  11.694  18.641  0.00  0.00    +0.000 C 
ATOM     13  N   UNL     1      -3.259  11.781  18.288  0.00  0.00    +0.000 NA
ATOM     14  H   UNL     1      -0.458  11.100  16.920  0.00  0.00    +0.000 HD
ATOM     15  H   UNL     1      -4.833  11.497  14.177  0.00  0.00    +0.000 HD
ENDROOT
BRANCH   1  21
ATOM     16  C   UNL     1      -0.068  12.204  19.836  0.00  0.00    +0.000 A 
ATOM     17  C   UNL     1       0.569  11.905  21.050  0.00  0.00    +0.000 A 
ATOM     18  C   UNL     1       0.874  10.585  21.388  0.00  0.00    +0.000 A 
ATOM     19  C   UNL     1       0.552   9.554  20.510  0.00  0.00    +0.000 A 
ATOM     20  C   UNL     1      -0.090   9.841  19.305  0.00  0.00    +0.000 A 
ATOM     21  C   UNL     1      -0.423  11.161  18.953  0.00  0.00    +0.000 A 
BRANCH  16  23
ATOM     22  C   UNL     1      -1.756  14.274  20.544  0.00  0.00    +0.000 C 
ATOM     23  S   UNL     1      -0.351  13.934  19.446  0.00  0.00    +0.000 S 
ENDBRANCH  16  23
ENDBRANCH   1  21
BRANCH   5  24
ATOM     24  C   UNL     1      -3.532   9.911  13.752  0.00  0.00    +0.000 C 
BRANCH  24  25
ATOM     25  C   UNL     1      -4.176   9.715  12.371  0.00  0.00    +0.000 C 
BRANCH  25  26
ATOM     26  O   UNL     1      -3.169   9.728  11.356  0.00  0.00    +0.000 OA
ATOM     27  H   UNL     1      -2.690   8.881  11.469  0.00  0.00    +0.000 HD
ENDBRANCH  25  26
ENDBRANCH  24  25
ENDBRANCH   5  24
TORSDOF 5
ENDMDL
MODEL 4
REMARK VINA RESULT:      -6.5      2.949      6.327
REMARK  Name = 
REMARK  6 active torsions:
REMARK  status: ('A' for Active; 'I' for Inactive)
REMARK    1  A    between atoms: C_1  and  S_2
REMARK    2  A    between atoms: S_2  and  C_3
REMARK    3  A    between atoms: C_8  and  N_9
REMARK    4  A    between atoms: N_13  and  C_14
REMARK    5  A    between atoms: C_14  and  C_15
REMARK    6  A    between atoms: C_15  and  O_16
REMARK                            x       y       z     vdW  Elec       q    Type
REMARK                         _______ _______ _______ _____ _____    ______ ____
ROOT
ATOM      1  N   UNL     1       1.854   8.671  18.842  0.00  0.00    +0.000 N 
ATOM      2  C   UNL     1       2.501   7.444  18.672  0.00  0.00    +0.000 A 
ATOM      3  N   UNL     1       3.622   7.453  17.962  0.00  0.00    +0.000 NA
ATOM      4  C   UNL     1       4.164   6.263  17.757  0.00  0.00    +0.000 A 
ATOM      5  N   UNL     1       5.343   6.132  17.038  0.00  0.00    +0.000 N 
ATOM      6  N   UNL     1       3.667   5.125  18.209  0.00  0.00    +0.000 NA
ATOM      7  C   UNL     1       2.570   5.203  18.950  0.00  0.00    +0.000 A 
ATOM      8  N   UNL     1       2.067   4.046  19.479  0.00  0.00    +0.000 N 
ATOM      9  C   UNL     1       0.919   4.031  20.365  0.00  0.00    +0.000 C 
ATOM     10  C   UNL     1       1.245   2.924  21.364  0.00  0.00    +0.000 C 
ATOM     11  C   UNL     1       2.122   1.967  20.569  0.00  0.00    +0.000 C 
ATOM     12  C   UNL     1       2.929   2.889  19.656  0.00  0.00    +0.000 C 
ATOM     13  N   UNL     1       1.952   6.347  19.183  0.00  0.00    +0.000 NA
ATOM     14  H   UNL     1       2.401   9.413  18.424  0.00  0.00    +0.000 HD
ATOM     15  H   UNL     1       5.117   5.604  16.201  0.00  0.00    +0.000 HD
ENDROOT
BRANCH   1  21
ATOM     16  C   UNL     1       0.133  10.094  19.867  0.00  0.00    +0.000 A 
ATOM     17  C   UNL     1      -0.533  10.545  21.017  0.00  0.00    +0.000 A 
ATOM     18  C   UNL     1      -0.210  10.032  22.274  0.00  0.00    +0.000 A 
ATOM     19  C   UNL     1       0.786   9.069  22.394  0.00  0.00    +0.000 A 
ATOM     20  C   UNL     1       1.447   8.606  21.255  0.00  0.00    +0.000 A 
ATOM     21  C   UNL     1       1.127   9.096  19.977  0.00  0.00    +0.000 A 
BRANCH  16  23
ATOM     22  C   UNL     1      -1.903  10.094  18.000  0.00  0.00    +0.000 C 
ATOM     23  S   UNL     1      -0.288  10.865  18.301  0.00  0.00    +0.000 S 
ENDBRANCH  16  23
ENDBRANCH   1  21
BRANCH   5  24
ATOM     24  C   UNL     1       6.135   7.333  16.800  0.00  0.00    +0.000 C 
BRANCH  24  25
ATOM     25  C   UNL     1       7.452   7.247  17.587  0.00  0.00    +0.000 C 
BRANCH  25  26
ATOM     26  O   UNL     1       8.005   8.555  17.759  0.00  0.00    +0.000 OA
ATOM     27  H   UNL     1       8.608   8.472  18.526  0.00  0.00    +0.000 HD
ENDBRANCH  25  26
ENDBRANCH  24  25
ENDBRANCH   5  24
TORSDOF 5
ENDMDL
MODEL 5
REMARK VINA RESULT:      -6.4      5.745      9.266
REMARK  Name = 
REMARK  6 active torsions:
REMARK  status: ('A' for Active; 'I' for Inactive)
REMARK    1  A    between atoms: C_1  and  S_2
REMARK    2  A    between atoms: S_2  and  C_3
REMARK    3  A    between atoms: C_8  and  N_9
REMARK    4  A    between atoms: N_13  and  C_14
REMARK    5  A    between atoms: C_14  and  C_15
REMARK    6  A    between atoms: C_15  and  O_16
REMARK                            x       y       z     vdW  Elec       q    Type
REMARK                         _______ _______ _______ _____ _____    ______ ____
ROOT
ATOM      1  N   UNL     1      -0.735  11.067  18.904  0.00  0.00    +0.000 N 
ATOM      2  C   UNL     1      -2.019  11.214  18.371  0.00  0.00    +0.000 A 
ATOM      3  N   UNL     1      -2.176  10.892  17.093  0.00  0.00    +0.000 NA
ATOM      4  C   UNL     1      -3.385  11.117  16.604  0.00  0.00    +0.000 A 
ATOM      5  N   UNL     1      -3.686  10.816  15.285  0.00  0.00    +0.000 N 
ATOM      6  N   UNL     1      -4.393  11.618  17.297  0.00  0.00    +0.000 NA
ATOM      7  C   UNL     1      -4.170  11.871  18.580  0.00  0.00    +0.000 A 
ATOM      8  N   UNL     1      -5.213  12.336  19.335  0.00  0.00    +0.000 N 
ATOM      9  C   UNL     1      -5.095  12.569  20.761  0.00  0.00    +0.000 C 
ATOM     10  C   UNL     1      -6.460  12.160  21.310  0.00  0.00    +0.000 C 
ATOM     11  C   UNL     1      -7.411  12.434  20.152  0.00  0.00    +0.000 C 
ATOM     12  C   UNL     1      -6.583  12.093  18.915  0.00  0.00    +0.000 C 
ATOM     13  N   UNL     1      -2.987  11.697  19.142  0.00  0.00    +0.000 NA
ATOM     14  H   UNL     1      -0.116  10.666  18.211  0.00  0.00    +0.000 HD
ATOM     15  H   UNL     1      -3.897  11.697  14.825  0.00  0.00    +0.000 HD
ENDROOT
BRANCH   1  21
ATOM     16  C   UNL     1       0.573   9.697  20.468  0.00  0.00    +0.000 A 
ATOM     17  C   UNL     1       0.843   9.291  21.784  0.00  0.00    +0.000 A 
ATOM     18  C   UNL     1       0.143   9.845  22.857  0.00  0.00    +0.000 A 
ATOM     19  C   UNL     1      -0.839  10.802  22.623  0.00  0.00    +0.000 A 
ATOM     20  C   UNL     1      -1.108  11.219  21.318  0.00  0.00    +0.000 A 
ATOM     21  C   UNL     1      -0.403  10.688  20.224  0.00  0.00    +0.000 A 
BRANCH  16  23
ATOM     22  C   UNL     1       2.066   7.413  20.032  0.00  0.00    +0.000 C 
ATOM     23  S   UNL     1       1.464   8.876  19.142  0.00  0.00    +0.000 S 
ENDBRANCH  16  23
ENDBRANCH   1  21
BRANCH   5  24
ATOM     24  C   UNL     1      -2.764   9.956  14.552  0.00  0.00    +0.000 C 
BRANCH  24  25
ATOM     25  C   UNL     1      -3.261   9.776  13.110  0.00  0.00    +0.000 C 
BRANCH  25  26
ATOM     26  O   UNL     1      -2.157   9.497  12.243  0.00  0.00    +0.000 OA
ATOM     27  H   UNL     1      -2.514   8.877  11.575  0.00  0.00    +0.000 HD
ENDBRANCH  25  26
ENDBRANCH  24  25
ENDBRANCH   5  24
TORSDOF 5
ENDMDL
MODEL 6
REMARK VINA RESULT:      -6.3      5.411      8.743
REMARK  Name = 
REMARK  6 active torsions:
REMARK  status: ('A' for Active; 'I' for Inactive)
REMARK    1  A    between atoms: C_1  and  S_2
REMARK    2  A    between atoms: S_2  and  C_3
REMARK    3  A    between atoms: C_8  and  N_9
REMARK    4  A    between atoms: N_13  and  C_14
REMARK    5  A    between atoms: C_14  and  C_15
REMARK    6  A    between atoms: C_15  and  O_16
REMARK                            x       y       z     vdW  Elec       q    Type
REMARK                         _______ _______ _______ _____ _____    ______ ____
ROOT
ATOM      1  N   UNL     1      -0.375  10.467  18.138  0.00  0.00    +0.000 N 
ATOM      2  C   UNL     1      -1.682  10.854  17.831  0.00  0.00    +0.000 A 
ATOM      3  N   UNL     1      -2.102  10.615  16.595  0.00  0.00    +0.000 NA
ATOM      4  C   UNL     1      -3.316  11.065  16.319  0.00  0.00    +0.000 A 
ATOM      5  N   UNL     1      -3.878  10.872  15.067  0.00  0.00    +0.000 N 
ATOM      6  N   UNL     1      -4.092  11.704  17.178  0.00  0.00    +0.000 NA
ATOM      7  C   UNL     1      -3.620  11.863  18.408  0.00  0.00    +0.000 A 
ATOM      8  N   UNL     1      -4.426  12.469  19.332  0.00  0.00    +0.000 N 
ATOM      9  C   UNL     1      -4.036  12.622  20.721  0.00  0.00    +0.000 C 
ATOM     10  C   UNL     1      -5.342  12.433  21.487  0.00  0.00    +0.000 C 
ATOM     11  C   UNL     1      -6.407  12.912  20.510  0.00  0.00    +0.000 C 
ATOM     12  C   UNL     1      -5.867  12.483  19.147  0.00  0.00    +0.000 C 
ATOM     13  N   UNL     1      -2.410  11.466  18.759  0.00  0.00    +0.000 NA
ATOM     14  H   UNL     1       0.042   9.993  17.346  0.00  0.00    +0.000 HD
ATOM     15  H   UNL     1      -4.003  11.794  14.659  0.00  0.00    +0.000 HD
ENDROOT
BRANCH   1  21
ATOM     16  C   UNL     1       1.197   9.099  19.439  0.00  0.00    +0.000 A 
ATOM     17  C   UNL     1       1.611   8.583  20.677  0.00  0.00    +0.000 A 
ATOM     18  C   UNL     1       0.935   8.920  21.851  0.00  0.00    +0.000 A 
ATOM     19  C   UNL     1      -0.166   9.769  21.796  0.00  0.00    +0.000 A 
ATOM     20  C   UNL     1      -0.579  10.296  20.571  0.00  0.00    +0.000 A 
ATOM     21  C   UNL     1       0.098   9.984  19.378  0.00  0.00    +0.000 A 
BRANCH  16  23
ATOM     22  C   UNL     1       2.564   6.887  18.506  0.00  0.00    +0.000 C 
ATOM     23  S   UNL     1       2.073   8.551  17.971  0.00  0.00    +0.000 S 
ENDBRANCH  16  23
ENDBRANCH   1  21
BRANCH   5  24
ATOM     24  C   UNL     1      -3.255   9.897  14.180  0.00  0.00    +0.000 C 
BRANCH  24  25
ATOM     25  C   UNL     1      -4.045   9.816  12.865  0.00  0.00    +0.000 C 
BRANCH  25  26
ATOM     26  O   UNL     1      -3.154   9.569  11.774  0.00  0.00    +0.000 OA
ATOM     27  H   UNL     1      -3.524   8.783  11.321  0.00  0.00    +0.000 HD
ENDBRANCH  25  26
ENDBRANCH  24  25
ENDBRANCH   5  24
TORSDOF 5
ENDMDL
MODEL 7
REMARK VINA RESULT:      -6.3      3.165      6.809
REMARK  Name = 
REMARK  6 active torsions:
REMARK  status: ('A' for Active; 'I' for Inactive)
REMARK    1  A    between atoms: C_1  and  S_2
REMARK    2  A    between atoms: S_2  and  C_3
REMARK    3  A    between atoms: C_8  and  N_9
REMARK    4  A    between atoms: N_13  and  C_14
REMARK    5  A    between atoms: C_14  and  C_15
REMARK    6  A    between atoms: C_15  and  O_16
REMARK                            x       y       z     vdW  Elec       q    Type
REMARK                         _______ _______ _______ _____ _____    ______ ____
ROOT
ATOM      1  N   UNL     1       1.969   7.023  20.422  0.00  0.00    +0.000 N 
ATOM      2  C   UNL     1       2.767   5.976  19.951  0.00  0.00    +0.000 A 
ATOM      3  N   UNL     1       2.347   4.744  20.204  0.00  0.00    +0.000 NA
ATOM      4  C   UNL     1       3.166   3.781  19.812  0.00  0.00    +0.000 A 
ATOM      5  N   UNL     1       2.842   2.447  20.007  0.00  0.00    +0.000 N 
ATOM      6  N   UNL     1       4.324   3.982  19.206  0.00  0.00    +0.000 NA
ATOM      7  C   UNL     1       4.652   5.242  18.946  0.00  0.00    +0.000 A 
ATOM      8  N   UNL     1       5.817   5.475  18.268  0.00  0.00    +0.000 N 
ATOM      9  C   UNL     1       6.229   6.807  17.868  0.00  0.00    +0.000 C 
ATOM     10  C   UNL     1       6.897   6.588  16.512  0.00  0.00    +0.000 C 
ATOM     11  C   UNL     1       7.446   5.171  16.605  0.00  0.00    +0.000 C 
ATOM     12  C   UNL     1       6.403   4.432  17.442  0.00  0.00    +0.000 C 
ATOM     13  N   UNL     1       3.903   6.262  19.324  0.00  0.00    +0.000 NA
ATOM     14  H   UNL     1       1.130   6.653  20.851  0.00  0.00    +0.000 HD
ATOM     15  H   UNL     1       3.534   2.070  20.648  0.00  0.00    +0.000 HD
ENDROOT
BRANCH   1  21
ATOM     16  C   UNL     1       1.189   9.351  20.520  0.00  0.00    +0.000 A 
ATOM     17  C   UNL     1       0.938  10.568  19.870  0.00  0.00    +0.000 A 
ATOM     18  C   UNL     1       1.233  10.726  18.515  0.00  0.00    +0.000 A 
ATOM     19  C   UNL     1       1.774   9.665  17.796  0.00  0.00    +0.000 A 
ATOM     20  C   UNL     1       2.037   8.453  18.437  0.00  0.00    +0.000 A 
ATOM     21  C   UNL     1       1.764   8.277  19.805  0.00  0.00    +0.000 A 
BRANCH  16  23
ATOM     22  C   UNL     1      -0.481  10.578  22.347  0.00  0.00    +0.000 C 
ATOM     23  S   UNL     1       0.706   9.209  22.244  0.00  0.00    +0.000 S 
ENDBRANCH  16  23
ENDBRANCH   1  21
BRANCH   5  24
ATOM     24  C   UNL     1       1.462   2.121  20.345  0.00  0.00    +0.000 C 
BRANCH  24  25
ATOM     25  C   UNL     1       0.614   2.071  19.065  0.00  0.00    +0.000 C 
BRANCH  25  26
ATOM     26  O   UNL     1       1.447   1.774  17.940  0.00  0.00    +0.000 OA
ATOM     27  H   UNL     1       2.009   2.568  17.828  0.00  0.00    +0.000 HD
ENDBRANCH  25  26
ENDBRANCH  24  25
ENDBRANCH   5  24
TORSDOF 5
ENDMDL
MODEL 8
REMARK VINA RESULT:      -6.2      3.138      6.304
REMARK  Name = 
REMARK  6 active torsions:
REMARK  status: ('A' for Active; 'I' for Inactive)
REMARK    1  A    between atoms: C_1  and  S_2
REMARK    2  A    between atoms: S_2  and  C_3
REMARK    3  A    between atoms: C_8  and  N_9
REMARK    4  A    between atoms: N_13  and  C_14
REMARK    5  A    between atoms: C_14  and  C_15
REMARK    6  A    between atoms: C_15  and  O_16
REMARK                            x       y       z     vdW  Elec       q    Type
REMARK                         _______ _______ _______ _____ _____    ______ ____
ROOT
ATOM      1  N   UNL     1       2.342   8.506  18.529  0.00  0.00    +0.000 N 
ATOM      2  C   UNL     1       2.968   7.302  18.198  0.00  0.00    +0.000 A 
ATOM      3  N   UNL     1       4.195   7.383  17.699  0.00  0.00    +0.000 NA
ATOM      4  C   UNL     1       4.726   6.230  17.325  0.00  0.00    +0.000 A 
ATOM      5  N   UNL     1       6.006   6.173  16.797  0.00  0.00    +0.000 N 
ATOM      6  N   UNL     1       4.121   5.059  17.426  0.00  0.00    +0.000 NA
ATOM      7  C   UNL     1       2.914   5.054  17.978  0.00  0.00    +0.000 A 
ATOM      8  N   UNL     1       2.290   3.848  18.147  0.00  0.00    +0.000 N 
ATOM      9  C   UNL     1       1.005   3.726  18.808  0.00  0.00    +0.000 C 
ATOM     10  C   UNL     1       1.116   2.410  19.576  0.00  0.00    +0.000 C 
ATOM     11  C   UNL     1       2.086   1.586  18.741  0.00  0.00    +0.000 C 
ATOM     12  C   UNL     1       3.070   2.623  18.200  0.00  0.00    +0.000 C 
ATOM     13  N   UNL     1       2.303   6.162  18.356  0.00  0.00    +0.000 NA
ATOM     14  H   UNL     1       2.977   9.280  18.381  0.00  0.00    +0.000 HD
ATOM     15  H   UNL     1       5.912   5.853  15.838  0.00  0.00    +0.000 HD
ENDROOT
BRANCH   1  21
ATOM     16  C   UNL     1       0.353   9.616  19.451  0.00  0.00    +0.000 A 
ATOM     17  C   UNL     1      -0.491   9.870  20.543  0.00  0.00    +0.000 A 
ATOM     18  C   UNL     1      -0.254   9.269  21.781  0.00  0.00    +0.000 A 
ATOM     19  C   UNL     1       0.833   8.415  21.939  0.00  0.00    +0.000 A 
ATOM     20  C   UNL     1       1.672   8.149  20.856  0.00  0.00    +0.000 A 
ATOM     21  C   UNL     1       1.443   8.729  19.596  0.00  0.00    +0.000 A 
BRANCH  16  23
ATOM     22  C   UNL     1      -1.499  11.365  18.383  0.00  0.00    +0.000 C 
ATOM     23  S   UNL     1       0.023  10.493  17.919  0.00  0.00    +0.000 S 
ENDBRANCH  16  23
ENDBRANCH   1  21
BRANCH   5  24
ATOM     24  C   UNL     1       6.867   7.339  16.964  0.00  0.00    +0.000 C 
BRANCH  24  25
ATOM     25  C   UNL     1       7.829   7.106  18.139  0.00  0.00    +0.000 C 
BRANCH  25  26
ATOM     26  O   UNL     1       7.840   5.720  18.494  0.00  0.00    +0.000 OA
ATOM     27  H   UNL     1       6.908   5.434  18.410  0.00  0.00    +0.000 HD
ENDBRANCH  25  26
ENDBRANCH  24  25
ENDBRANCH   5  24
TORSDOF 5
ENDMDL
MODEL 9
REMARK VINA RESULT:      -5.8      8.456     10.226
REMARK  Name = 
REMARK  6 active torsions:
REMARK  status: ('A' for Active; 'I' for Inactive)
REMARK    1  A    between atoms: C_1  and  S_2
REMARK    2  A    between atoms: S_2  and  C_3
REMARK    3  A    between atoms: C_8  and  N_9
REMARK    4  A    between atoms: N_13  and  C_14
REMARK    5  A    between atoms: C_14  and  C_15
REMARK    6  A    between atoms: C_15  and  O_16
REMARK                            x       y       z     vdW  Elec       q    Type
REMARK                         _______ _______ _______ _____ _____    ______ ____
ROOT
ATOM      1  N   UNL     1      -3.443  12.088  19.019  0.00  0.00    +0.000 N 
ATOM      2  C   UNL     1      -2.432  12.507  19.888  0.00  0.00    +0.000 A 
ATOM      3  N   UNL     1      -2.707  12.473  21.186  0.00  0.00    +0.000 NA
ATOM      4  C   UNL     1      -1.756  12.950  21.973  0.00  0.00    +0.000 A 
ATOM      5  N   UNL     1      -1.912  12.963  23.351  0.00  0.00    +0.000 N 
ATOM      6  N   UNL     1      -0.601  13.429  21.546  0.00  0.00    +0.000 NA
ATOM      7  C   UNL     1      -0.380  13.386  20.239  0.00  0.00    +0.000 A 
ATOM      8  N   UNL     1       0.831  13.822  19.776  0.00  0.00    +0.000 N 
ATOM      9  C   UNL     1       1.200  13.746  18.375  0.00  0.00    +0.000 C 
ATOM     10  C   UNL     1       2.691  13.417  18.410  0.00  0.00    +0.000 C 
ATOM     11  C   UNL     1       3.167  14.042  19.715  0.00  0.00    +0.000 C 
ATOM     12  C   UNL     1       1.983  13.852  20.661  0.00  0.00    +0.000 C 
ATOM     13  N   UNL     1      -1.285  12.948  19.382  0.00  0.00    +0.000 NA
ATOM     14  H   UNL     1      -4.240  11.757  19.548  0.00  0.00    +0.000 HD
ATOM     15  H   UNL     1      -1.922  13.938  23.633  0.00  0.00    +0.000 HD
ENDROOT
BRANCH   1  21
ATOM     16  C   UNL     1      -4.277  11.464  16.794  0.00  0.00    +0.000 A 
ATOM     17  C   UNL     1      -4.120  10.733  15.606  0.00  0.00    +0.000 A 
ATOM     18  C   UNL     1      -2.992   9.935  15.406  0.00  0.00    +0.000 A 
ATOM     19  C   UNL     1      -2.016   9.855  16.394  0.00  0.00    +0.000 A 
ATOM     20  C   UNL     1      -2.159  10.586  17.574  0.00  0.00    +0.000 A 
ATOM     21  C   UNL     1      -3.277  11.410  17.790  0.00  0.00    +0.000 A 
BRANCH  16  23
ATOM     22  C   UNL     1      -6.709  11.272  18.092  0.00  0.00    +0.000 C 
ATOM     23  S   UNL     1      -5.794  12.401  17.003  0.00  0.00    +0.000 S 
ENDBRANCH  16  23
ENDBRANCH   1  21
BRANCH   5  24
ATOM     24  C   UNL     1      -2.982  12.155  23.925  0.00  0.00    +0.000 C 
BRANCH  24  25
ATOM     25  C   UNL     1      -4.060  13.074  24.520  0.00  0.00    +0.000 C 
BRANCH  25  26
ATOM     26  O   UNL     1      -4.570  12.507  25.731  0.00  0.00    +0.000 OA
ATOM     27  H   UNL     1      -4.120  11.641  25.810  0.00  0.00    +0.000 HD
ENDBRANCH  25  26
ENDBRANCH  24  25
ENDBRANCH   5  24
TORSDOF 5
ENDMDL
