MODEL 1
REMARK VINA RESULT:      -9.0      0.000      0.000
REMARK  Name = 
REMARK  6 active torsions:
REMARK  status: ('A' for Active; 'I' for Inactive)
REMARK    1  A    between atoms: C_2  and  C_3
REMARK    2  A    between atoms: C_2  and  O_13
REMARK    3  A    between atoms: C_4  and  C_5
REMARK    4  A    between atoms: C_8  and  O_9
REMARK    5  A    between atoms: C_10  and  O_11
REMARK    6  A    between atoms: O_13  and  C_14
REMARK                            x       y       z     vdW  Elec       q    Type
REMARK                         _______ _______ _______ _____ _____    ______ ____
ROOT
ATOM      1  O   UNL     1       7.531   6.263  16.274  0.00  0.00    +0.000 OA
ATOM      2  C   UNL     1       7.408   6.813  17.349  0.00  0.00    +0.000 C 
ENDROOT
BRANCH   2   3
ATOM      3  C   UNL     1       7.845   8.222  17.567  0.00  0.00    +0.000 C 
ATOM      4  C   UNL     1       8.537   8.638  18.638  0.00  0.00    +0.000 C 
BRANCH   4   5
ATOM      5  C   UNL     1       9.014  10.019  18.828  0.00  0.00    +0.000 A 
ATOM      6  C   UNL     1       9.808  10.403  19.926  0.00  0.00    +0.000 A 
ATOM      7  C   UNL     1      10.243  11.725  20.076  0.00  0.00    +0.000 A 
ATOM      8  C   UNL     1       9.900  12.663  19.114  0.00  0.00    +0.000 A 
ATOM      9  C   UNL     1       9.127  12.291  18.018  0.00  0.00    +0.000 A 
ATOM     10  C   UNL     1       8.685  10.984  17.863  0.00  0.00    +0.000 A 
BRANCH   8  11
ATOM     11  O   UNL     1      10.303  13.966  19.200  0.00  0.00    +0.000 OA
ATOM     12  H   UNL     1       9.513  14.521  19.318  0.00  0.00    +0.000 HD
ENDBRANCH   8  11
BRANCH   9  13
ATOM     13  O   UNL     1       8.799  13.222  17.074  0.00  0.00    +0.000 OA
ATOM     14  H   UNL     1       8.199  12.750  16.463  0.00  0.00    +0.000 HD
ENDBRANCH   9  13
ENDBRANCH   4   5
ENDBRANCH   2   3
BRANCH   2  15
ATOM     15  O   UNL     1       6.860   6.258  18.512  0.00  0.00    +0.000 OA
BRANCH  15  16
ATOM     16  C   UNL     1       5.576   5.655  18.554  0.00  0.00    +0.000 A 
ATOM     17  C   UNL     1       4.559   6.244  17.791  0.00  0.00    +0.000 A 
ATOM     18  C   UNL     1       3.316   5.610  17.662  0.00  0.00    +0.000 A 
ATOM     19  C   UNL     1       3.113   4.348  18.241  0.00  0.00    +0.000 A 
ATOM     20  C   UNL     1       4.146   3.759  18.989  0.00  0.00    +0.000 A 
ATOM     21  C   UNL     1       5.365   4.424  19.176  0.00  0.00    +0.000 A 
ATOM     22  C   UNL     1       3.968   2.400  19.574  0.00  0.00    +0.000 C 
ATOM     23  O   UNL     1       4.764   1.947  20.384  0.00  0.00    +0.000 OA
ATOM     24  O   UNL     1       2.893   1.683  19.145  0.00  0.00    +0.000 OA
ATOM     25  C   UNL     1       2.142   2.129  18.002  0.00  0.00    +0.000 C 
ATOM     26  C   UNL     1       1.815   3.609  18.108  0.00  0.00    +0.000 C 
ENDBRANCH  15  16
ENDBRANCH   2  15
TORSDOF 6
ENDMDL
MODEL 2
REMARK VINA RESULT:      -8.9      0.654      1.400
REMARK  Name = 
REMARK  6 active torsions:
REMARK  status: ('A' for Active; 'I' for Inactive)
REMARK    1  A    between atoms: C_2  and  C_3
REMARK    2  A    between atoms: C_2  and  O_13
REMARK    3  A    between atoms: C_4  and  C_5
REMARK    4  A    between atoms: C_8  and  O_9
REMARK    5  A    between atoms: C_10  and  O_11
REMARK    6  A    between atoms: O_13  and  C_14
REMARK                            x       y       z     vdW  Elec       q    Type
REMARK                         _______ _______ _______ _____ _____    ______ ____
ROOT
ATOM      1  O   UNL     1       7.475   6.341  16.175  0.00  0.00    +0.000 OA
ATOM      2  C   UNL     1       7.398   6.872  17.264  0.00  0.00    +0.000 C 
ENDROOT
BRANCH   2   3
ATOM      3  C   UNL     1       7.857   8.274  17.489  0.00  0.00    +0.000 C 
ATOM      4  C   UNL     1       8.450   8.699  18.614  0.00  0.00    +0.000 C 
BRANCH   4   5
ATOM      5  C   UNL     1       8.950  10.071  18.816  0.00  0.00    +0.000 A 
ATOM      6  C   UNL     1       8.961  11.031  17.786  0.00  0.00    +0.000 A 
ATOM      7  C   UNL     1       9.444  12.326  18.012  0.00  0.00    +0.000 A 
ATOM      8  C   UNL     1       9.899  12.668  19.276  0.00  0.00    +0.000 A 
ATOM      9  C   UNL     1       9.879  11.730  20.304  0.00  0.00    +0.000 A 
ATOM     10  C   UNL     1       9.408  10.442  20.090  0.00  0.00    +0.000 A 
BRANCH   8  11
ATOM     11  O   UNL     1      10.373  13.918  19.560  0.00  0.00    +0.000 OA
ATOM     12  H   UNL     1      11.245  13.824  19.978  0.00  0.00    +0.000 HD
ENDBRANCH   8  11
BRANCH   9  13
ATOM     13  O   UNL     1      10.324  12.078  21.547  0.00  0.00    +0.000 OA
ATOM     14  H   UNL     1      10.716  11.258  21.905  0.00  0.00    +0.000 HD
ENDBRANCH   9  13
ENDBRANCH   4   5
ENDBRANCH   2   3
BRANCH   2  15
ATOM     15  O   UNL     1       6.889   6.303  18.436  0.00  0.00    +0.000 OA
BRANCH  15  16
ATOM     16  C   UNL     1       5.589   5.741  18.526  0.00  0.00    +0.000 A 
ATOM     17  C   UNL     1       4.556   6.386  17.834  0.00  0.00    +0.000 A 
ATOM     18  C   UNL     1       3.287   5.797  17.750  0.00  0.00    +0.000 A 
ATOM     19  C   UNL     1       3.070   4.525  18.299  0.00  0.00    +0.000 A 
ATOM     20  C   UNL     1       4.119   3.879  18.975  0.00  0.00    +0.000 A 
ATOM     21  C   UNL     1       5.368   4.497  19.119  0.00  0.00    +0.000 A 
ATOM     22  C   UNL     1       3.925   2.507  19.526  0.00  0.00    +0.000 C 
ATOM     23  O   UNL     1       4.745   2.003  20.280  0.00  0.00    +0.000 OA
ATOM     24  O   UNL     1       2.806   1.840  19.130  0.00  0.00    +0.000 OA
ATOM     25  C   UNL     1       2.014   2.347  18.042  0.00  0.00    +0.000 C 
ATOM     26  C   UNL     1       1.744   3.832  18.211  0.00  0.00    +0.000 C 
ENDBRANCH  15  16
ENDBRANCH   2  15
TORSDOF 6
ENDMDL
MODEL 3
REMARK VINA RESULT:      -8.8      1.676      2.197
REMARK  Name = 
REMARK  6 active torsions:
REMARK  status: ('A' for Active; 'I' for Inactive)
REMARK    1  A    between atoms: C_2  and  C_3
REMARK    2  A    between atoms: C_2  and  O_13
REMARK    3  A    between atoms: C_4  and  C_5
REMARK    4  A    between atoms: C_8  and  O_9
REMARK    5  A    between atoms: C_10  and  O_11
REMARK    6  A    between atoms: O_13  and  C_14
REMARK                            x       y       z     vdW  Elec       q    Type
REMARK                         _______ _______ _______ _____ _____    ______ ____
ROOT
ATOM      1  O   UNL     1       8.083   6.678  18.580  0.00  0.00    +0.000 OA
ATOM      2  C   UNL     1       7.716   7.562  17.833  0.00  0.00    +0.000 C 
ENDROOT
BRANCH   2   3
ATOM      3  C   UNL     1       8.229   8.957  17.954  0.00  0.00    +0.000 C 
ATOM      4  C   UNL     1       8.942   9.409  18.997  0.00  0.00    +0.000 C 
BRANCH   4   5
ATOM      5  C   UNL     1       9.493  10.772  19.091  0.00  0.00    +0.000 A 
ATOM      6  C   UNL     1       9.892  11.344  20.314  0.00  0.00    +0.000 A 
ATOM      7  C   UNL     1      10.411  12.644  20.368  0.00  0.00    +0.000 A 
ATOM      8  C   UNL     1      10.549  13.366  19.193  0.00  0.00    +0.000 A 
ATOM      9  C   UNL     1      10.170  12.805  17.977  0.00  0.00    +0.000 A 
ATOM     10  C   UNL     1       9.649  11.520  17.913  0.00  0.00    +0.000 A 
BRANCH   8  11
ATOM     11  O   UNL     1      11.058  14.634  19.181  0.00  0.00    +0.000 OA
ATOM     12  H   UNL     1      10.828  15.063  20.022  0.00  0.00    +0.000 HD
ENDBRANCH   8  11
BRANCH   9  13
ATOM     13  O   UNL     1      10.315  13.523  16.825  0.00  0.00    +0.000 OA
ATOM     14  H   UNL     1       9.509  13.325  16.310  0.00  0.00    +0.000 HD
ENDBRANCH   9  13
ENDBRANCH   4   5
ENDBRANCH   2   3
BRANCH   2  15
ATOM     15  O   UNL     1       6.803   7.438  16.779  0.00  0.00    +0.000 OA
BRANCH  15  16
ATOM     16  C   UNL     1       5.721   6.521  16.792  0.00  0.00    +0.000 A 
ATOM     17  C   UNL     1       5.887   5.314  16.100  0.00  0.00    +0.000 A 
ATOM     18  C   UNL     1       4.924   4.301  16.205  0.00  0.00    +0.000 A 
ATOM     19  C   UNL     1       3.826   4.469  17.062  0.00  0.00    +0.000 A 
ATOM     20  C   UNL     1       3.679   5.676  17.765  0.00  0.00    +0.000 A 
ATOM     21  C   UNL     1       4.605   6.715  17.606  0.00  0.00    +0.000 A 
ATOM     22  C   UNL     1       2.545   5.858  18.715  0.00  0.00    +0.000 C 
ATOM     23  O   UNL     1       2.282   6.955  19.189  0.00  0.00    +0.000 OA
ATOM     24  O   UNL     1       1.836   4.744  19.045  0.00  0.00    +0.000 OA
ATOM     25  C   UNL     1       2.337   3.442  18.691  0.00  0.00    +0.000 C 
ATOM     26  C   UNL     1       2.783   3.407  17.239  0.00  0.00    +0.000 C 
ENDBRANCH  15  16
ENDBRANCH   2  15
TORSDOF 6
ENDMDL
MODEL 4
REMARK VINA RESULT:      -8.7      3.653      6.661
REMARK  Name = 
REMARK  6 active torsions:
REMARK  status: ('A' for Active; 'I' for Inactive)
REMARK    1  A    between atoms: C_2  and  C_3
REMARK    2  A    between atoms: C_2  and  O_13
REMARK    3  A    between atoms: C_4  and  C_5
REMARK    4  A    between atoms: C_8  and  O_9
REMARK    5  A    between atoms: C_10  and  O_11
REMARK    6  A    between atoms: O_13  and  C_14
REMARK                            x       y       z     vdW  Elec       q    Type
REMARK                         _______ _______ _______ _____ _____    ______ ____
ROOT
ATOM      1  O   UNL     1       2.273   3.448  22.048  0.00  0.00    +0.000 OA
ATOM      2  C   UNL     1       2.266   3.854  20.904  0.00  0.00    +0.000 C 
ENDROOT
BRANCH   2   3
ATOM      3  C   UNL     1       1.673   5.174  20.542  0.00  0.00    +0.000 C 
ATOM      4  C   UNL     1       2.329   6.341  20.626  0.00  0.00    +0.000 C 
BRANCH   4   5
ATOM      5  C   UNL     1       1.760   7.638  20.219  0.00  0.00    +0.000 A 
ATOM      6  C   UNL     1       0.940   8.406  21.068  0.00  0.00    +0.000 A 
ATOM      7  C   UNL     1       0.415   9.634  20.649  0.00  0.00    +0.000 A 
ATOM      8  C   UNL     1       0.726  10.106  19.383  0.00  0.00    +0.000 A 
ATOM      9  C   UNL     1       1.547   9.361  18.541  0.00  0.00    +0.000 A 
ATOM     10  C   UNL     1       2.067   8.139  18.944  0.00  0.00    +0.000 A 
BRANCH   8  11
ATOM     11  O   UNL     1       0.253  11.301  18.921  0.00  0.00    +0.000 OA
ATOM     12  H   UNL     1      -0.200  11.753  19.654  0.00  0.00    +0.000 HD
ENDBRANCH   8  11
BRANCH   9  13
ATOM     13  O   UNL     1       1.851   9.837  17.298  0.00  0.00    +0.000 OA
ATOM     14  H   UNL     1       2.311   9.095  16.857  0.00  0.00    +0.000 HD
ENDBRANCH   9  13
ENDBRANCH   4   5
ENDBRANCH   2   3
BRANCH   2  15
ATOM     15  O   UNL     1       2.788   3.199  19.783  0.00  0.00    +0.000 OA
BRANCH  15  16
ATOM     16  C   UNL     1       3.785   3.765  18.947  0.00  0.00    +0.000 A 
ATOM     17  C   UNL     1       3.445   4.014  17.611  0.00  0.00    +0.000 A 
ATOM     18  C   UNL     1       4.327   4.716  16.777  0.00  0.00    +0.000 A 
ATOM     19  C   UNL     1       5.521   5.232  17.301  0.00  0.00    +0.000 A 
ATOM     20  C   UNL     1       5.843   4.992  18.648  0.00  0.00    +0.000 A 
ATOM     21  C   UNL     1       4.995   4.231  19.463  0.00  0.00    +0.000 A 
ATOM     22  C   UNL     1       7.084   5.570  19.237  0.00  0.00    +0.000 C 
ATOM     23  O   UNL     1       7.487   5.221  20.338  0.00  0.00    +0.000 OA
ATOM     24  O   UNL     1       7.729   6.516  18.502  0.00  0.00    +0.000 OA
ATOM     25  C   UNL     1       7.087   7.095  17.352  0.00  0.00    +0.000 C 
ATOM     26  C   UNL     1       6.486   6.018  16.465  0.00  0.00    +0.000 C 
ENDBRANCH  15  16
ENDBRANCH   2  15
TORSDOF 6
ENDMDL
MODEL 5
REMARK VINA RESULT:      -8.6      1.759      2.582
REMARK  Name = 
REMARK  6 active torsions:
REMARK  status: ('A' for Active; 'I' for Inactive)
REMARK    1  A    between atoms: C_2  and  C_3
REMARK    2  A    between atoms: C_2  and  O_13
REMARK    3  A    between atoms: C_4  and  C_5
REMARK    4  A    between atoms: C_8  and  O_9
REMARK    5  A    between atoms: C_10  and  O_11
REMARK    6  A    between atoms: O_13  and  C_14
REMARK                            x       y       z     vdW  Elec       q    Type
REMARK                         _______ _______ _______ _____ _____    ______ ____
ROOT
ATOM      1  O   UNL     1       8.053   6.691  18.840  0.00  0.00    +0.000 OA
ATOM      2  C   UNL     1       7.771   7.367  17.872  0.00  0.00    +0.000 C 
ENDROOT
BRANCH   2   3
ATOM      3  C   UNL     1       8.120   8.815  17.795  0.00  0.00    +0.000 C 
ATOM      4  C   UNL     1       8.902   9.448  18.681  0.00  0.00    +0.000 C 
BRANCH   4   5
ATOM      5  C   UNL     1       9.288  10.867  18.575  0.00  0.00    +0.000 A 
ATOM      6  C   UNL     1       8.556  11.796  17.811  0.00  0.00    +0.000 A 
ATOM      7  C   UNL     1       8.952  13.136  17.731  0.00  0.00    +0.000 A 
ATOM      8  C   UNL     1      10.072  13.554  18.432  0.00  0.00    +0.000 A 
ATOM      9  C   UNL     1      10.795  12.647  19.201  0.00  0.00    +0.000 A 
ATOM     10  C   UNL     1      10.415  11.313  19.282  0.00  0.00    +0.000 A 
BRANCH   8  11
ATOM     11  O   UNL     1      10.502  14.851  18.402  0.00  0.00    +0.000 OA
ATOM     12  H   UNL     1      11.342  14.881  17.912  0.00  0.00    +0.000 HD
ENDBRANCH   8  11
BRANCH   9  13
ATOM     13  O   UNL     1      11.894  13.069  19.893  0.00  0.00    +0.000 OA
ATOM     14  H   UNL     1      11.558  13.272  20.787  0.00  0.00    +0.000 HD
ENDBRANCH   9  13
ENDBRANCH   4   5
ENDBRANCH   2   3
BRANCH   2  15
ATOM     15  O   UNL     1       7.112   6.933  16.716  0.00  0.00    +0.000 OA
BRANCH  15  16
ATOM     16  C   UNL     1       5.942   6.131  16.743  0.00  0.00    +0.000 A 
ATOM     17  C   UNL     1       6.023   4.848  16.186  0.00  0.00    +0.000 A 
ATOM     18  C   UNL     1       4.956   3.950  16.323  0.00  0.00    +0.000 A 
ATOM     19  C   UNL     1       3.832   4.312  17.080  0.00  0.00    +0.000 A 
ATOM     20  C   UNL     1       3.769   5.595  17.649  0.00  0.00    +0.000 A 
ATOM     21  C   UNL     1       4.805   6.517  17.454  0.00  0.00    +0.000 A 
ATOM     22  C   UNL     1       2.605   5.984  18.496  0.00  0.00    +0.000 C 
ATOM     23  O   UNL     1       2.429   7.145  18.840  0.00  0.00    +0.000 OA
ATOM     24  O   UNL     1       1.767   4.984  18.883  0.00  0.00    +0.000 OA
ATOM     25  C   UNL     1       2.150   3.611  18.694  0.00  0.00    +0.000 C 
ATOM     26  C   UNL     1       2.676   3.381  17.287  0.00  0.00    +0.000 C 
ENDBRANCH  15  16
ENDBRANCH   2  15
TORSDOF 6
ENDMDL
MODEL 6
REMARK VINA RESULT:      -8.6      3.762      6.692
REMARK  Name = 
REMARK  6 active torsions:
REMARK  status: ('A' for Active; 'I' for Inactive)
REMARK    1  A    between atoms: C_2  and  C_3
REMARK    2  A    between atoms: C_2  and  O_13
REMARK    3  A    between atoms: C_4  and  C_5
REMARK    4  A    between atoms: C_8  and  O_9
REMARK    5  A    between atoms: C_10  and  O_11
REMARK    6  A    between atoms: O_13  and  C_14
REMARK                            x       y       z     vdW  Elec       q    Type
REMARK                         _______ _______ _______ _____ _____    ______ ____
ROOT
ATOM      1  O   UNL     1       2.301   3.557  22.062  0.00  0.00    +0.000 OA
ATOM      2  C   UNL     1       2.336   3.905  20.900  0.00  0.00    +0.000 C 
ENDROOT
BRANCH   2   3
ATOM      3  C   UNL     1       1.813   5.231  20.460  0.00  0.00    +0.000 C 
ATOM      4  C   UNL     1       2.584   6.233  20.013  0.00  0.00    +0.000 C 
BRANCH   4   5
ATOM      5  C   UNL     1       2.062   7.524  19.529  0.00  0.00    +0.000 A 
ATOM      6  C   UNL     1       2.190   7.939  18.190  0.00  0.00    +0.000 A 
ATOM      7  C   UNL     1       1.683   9.172  17.764  0.00  0.00    +0.000 A 
ATOM      8  C   UNL     1       1.028   9.985  18.676  0.00  0.00    +0.000 A 
ATOM      9  C   UNL     1       0.884   9.579  19.999  0.00  0.00    +0.000 A 
ATOM     10  C   UNL     1       1.388   8.360  20.433  0.00  0.00    +0.000 A 
BRANCH   8  11
ATOM     11  O   UNL     1       0.503  11.195  18.318  0.00  0.00    +0.000 OA
ATOM     12  H   UNL     1      -0.054  11.064  17.532  0.00  0.00    +0.000 HD
ENDBRANCH   8  11
BRANCH   9  13
ATOM     13  O   UNL     1       0.232  10.384  20.888  0.00  0.00    +0.000 OA
ATOM     14  H   UNL     1      -0.571   9.884  21.129  0.00  0.00    +0.000 HD
ENDBRANCH   9  13
ENDBRANCH   4   5
ENDBRANCH   2   3
BRANCH   2  15
ATOM     15  O   UNL     1       2.850   3.172  19.824  0.00  0.00    +0.000 OA
BRANCH  15  16
ATOM     16  C   UNL     1       3.875   3.658  18.972  0.00  0.00    +0.000 A 
ATOM     17  C   UNL     1       3.589   3.753  17.604  0.00  0.00    +0.000 A 
ATOM     18  C   UNL     1       4.498   4.372  16.734  0.00  0.00    +0.000 A 
ATOM     19  C   UNL     1       5.663   4.961  17.245  0.00  0.00    +0.000 A 
ATOM     20  C   UNL     1       5.930   4.876  18.622  0.00  0.00    +0.000 A 
ATOM     21  C   UNL     1       5.057   4.197  19.482  0.00  0.00    +0.000 A 
ATOM     22  C   UNL     1       7.139   5.534  19.194  0.00  0.00    +0.000 C 
ATOM     23  O   UNL     1       7.500   5.315  20.343  0.00  0.00    +0.000 OA
ATOM     24  O   UNL     1       7.805   6.403  18.386  0.00  0.00    +0.000 OA
ATOM     25  C   UNL     1       7.206   6.842  17.154  0.00  0.00    +0.000 C 
ATOM     26  C   UNL     1       6.654   5.664  16.368  0.00  0.00    +0.000 C 
ENDBRANCH  15  16
ENDBRANCH   2  15
TORSDOF 6
ENDMDL
MODEL 7
REMARK VINA RESULT:      -8.5      4.751      6.557
REMARK  Name = 
REMARK  6 active torsions:
REMARK  status: ('A' for Active; 'I' for Inactive)
REMARK    1  A    between atoms: C_2  and  C_3
REMARK    2  A    between atoms: C_2  and  O_13
REMARK    3  A    between atoms: C_4  and  C_5
REMARK    4  A    between atoms: C_8  and  O_9
REMARK    5  A    between atoms: C_10  and  O_11
REMARK    6  A    between atoms: O_13  and  C_14
REMARK                            x       y       z     vdW  Elec       q    Type
REMARK                         _______ _______ _______ _____ _____    ______ ____
ROOT
ATOM      1  O   UNL     1       1.053   2.909  20.959  0.00  0.00    +0.000 OA
ATOM      2  C   UNL     1       1.830   3.796  20.672  0.00  0.00    +0.000 C 
ENDROOT
BRANCH   2   3
ATOM      3  C   UNL     1       1.372   5.196  20.434  0.00  0.00    +0.000 C 
ATOM      4  C   UNL     1       2.184   6.263  20.437  0.00  0.00    +0.000 C 
BRANCH   4   5
ATOM      5  C   UNL     1       1.739   7.639  20.150  0.00  0.00    +0.000 A 
ATOM      6  C   UNL     1       1.090   8.440  21.109  0.00  0.00    +0.000 A 
ATOM      7  C   UNL     1       0.679   9.743  20.804  0.00  0.00    +0.000 A 
ATOM      8  C   UNL     1       0.937  10.254  19.541  0.00  0.00    +0.000 A 
ATOM      9  C   UNL     1       1.590   9.476  18.590  0.00  0.00    +0.000 A 
ATOM     10  C   UNL     1       1.996   8.180  18.881  0.00  0.00    +0.000 A 
BRANCH   8  11
ATOM     11  O   UNL     1       0.570  11.522  19.186  0.00  0.00    +0.000 OA
ATOM     12  H   UNL     1       0.696  11.618  18.226  0.00  0.00    +0.000 HD
ENDBRANCH   8  11
BRANCH   9  13
ATOM     13  O   UNL     1       1.844   9.990  17.351  0.00  0.00    +0.000 OA
ATOM     14  H   UNL     1       1.185   9.564  16.769  0.00  0.00    +0.000 HD
ENDBRANCH   9  13
ENDBRANCH   4   5
ENDBRANCH   2   3
BRANCH   2  15
ATOM     15  O   UNL     1       3.217   3.677  20.527  0.00  0.00    +0.000 OA
BRANCH  15  16
ATOM     16  C   UNL     1       3.866   3.647  19.266  0.00  0.00    +0.000 A 
ATOM     17  C   UNL     1       3.074   3.409  18.135  0.00  0.00    +0.000 A 
ATOM     18  C   UNL     1       3.623   3.524  16.851  0.00  0.00    +0.000 A 
ATOM     19  C   UNL     1       4.951   3.948  16.695  0.00  0.00    +0.000 A 
ATOM     20  C   UNL     1       5.731   4.201  17.836  0.00  0.00    +0.000 A 
ATOM     21  C   UNL     1       5.203   4.019  19.120  0.00  0.00    +0.000 A 
ATOM     22  C   UNL     1       7.130   4.697  17.694  0.00  0.00    +0.000 C 
ATOM     23  O   UNL     1       7.890   4.739  18.651  0.00  0.00    +0.000 OA
ATOM     24  O   UNL     1       7.508   5.119  16.456  0.00  0.00    +0.000 OA
ATOM     25  C   UNL     1       6.520   5.312  15.429  0.00  0.00    +0.000 C 
ATOM     26  C   UNL     1       5.581   4.120  15.346  0.00  0.00    +0.000 C 
ENDBRANCH  15  16
ENDBRANCH   2  15
TORSDOF 6
ENDMDL
MODEL 8
REMARK VINA RESULT:      -8.4      1.211      1.451
REMARK  Name = 
REMARK  6 active torsions:
REMARK  status: ('A' for Active; 'I' for Inactive)
REMARK    1  A    between atoms: C_2  and  C_3
REMARK    2  A    between atoms: C_2  and  O_13
REMARK    3  A    between atoms: C_4  and  C_5
REMARK    4  A    between atoms: C_8  and  O_9
REMARK    5  A    between atoms: C_10  and  O_11
REMARK    6  A    between atoms: O_13  and  C_14
REMARK                            x       y       z     vdW  Elec       q    Type
REMARK                         _______ _______ _______ _____ _____    ______ ____
ROOT
ATOM      1  O   UNL     1       8.242   6.802  18.865  0.00  0.00    +0.000 OA
ATOM      2  C   UNL     1       7.694   7.440  17.989  0.00  0.00    +0.000 C 
ENDROOT
BRANCH   2   3
ATOM      3  C   UNL     1       8.089   8.842  17.673  0.00  0.00    +0.000 C 
ATOM      4  C   UNL     1       8.815   9.621  18.488  0.00  0.00    +0.000 C 
BRANCH   4   5
ATOM      5  C   UNL     1       9.250  10.989  18.153  0.00  0.00    +0.000 A 
ATOM      6  C   UNL     1      10.607  11.358  18.088  0.00  0.00    +0.000 A 
ATOM      7  C   UNL     1      10.986  12.667  17.767  0.00  0.00    +0.000 A 
ATOM      8  C   UNL     1      10.004  13.606  17.490  0.00  0.00    +0.000 A 
ATOM      9  C   UNL     1       8.660  13.249  17.538  0.00  0.00    +0.000 A 
ATOM     10  C   UNL     1       8.274  11.955  17.862  0.00  0.00    +0.000 A 
BRANCH   8  11
ATOM     11  O   UNL     1      10.311  14.896  17.161  0.00  0.00    +0.000 OA
ATOM     12  H   UNL     1      10.372  15.413  17.982  0.00  0.00    +0.000 HD
ENDBRANCH   8  11
BRANCH   9  13
ATOM     13  O   UNL     1       7.701  14.179  17.259  0.00  0.00    +0.000 OA
ATOM     14  H   UNL     1       8.192  15.019  17.172  0.00  0.00    +0.000 HD
ENDBRANCH   9  13
ENDBRANCH   4   5
ENDBRANCH   2   3
BRANCH   2  15
ATOM     15  O   UNL     1       6.656   6.998  17.160  0.00  0.00    +0.000 OA
BRANCH  15  16
ATOM     16  C   UNL     1       5.445   6.450  17.656  0.00  0.00    +0.000 A 
ATOM     17  C   UNL     1       4.251   7.085  17.292  0.00  0.00    +0.000 A 
ATOM     18  C   UNL     1       3.016   6.506  17.615  0.00  0.00    +0.000 A 
ATOM     19  C   UNL     1       2.976   5.252  18.241  0.00  0.00    +0.000 A 
ATOM     20  C   UNL     1       4.181   4.616  18.585  0.00  0.00    +0.000 A 
ATOM     21  C   UNL     1       5.414   5.227  18.325  0.00  0.00    +0.000 A 
ATOM     22  C   UNL     1       4.163   3.262  19.210  0.00  0.00    +0.000 C 
ATOM     23  O   UNL     1       5.173   2.772  19.695  0.00  0.00    +0.000 OA
ATOM     24  O   UNL     1       2.977   2.594  19.193  0.00  0.00    +0.000 OA
ATOM     25  C   UNL     1       1.891   3.077  18.382  0.00  0.00    +0.000 C 
ATOM     26  C   UNL     1       1.685   4.569  18.580  0.00  0.00    +0.000 C 
ENDBRANCH  15  16
ENDBRANCH   2  15
TORSDOF 6
ENDMDL
MODEL 9
REMARK VINA RESULT:      -8.4      1.211      1.760
REMARK  Name = 
REMARK  6 active torsions:
REMARK  status: ('A' for Active; 'I' for Inactive)
REMARK    1  A    between atoms: C_2  and  C_3
REMARK    2  A    between atoms: C_2  and  O_13
REMARK    3  A    between atoms: C_4  and  C_5
REMARK    4  A    between atoms: C_8  and  O_9
REMARK    5  A    between atoms: C_10  and  O_11
REMARK    6  A    between atoms: O_13  and  C_14
REMARK                            x       y       z     vdW  Elec       q    Type
REMARK                         _______ _______ _______ _____ _____    ______ ____
ROOT
ATOM      1  O   UNL     1       7.823   5.768  17.267  0.00  0.00    +0.000 OA
ATOM      2  C   UNL     1       7.023   6.678  17.205  0.00  0.00    +0.000 C 
ENDROOT
BRANCH   2   3
ATOM      3  C   UNL     1       7.421   8.094  17.455  0.00  0.00    +0.000 C 
ATOM      4  C   UNL     1       8.340   8.468  18.357  0.00  0.00    +0.000 C 
BRANCH   4   5
ATOM      5  C   UNL     1       8.772   9.862  18.567  0.00  0.00    +0.000 A 
ATOM      6  C   UNL     1       8.493  10.887  17.643  0.00  0.00    +0.000 A 
ATOM      7  C   UNL     1       8.919  12.201  17.872  0.00  0.00    +0.000 A 
ATOM      8  C   UNL     1       9.607  12.495  19.039  0.00  0.00    +0.000 A 
ATOM      9  C   UNL     1       9.875  11.492  19.965  0.00  0.00    +0.000 A 
ATOM     10  C   UNL     1       9.464  10.184  19.744  0.00  0.00    +0.000 A 
BRANCH   8  11
ATOM     11  O   UNL     1      10.039  13.760  19.324  0.00  0.00    +0.000 OA
ATOM     12  H   UNL     1       9.848  13.943  20.260  0.00  0.00    +0.000 HD
ENDBRANCH   8  11
BRANCH   9  13
ATOM     13  O   UNL     1      10.550  11.792  21.114  0.00  0.00    +0.000 OA
ATOM     14  H   UNL     1      11.331  11.205  21.100  0.00  0.00    +0.000 HD
ENDBRANCH   9  13
ENDBRANCH   4   5
ENDBRANCH   2   3
BRANCH   2  15
ATOM     15  O   UNL     1       5.661   6.574  16.898  0.00  0.00    +0.000 OA
BRANCH  15  16
ATOM     16  C   UNL     1       4.687   6.128  17.829  0.00  0.00    +0.000 A 
ATOM     17  C   UNL     1       3.492   6.853  17.913  0.00  0.00    +0.000 A 
ATOM     18  C   UNL     1       2.430   6.376  18.693  0.00  0.00    +0.000 A 
ATOM     19  C   UNL     1       2.538   5.133  19.334  0.00  0.00    +0.000 A 
ATOM     20  C   UNL     1       3.735   4.406  19.228  0.00  0.00    +0.000 A 
ATOM     21  C   UNL     1       4.822   4.915  18.506  0.00  0.00    +0.000 A 
ATOM     22  C   UNL     1       3.856   3.062  19.863  0.00  0.00    +0.000 C 
ATOM     23  O   UNL     1       4.937   2.497  19.954  0.00  0.00    +0.000 OA
ATOM     24  O   UNL     1       2.706   2.491  20.313  0.00  0.00    +0.000 OA
ATOM     25  C   UNL     1       1.433   3.053  19.947  0.00  0.00    +0.000 C 
ATOM     26  C   UNL     1       1.423   4.558  20.154  0.00  0.00    +0.000 C 
ENDBRANCH  15  16
ENDBRANCH   2  15
TORSDOF 6
ENDMDL
