MODEL 1
REMARK VINA RESULT:      -9.0      0.000      0.000
REMARK  Name = 
REMARK  6 active torsions:
REMARK  status: ('A' for Active; 'I' for Inactive)
REMARK    1  A    between atoms: O_1  and  C_2
REMARK    2  A    between atoms: C_2  and  C_3
REMARK    3  A    between atoms: N_6  and  C_7
REMARK    4  A    between atoms: C_10  and  N_11
REMARK    5  A    between atoms: C_16  and  O_17
REMARK    6  A    between atoms: O_17  and  C_18
REMARK                            x       y       z     vdW  Elec       q    Type
REMARK                         _______ _______ _______ _____ _____    ______ ____
ROOT
ATOM      1  N   UNL     1       0.455  10.985  19.391  0.00  0.00    +0.000 N 
ATOM      2  C   UNL     1       0.994   9.707  19.622  0.00  0.00    +0.000 A 
ATOM      3  C   UNL     1       1.674   9.064  18.591  0.00  0.00    +0.000 A 
ATOM      4  C   UNL     1       2.196   7.791  18.774  0.00  0.00    +0.000 A 
ATOM      5  N   UNL     1       2.903   7.194  17.788  0.00  0.00    +0.000 NA
ATOM      6  C   UNL     1       3.456   5.987  18.047  0.00  0.00    +0.000 A 
ATOM      7  C   UNL     1       3.286   5.301  19.233  0.00  0.00    +0.000 A 
ATOM      8  C   UNL     1       2.539   5.901  20.236  0.00  0.00    +0.000 A 
ATOM      9  C   UNL     1       1.989   7.172  20.011  0.00  0.00    +0.000 A 
ATOM     10  C   UNL     1       1.275   7.857  20.985  0.00  0.00    +0.000 A 
ATOM     11  N   UNL     1       0.778   9.093  20.803  0.00  0.00    +0.000 NA
ATOM     12  H   UNL     1       0.969  11.587  18.761  0.00  0.00    +0.000 HD
ENDROOT
BRANCH   1  16
ATOM     13  C   UNL     1      -2.857  12.663  21.415  0.00  0.00    +0.000 A 
ATOM     14  C   UNL     1      -1.635  12.470  22.074  0.00  0.00    +0.000 A 
ATOM     15  C   UNL     1      -0.540  11.957  21.382  0.00  0.00    +0.000 A 
ATOM     16  C   UNL     1      -0.639  11.587  20.038  0.00  0.00    +0.000 A 
ATOM     17  C   UNL     1      -1.843  11.857  19.370  0.00  0.00    +0.000 A 
ATOM     18  F   UNL     1      -1.955  11.590  18.059  0.00  0.00    +0.000 F 
ATOM     19  C   UNL     1      -2.947  12.388  20.044  0.00  0.00    +0.000 A 
BRANCH  13  23
ATOM     20  C   UNL     1      -5.984  12.999  22.929  0.00  0.00    +0.000 A 
ATOM     21  C   UNL     1      -5.324  14.010  23.653  0.00  0.00    +0.000 A 
ATOM     22  C   UNL     1      -4.063  14.052  23.123  0.00  0.00    +0.000 A 
ATOM     23  N   UNL     1      -4.000  13.078  22.152  0.00  0.00    +0.000 N 
ATOM     24  N   UNL     1      -5.191  12.456  21.996  0.00  0.00    +0.000 NA
BRANCH  20  25
ATOM     25  C   UNL     1      -7.374  12.511  23.104  0.00  0.00    +0.000 C 
BRANCH  25  26
ATOM     26  O   UNL     1      -7.441  11.338  23.920  0.00  0.00    +0.000 OA
ATOM     27  H   UNL     1      -7.374  10.588  23.308  0.00  0.00    +0.000 HD
ENDBRANCH  25  26
ENDBRANCH  20  25
ENDBRANCH  13  23
ENDBRANCH   1  16
BRANCH   6  28
ATOM     28  O   UNL     1       4.299   5.383  17.128  0.00  0.00    +0.000 OA
BRANCH  28  29
ATOM     29  C   UNL     1       5.245   6.241  16.475  0.00  0.00    +0.000 C 
ATOM     30  C   UNL     1       5.700   5.546  15.182  0.00  0.00    +0.000 C 
ATOM     31  C   UNL     1       6.582   4.326  15.449  0.00  0.00    +0.000 C 
ATOM     32  N   UNL     1       7.722   4.608  16.321  0.00  0.00    +0.000 NA
ATOM     33  C   UNL     1       7.314   5.259  17.566  0.00  0.00    +0.000 C 
ATOM     34  C   UNL     1       6.483   6.517  17.337  0.00  0.00    +0.000 C 
ATOM     35  H   UNL     1       8.396   5.194  15.832  0.00  0.00    +0.000 HD
ENDBRANCH  28  29
ENDBRANCH   6  28
TORSDOF 6
ENDMDL
MODEL 2
REMARK VINA RESULT:      -8.4      2.321     11.424
REMARK  Name = 
REMARK  6 active torsions:
REMARK  status: ('A' for Active; 'I' for Inactive)
REMARK    1  A    between atoms: O_1  and  C_2
REMARK    2  A    between atoms: C_2  and  C_3
REMARK    3  A    between atoms: N_6  and  C_7
REMARK    4  A    between atoms: C_10  and  N_11
REMARK    5  A    between atoms: C_16  and  O_17
REMARK    6  A    between atoms: O_17  and  C_18
REMARK                            x       y       z     vdW  Elec       q    Type
REMARK                         _______ _______ _______ _____ _____    ______ ____
ROOT
ATOM      1  N   UNL     1       0.718  10.398  19.630  0.00  0.00    +0.000 N 
ATOM      2  C   UNL     1      -0.595  10.745  19.269  0.00  0.00    +0.000 A 
ATOM      3  C   UNL     1      -1.317  11.607  20.090  0.00  0.00    +0.000 A 
ATOM      4  C   UNL     1      -2.625  11.951  19.780  0.00  0.00    +0.000 A 
ATOM      5  N   UNL     1      -3.302  12.831  20.551  0.00  0.00    +0.000 NA
ATOM      6  C   UNL     1      -4.546  13.192  20.159  0.00  0.00    +0.000 A 
ATOM      7  C   UNL     1      -5.188  12.664  19.056  0.00  0.00    +0.000 A 
ATOM      8  C   UNL     1      -4.504  11.742  18.278  0.00  0.00    +0.000 A 
ATOM      9  C   UNL     1      -3.196  11.381  18.637  0.00  0.00    +0.000 A 
ATOM     10  C   UNL     1      -2.430  10.505  17.878  0.00  0.00    +0.000 A 
ATOM     11  N   UNL     1      -1.161  10.182  18.182  0.00  0.00    +0.000 NA
ATOM     12  H   UNL     1       1.260  11.106  20.108  0.00  0.00    +0.000 HD
ENDROOT
BRANCH   1  16
ATOM     13  C   UNL     1       2.730   6.855  18.496  0.00  0.00    +0.000 A 
ATOM     14  C   UNL     1       2.665   7.954  17.628  0.00  0.00    +0.000 A 
ATOM     15  C   UNL     1       2.037   9.129  18.033  0.00  0.00    +0.000 A 
ATOM     16  C   UNL     1       1.426   9.232  19.285  0.00  0.00    +0.000 A 
ATOM     17  C   UNL     1       1.563   8.154  20.173  0.00  0.00    +0.000 A 
ATOM     18  F   UNL     1       1.058   8.241  21.414  0.00  0.00    +0.000 F 
ATOM     19  C   UNL     1       2.206   6.972  19.790  0.00  0.00    +0.000 A 
BRANCH  13  23
ATOM     20  C   UNL     1       3.377   3.521  17.691  0.00  0.00    +0.000 A 
ATOM     21  C   UNL     1       4.387   4.098  16.897  0.00  0.00    +0.000 A 
ATOM     22  C   UNL     1       4.308   5.440  17.152  0.00  0.00    +0.000 A 
ATOM     23  N   UNL     1       3.269   5.622  18.038  0.00  0.00    +0.000 N 
ATOM     24  N   UNL     1       2.720   4.442  18.408  0.00  0.00    +0.000 NA
BRANCH  20  25
ATOM     25  C   UNL     1       2.997   2.090  17.786  0.00  0.00    +0.000 C 
BRANCH  25  26
ATOM     26  O   UNL     1       4.062   1.275  18.283  0.00  0.00    +0.000 OA
ATOM     27  H   UNL     1       4.288   0.670  17.560  0.00  0.00    +0.000 HD
ENDBRANCH  25  26
ENDBRANCH  20  25
ENDBRANCH  13  23
ENDBRANCH   1  16
BRANCH   6  28
ATOM     28  O   UNL     1      -5.240  14.184  20.830  0.00  0.00    +0.000 OA
BRANCH  28  29
ATOM     29  C   UNL     1      -6.523  13.817  21.356  0.00  0.00    +0.000 C 
ATOM     30  C   UNL     1      -7.197  15.090  21.892  0.00  0.00    +0.000 C 
ATOM     31  C   UNL     1      -6.528  15.622  23.160  0.00  0.00    +0.000 C 
ATOM     32  N   UNL     1      -6.393  14.618  24.214  0.00  0.00    +0.000 NA
ATOM     33  C   UNL     1      -5.741  13.400  23.734  0.00  0.00    +0.000 C 
ATOM     34  C   UNL     1      -6.421  12.805  22.504  0.00  0.00    +0.000 C 
ATOM     35  H   UNL     1      -7.309  14.390  24.596  0.00  0.00    +0.000 HD
ENDBRANCH  28  29
ENDBRANCH   6  28
TORSDOF 6
ENDMDL
MODEL 3
REMARK VINA RESULT:      -8.4      1.066      1.426
REMARK  Name = 
REMARK  6 active torsions:
REMARK  status: ('A' for Active; 'I' for Inactive)
REMARK    1  A    between atoms: O_1  and  C_2
REMARK    2  A    between atoms: C_2  and  C_3
REMARK    3  A    between atoms: N_6  and  C_7
REMARK    4  A    between atoms: C_10  and  N_11
REMARK    5  A    between atoms: C_16  and  O_17
REMARK    6  A    between atoms: O_17  and  C_18
REMARK                            x       y       z     vdW  Elec       q    Type
REMARK                         _______ _______ _______ _____ _____    ______ ____
ROOT
ATOM      1  N   UNL     1      -0.193  11.574  18.933  0.00  0.00    +0.000 N 
ATOM      2  C   UNL     1       0.448  10.364  19.250  0.00  0.00    +0.000 A 
ATOM      3  C   UNL     1       1.264   9.763  18.296  0.00  0.00    +0.000 A 
ATOM      4  C   UNL     1       1.892   8.554  18.563  0.00  0.00    +0.000 A 
ATOM      5  N   UNL     1       2.726   8.002  17.655  0.00  0.00    +0.000 NA
ATOM      6  C   UNL     1       3.374   6.864  17.997  0.00  0.00    +0.000 A 
ATOM      7  C   UNL     1       3.181   6.199  19.193  0.00  0.00    +0.000 A 
ATOM      8  C   UNL     1       2.305   6.752  20.116  0.00  0.00    +0.000 A 
ATOM      9  C   UNL     1       1.652   7.954  19.804  0.00  0.00    +0.000 A 
ATOM     10  C   UNL     1       0.803   8.594  20.698  0.00  0.00    +0.000 A 
ATOM     11  N   UNL     1       0.204   9.768  20.434  0.00  0.00    +0.000 NA
ATOM     12  H   UNL     1       0.305  12.206  18.320  0.00  0.00    +0.000 HD
ENDROOT
BRANCH   1  16
ATOM     13  C   UNL     1      -3.766  13.006  20.685  0.00  0.00    +0.000 A 
ATOM     14  C   UNL     1      -2.517  13.345  21.223  0.00  0.00    +0.000 A 
ATOM     15  C   UNL     1      -1.348  12.902  20.608  0.00  0.00    +0.000 A 
ATOM     16  C   UNL     1      -1.387  12.084  19.476  0.00  0.00    +0.000 A 
ATOM     17  C   UNL     1      -2.640  11.816  18.904  0.00  0.00    +0.000 A 
ATOM     18  F   UNL     1      -2.718  11.099  17.771  0.00  0.00    +0.000 F 
ATOM     19  C   UNL     1      -3.823  12.267  19.496  0.00  0.00    +0.000 A 
BRANCH  13  23
ATOM     20  C   UNL     1      -6.499  13.241  22.844  0.00  0.00    +0.000 A 
ATOM     21  C   UNL     1      -6.644  14.501  22.231  0.00  0.00    +0.000 A 
ATOM     22  C   UNL     1      -5.656  14.545  21.285  0.00  0.00    +0.000 A 
ATOM     23  N   UNL     1      -4.955  13.363  21.378  0.00  0.00    +0.000 N 
ATOM     24  N   UNL     1      -5.495  12.538  22.304  0.00  0.00    +0.000 NA
BRANCH  20  25
ATOM     25  C   UNL     1      -7.294  12.673  23.960  0.00  0.00    +0.000 C 
BRANCH  25  26
ATOM     26  O   UNL     1      -7.510  11.267  23.815  0.00  0.00    +0.000 OA
ATOM     27  H   UNL     1      -6.821  10.956  23.207  0.00  0.00    +0.000 HD
ENDBRANCH  25  26
ENDBRANCH  20  25
ENDBRANCH  13  23
ENDBRANCH   1  16
BRANCH   6  28
ATOM     28  O   UNL     1       4.338   6.320  17.166  0.00  0.00    +0.000 OA
BRANCH  28  29
ATOM     29  C   UNL     1       5.019   5.157  17.659  0.00  0.00    +0.000 C 
ATOM     30  C   UNL     1       6.453   5.570  18.030  0.00  0.00    +0.000 C 
ATOM     31  C   UNL     1       7.311   5.885  16.804  0.00  0.00    +0.000 C 
ATOM     32  N   UNL     1       7.315   4.818  15.804  0.00  0.00    +0.000 NA
ATOM     33  C   UNL     1       5.961   4.416  15.423  0.00  0.00    +0.000 C 
ATOM     34  C   UNL     1       5.094   4.033  16.618  0.00  0.00    +0.000 C 
ATOM     35  H   UNL     1       7.826   4.012  16.159  0.00  0.00    +0.000 HD
ENDBRANCH  28  29
ENDBRANCH   6  28
TORSDOF 6
ENDMDL
MODEL 4
REMARK VINA RESULT:      -8.3      1.147      1.423
REMARK  Name = 
REMARK  6 active torsions:
REMARK  status: ('A' for Active; 'I' for Inactive)
REMARK    1  A    between atoms: O_1  and  C_2
REMARK    2  A    between atoms: C_2  and  C_3
REMARK    3  A    between atoms: N_6  and  C_7
REMARK    4  A    between atoms: C_10  and  N_11
REMARK    5  A    between atoms: C_16  and  O_17
REMARK    6  A    between atoms: O_17  and  C_18
REMARK                            x       y       z     vdW  Elec       q    Type
REMARK                         _______ _______ _______ _____ _____    ______ ____
ROOT
ATOM      1  N   UNL     1       0.656  11.033  19.423  0.00  0.00    +0.000 N 
ATOM      2  C   UNL     1       1.108   9.719  19.637  0.00  0.00    +0.000 A 
ATOM      3  C   UNL     1       1.816   9.075  18.626  0.00  0.00    +0.000 A 
ATOM      4  C   UNL     1       2.256   7.769  18.790  0.00  0.00    +0.000 A 
ATOM      5  N   UNL     1       2.989   7.168  17.827  0.00  0.00    +0.000 NA
ATOM      6  C   UNL     1       3.459   5.922  18.072  0.00  0.00    +0.000 A 
ATOM      7  C   UNL     1       3.177   5.206  19.219  0.00  0.00    +0.000 A 
ATOM      8  C   UNL     1       2.402   5.812  20.197  0.00  0.00    +0.000 A 
ATOM      9  C   UNL     1       1.937   7.119  19.988  0.00  0.00    +0.000 A 
ATOM     10  C   UNL     1       1.202   7.810  20.943  0.00  0.00    +0.000 A 
ATOM     11  N   UNL     1       0.786   9.078  20.778  0.00  0.00    +0.000 NA
ATOM     12  H   UNL     1       1.240  11.627  18.849  0.00  0.00    +0.000 HD
ENDROOT
BRANCH   1  16
ATOM     13  C   UNL     1      -2.662  12.835  21.327  0.00  0.00    +0.000 A 
ATOM     14  C   UNL     1      -1.424  12.744  21.977  0.00  0.00    +0.000 A 
ATOM     15  C   UNL     1      -0.329  12.188  21.320  0.00  0.00    +0.000 A 
ATOM     16  C   UNL     1      -0.442  11.674  20.026  0.00  0.00    +0.000 A 
ATOM     17  C   UNL     1      -1.665  11.840  19.358  0.00  0.00    +0.000 A 
ATOM     18  F   UNL     1      -1.793  11.431  18.086  0.00  0.00    +0.000 F 
ATOM     19  C   UNL     1      -2.770  12.413  19.995  0.00  0.00    +0.000 A 
BRANCH  13  23
ATOM     20  C   UNL     1      -4.997  14.617  23.212  0.00  0.00    +0.000 A 
ATOM     21  C   UNL     1      -5.875  13.629  22.725  0.00  0.00    +0.000 A 
ATOM     22  C   UNL     1      -5.082  12.788  21.993  0.00  0.00    +0.000 A 
ATOM     23  N   UNL     1      -3.803  13.297  22.039  0.00  0.00    +0.000 N 
ATOM     24  N   UNL     1      -3.735  14.397  22.823  0.00  0.00    +0.000 NA
BRANCH  20  25
ATOM     25  C   UNL     1      -5.327  15.798  24.047  0.00  0.00    +0.000 C 
BRANCH  25  26
ATOM     26  O   UNL     1      -4.370  16.014  25.088  0.00  0.00    +0.000 OA
ATOM     27  H   UNL     1      -4.888  16.127  25.901  0.00  0.00    +0.000 HD
ENDBRANCH  25  26
ENDBRANCH  20  25
ENDBRANCH  13  23
ENDBRANCH   1  16
BRANCH   6  28
ATOM     28  O   UNL     1       4.323   5.304  17.184  0.00  0.00    +0.000 OA
BRANCH  28  29
ATOM     29  C   UNL     1       5.219   6.165  16.468  0.00  0.00    +0.000 C 
ATOM     30  C   UNL     1       5.625   5.450  15.169  0.00  0.00    +0.000 C 
ATOM     31  C   UNL     1       6.543   4.253  15.419  0.00  0.00    +0.000 C 
ATOM     32  N   UNL     1       7.717   4.576  16.228  0.00  0.00    +0.000 NA
ATOM     33  C   UNL     1       7.357   5.246  17.477  0.00  0.00    +0.000 C 
ATOM     34  C   UNL     1       6.492   6.484  17.262  0.00  0.00    +0.000 C 
ATOM     35  H   UNL     1       8.356   5.163  15.695  0.00  0.00    +0.000 HD
ENDBRANCH  28  29
ENDBRANCH   6  28
TORSDOF 6
ENDMDL
MODEL 5
REMARK VINA RESULT:      -8.3      0.697      1.137
REMARK  Name = 
REMARK  6 active torsions:
REMARK  status: ('A' for Active; 'I' for Inactive)
REMARK    1  A    between atoms: O_1  and  C_2
REMARK    2  A    between atoms: C_2  and  C_3
REMARK    3  A    between atoms: N_6  and  C_7
REMARK    4  A    between atoms: C_10  and  N_11
REMARK    5  A    between atoms: C_16  and  O_17
REMARK    6  A    between atoms: O_17  and  C_18
REMARK                            x       y       z     vdW  Elec       q    Type
REMARK                         _______ _______ _______ _____ _____    ______ ____
ROOT
ATOM      1  N   UNL     1       0.589  11.169  19.728  0.00  0.00    +0.000 N 
ATOM      2  C   UNL     1       1.025   9.840  19.863  0.00  0.00    +0.000 A 
ATOM      3  C   UNL     1       1.708   9.243  18.806  0.00  0.00    +0.000 A 
ATOM      4  C   UNL     1       2.130   7.923  18.893  0.00  0.00    +0.000 A 
ATOM      5  N   UNL     1       2.840   7.366  17.887  0.00  0.00    +0.000 NA
ATOM      6  C   UNL     1       3.295   6.102  18.056  0.00  0.00    +0.000 A 
ATOM      7  C   UNL     1       3.021   5.328  19.166  0.00  0.00    +0.000 A 
ATOM      8  C   UNL     1       2.271   5.891  20.188  0.00  0.00    +0.000 A 
ATOM      9  C   UNL     1       1.821   7.214  20.058  0.00  0.00    +0.000 A 
ATOM     10  C   UNL     1       1.111   7.861  21.061  0.00  0.00    +0.000 A 
ATOM     11  N   UNL     1       0.711   9.142  20.973  0.00  0.00    +0.000 NA
ATOM     12  H   UNL     1       1.172  11.785  19.178  0.00  0.00    +0.000 HD
ENDROOT
BRANCH   1  16
ATOM     13  C   UNL     1      -2.690  12.902  21.761  0.00  0.00    +0.000 A 
ATOM     14  C   UNL     1      -1.511  12.576  22.446  0.00  0.00    +0.000 A 
ATOM     15  C   UNL     1      -0.424  12.047  21.754  0.00  0.00    +0.000 A 
ATOM     16  C   UNL     1      -0.490  11.791  20.382  0.00  0.00    +0.000 A 
ATOM     17  C   UNL     1      -1.646  12.193  19.695  0.00  0.00    +0.000 A 
ATOM     18  F   UNL     1      -1.721  12.037  18.363  0.00  0.00    +0.000 F 
ATOM     19  C   UNL     1      -2.741  12.743  20.370  0.00  0.00    +0.000 A 
BRANCH  13  23
ATOM     20  C   UNL     1      -5.699  13.178  23.507  0.00  0.00    +0.000 A 
ATOM     21  C   UNL     1      -5.198  14.459  23.808  0.00  0.00    +0.000 A 
ATOM     22  C   UNL     1      -4.013  14.539  23.128  0.00  0.00    +0.000 A 
ATOM     23  N   UNL     1      -3.834  13.333  22.487  0.00  0.00    +0.000 N 
ATOM     24  N   UNL     1      -4.888  12.507  22.679  0.00  0.00    +0.000 NA
BRANCH  20  25
ATOM     25  C   UNL     1      -6.949  12.548  24.000  0.00  0.00    +0.000 C 
BRANCH  25  26
ATOM     26  O   UNL     1      -7.433  11.533  23.117  0.00  0.00    +0.000 OA
ATOM     27  H   UNL     1      -6.812  10.793  23.202  0.00  0.00    +0.000 HD
ENDBRANCH  25  26
ENDBRANCH  20  25
ENDBRANCH  13  23
ENDBRANCH   1  16
BRANCH   6  28
ATOM     28  O   UNL     1       4.136   5.522  17.121  0.00  0.00    +0.000 OA
BRANCH  28  29
ATOM     29  C   UNL     1       5.317   4.892  17.636  0.00  0.00    +0.000 C 
ATOM     30  C   UNL     1       6.227   5.989  18.212  0.00  0.00    +0.000 C 
ATOM     31  C   UNL     1       6.843   6.873  17.127  0.00  0.00    +0.000 C 
ATOM     32  N   UNL     1       7.531   6.118  16.080  0.00  0.00    +0.000 NA
ATOM     33  C   UNL     1       6.683   5.075  15.506  0.00  0.00    +0.000 C 
ATOM     34  C   UNL     1       6.100   4.135  16.556  0.00  0.00    +0.000 C 
ATOM     35  H   UNL     1       8.382   5.702  16.455  0.00  0.00    +0.000 HD
ENDBRANCH  28  29
ENDBRANCH   6  28
TORSDOF 6
ENDMDL
MODEL 6
REMARK VINA RESULT:      -8.2      1.182      1.182
REMARK  Name = 
REMARK  6 active torsions:
REMARK  status: ('A' for Active; 'I' for Inactive)
REMARK    1  A    between atoms: O_1  and  C_2
REMARK    2  A    between atoms: C_2  and  C_3
REMARK    3  A    between atoms: N_6  and  C_7
REMARK    4  A    between atoms: C_10  and  N_11
REMARK    5  A    between atoms: C_16  and  O_17
REMARK    6  A    between atoms: O_17  and  C_18
REMARK                            x       y       z     vdW  Elec       q    Type
REMARK                         _______ _______ _______ _____ _____    ______ ____
ROOT
ATOM      1  N   UNL     1       0.501  11.236  18.584  0.00  0.00    +0.000 N 
ATOM      2  C   UNL     1       1.041  10.001  18.981  0.00  0.00    +0.000 A 
ATOM      3  C   UNL     1       1.739   9.238  18.049  0.00  0.00    +0.000 A 
ATOM      4  C   UNL     1       2.263   8.000  18.397  0.00  0.00    +0.000 A 
ATOM      5  N   UNL     1       2.986   7.288  17.505  0.00  0.00    +0.000 NA
ATOM      6  C   UNL     1       3.541   6.126  17.920  0.00  0.00    +0.000 A 
ATOM      7  C   UNL     1       3.356   5.594  19.181  0.00  0.00    +0.000 A 
ATOM      8  C   UNL     1       2.593   6.311  20.091  0.00  0.00    +0.000 A 
ATOM      9  C   UNL     1       2.041   7.540  19.700  0.00  0.00    +0.000 A 
ATOM     10  C   UNL     1       1.311   8.339  20.571  0.00  0.00    +0.000 A 
ATOM     11  N   UNL     1       0.812   9.540  20.227  0.00  0.00    +0.000 NA
ATOM     12  H   UNL     1       1.021  11.757  17.890  0.00  0.00    +0.000 HD
ENDROOT
BRANCH   1  16
ATOM     13  C   UNL     1      -2.789  13.194  20.380  0.00  0.00    +0.000 A 
ATOM     14  C   UNL     1      -1.477  13.621  20.628  0.00  0.00    +0.000 A 
ATOM     15  C   UNL     1      -0.406  12.994  19.994  0.00  0.00    +0.000 A 
ATOM     16  C   UNL     1      -0.604  11.909  19.136  0.00  0.00    +0.000 A 
ATOM     17  C   UNL     1      -1.925  11.542  18.837  0.00  0.00    +0.000 A 
ATOM     18  F   UNL     1      -2.162  10.555  17.957  0.00  0.00    +0.000 F 
ATOM     19  C   UNL     1      -3.013  12.172  19.449  0.00  0.00    +0.000 A 
BRANCH  13  23
ATOM     20  C   UNL     1      -5.881  14.077  21.737  0.00  0.00    +0.000 A 
ATOM     21  C   UNL     1      -5.074  14.725  22.691  0.00  0.00    +0.000 A 
ATOM     22  C   UNL     1      -3.791  14.523  22.259  0.00  0.00    +0.000 A 
ATOM     23  N   UNL     1      -3.867  13.760  21.115  0.00  0.00    +0.000 N 
ATOM     24  N   UNL     1      -5.151  13.520  20.762  0.00  0.00    +0.000 NA
BRANCH  20  25
ATOM     25  C   UNL     1      -7.360  13.957  21.723  0.00  0.00    +0.000 C 
BRANCH  25  26
ATOM     26  O   UNL     1      -7.860  13.518  20.457  0.00  0.00    +0.000 OA
ATOM     27  H   UNL     1      -7.770  12.552  20.460  0.00  0.00    +0.000 HD
ENDBRANCH  25  26
ENDBRANCH  20  25
ENDBRANCH  13  23
ENDBRANCH   1  16
BRANCH   6  28
ATOM     28  O   UNL     1       4.398   5.416  17.097  0.00  0.00    +0.000 OA
BRANCH  28  29
ATOM     29  C   UNL     1       5.409   6.180  16.425  0.00  0.00    +0.000 C 
ATOM     30  C   UNL     1       5.937   5.339  15.251  0.00  0.00    +0.000 C 
ATOM     31  C   UNL     1       6.767   4.140  15.713  0.00  0.00    +0.000 C 
ATOM     32  N   UNL     1       7.849   4.497  16.630  0.00  0.00    +0.000 NA
ATOM     33  C   UNL     1       7.371   5.288  17.764  0.00  0.00    +0.000 C 
ATOM     34  C   UNL     1       6.591   6.528  17.339  0.00  0.00    +0.000 C 
ATOM     35  H   UNL     1       8.571   5.013  16.131  0.00  0.00    +0.000 HD
ENDBRANCH  28  29
ENDBRANCH   6  28
TORSDOF 6
ENDMDL
MODEL 7
REMARK VINA RESULT:      -8.2      2.150     11.586
REMARK  Name = 
REMARK  6 active torsions:
REMARK  status: ('A' for Active; 'I' for Inactive)
REMARK    1  A    between atoms: O_1  and  C_2
REMARK    2  A    between atoms: C_2  and  C_3
REMARK    3  A    between atoms: N_6  and  C_7
REMARK    4  A    between atoms: C_10  and  N_11
REMARK    5  A    between atoms: C_16  and  O_17
REMARK    6  A    between atoms: O_17  and  C_18
REMARK                            x       y       z     vdW  Elec       q    Type
REMARK                         _______ _______ _______ _____ _____    ______ ____
ROOT
ATOM      1  N   UNL     1       0.183  10.817  19.715  0.00  0.00    +0.000 N 
ATOM      2  C   UNL     1      -1.127  11.098  19.289  0.00  0.00    +0.000 A 
ATOM      3  C   UNL     1      -1.938  11.901  20.086  0.00  0.00    +0.000 A 
ATOM      4  C   UNL     1      -3.246  12.179  19.711  0.00  0.00    +0.000 A 
ATOM      5  N   UNL     1      -4.011  13.003  20.460  0.00  0.00    +0.000 NA
ATOM      6  C   UNL     1      -5.251  13.302  20.008  0.00  0.00    +0.000 A 
ATOM      7  C   UNL     1      -5.803  12.762  18.863  0.00  0.00    +0.000 A 
ATOM      8  C   UNL     1      -5.028  11.895  18.107  0.00  0.00    +0.000 A 
ATOM      9  C   UNL     1      -3.723  11.601  18.530  0.00  0.00    +0.000 A 
ATOM     10  C   UNL     1      -2.869  10.785  17.798  0.00  0.00    +0.000 A 
ATOM     11  N   UNL     1      -1.602  10.527  18.164  0.00  0.00    +0.000 NA
ATOM     12  H   UNL     1       0.658  11.545  20.233  0.00  0.00    +0.000 HD
ENDROOT
BRANCH   1  16
ATOM     13  C   UNL     1       2.447   7.412  18.635  0.00  0.00    +0.000 A 
ATOM     14  C   UNL     1       2.320   8.498  17.758  0.00  0.00    +0.000 A 
ATOM     15  C   UNL     1       1.608   9.630  18.145  0.00  0.00    +0.000 A 
ATOM     16  C   UNL     1       0.974   9.700  19.388  0.00  0.00    +0.000 A 
ATOM     17  C   UNL     1       1.172   8.640  20.286  0.00  0.00    +0.000 A 
ATOM     18  F   UNL     1       0.645   8.701  21.520  0.00  0.00    +0.000 F 
ATOM     19  C   UNL     1       1.899   7.502  19.921  0.00  0.00    +0.000 A 
BRANCH  13  23
ATOM     20  C   UNL     1       4.636   4.953  17.478  0.00  0.00    +0.000 A 
ATOM     21  C   UNL     1       3.597   4.093  17.883  0.00  0.00    +0.000 A 
ATOM     22  C   UNL     1       2.604   4.927  18.319  0.00  0.00    +0.000 A 
ATOM     23  N   UNL     1       3.075   6.215  18.193  0.00  0.00    +0.000 N 
ATOM     24  N   UNL     1       4.306   6.241  17.635  0.00  0.00    +0.000 NA
BRANCH  20  25
ATOM     25  C   UNL     1       5.969   4.583  16.942  0.00  0.00    +0.000 C 
BRANCH  25  26
ATOM     26  O   UNL     1       6.833   4.049  17.950  0.00  0.00    +0.000 OA
ATOM     27  H   UNL     1       6.287   3.435  18.465  0.00  0.00    +0.000 HD
ENDBRANCH  25  26
ENDBRANCH  20  25
ENDBRANCH  13  23
ENDBRANCH   1  16
BRANCH   6  28
ATOM     28  O   UNL     1      -6.035  14.240  20.658  0.00  0.00    +0.000 OA
BRANCH  28  29
ATOM     29  C   UNL     1      -7.224  13.746  21.291  0.00  0.00    +0.000 C 
ATOM     30  C   UNL     1      -7.916  14.928  21.988  0.00  0.00    +0.000 C 
ATOM     31  C   UNL     1      -7.145  15.423  23.212  0.00  0.00    +0.000 C 
ATOM     32  N   UNL     1      -6.826  14.365  24.169  0.00  0.00    +0.000 NA
ATOM     33  C   UNL     1      -6.154  13.232  23.533  0.00  0.00    +0.000 C 
ATOM     34  C   UNL     1      -6.927  12.671  22.344  0.00  0.00    +0.000 C 
ATOM     35  H   UNL     1      -7.677  14.046  24.629  0.00  0.00    +0.000 HD
ENDBRANCH  28  29
ENDBRANCH   6  28
TORSDOF 6
ENDMDL
MODEL 8
REMARK VINA RESULT:      -8.1      1.552      1.871
REMARK  Name = 
REMARK  6 active torsions:
REMARK  status: ('A' for Active; 'I' for Inactive)
REMARK    1  A    between atoms: O_1  and  C_2
REMARK    2  A    between atoms: C_2  and  C_3
REMARK    3  A    between atoms: N_6  and  C_7
REMARK    4  A    between atoms: C_10  and  N_11
REMARK    5  A    between atoms: C_16  and  O_17
REMARK    6  A    between atoms: O_17  and  C_18
REMARK                            x       y       z     vdW  Elec       q    Type
REMARK                         _______ _______ _______ _____ _____    ______ ____
ROOT
ATOM      1  N   UNL     1       0.364  11.093  18.974  0.00  0.00    +0.000 N 
ATOM      2  C   UNL     1       0.953   9.857  19.291  0.00  0.00    +0.000 A 
ATOM      3  C   UNL     1       1.616   9.149  18.292  0.00  0.00    +0.000 A 
ATOM      4  C   UNL     1       2.187   7.913  18.561  0.00  0.00    +0.000 A 
ATOM      5  N   UNL     1       2.876   7.255  17.603  0.00  0.00    +0.000 NA
ATOM      6  C   UNL     1       3.479   6.091  17.940  0.00  0.00    +0.000 A 
ATOM      7  C   UNL     1       3.377   5.505  19.187  0.00  0.00    +0.000 A 
ATOM      8  C   UNL     1       2.648   6.167  20.164  0.00  0.00    +0.000 A 
ATOM      9  C   UNL     1       2.047   7.396  19.854  0.00  0.00    +0.000 A 
ATOM     10  C   UNL     1       1.348   8.142  20.795  0.00  0.00    +0.000 A 
ATOM     11  N   UNL     1       0.803   9.342  20.528  0.00  0.00    +0.000 NA
ATOM     12  H   UNL     1       0.832  11.654  18.274  0.00  0.00    +0.000 HD
ENDROOT
BRANCH   1  16
ATOM     13  C   UNL     1      -2.911  13.073  20.774  0.00  0.00    +0.000 A 
ATOM     14  C   UNL     1      -3.087  12.295  19.621  0.00  0.00    +0.000 A 
ATOM     15  C   UNL     1      -2.007  11.613  19.066  0.00  0.00    +0.000 A 
ATOM     16  C   UNL     1      -0.725  11.716  19.611  0.00  0.00    +0.000 A 
ATOM     17  C   UNL     1      -0.576  12.435  20.807  0.00  0.00    +0.000 A 
ATOM     18  F   UNL     1       0.624  12.494  21.407  0.00  0.00    +0.000 F 
ATOM     19  C   UNL     1      -1.653  13.111  21.389  0.00  0.00    +0.000 A 
BRANCH  13  23
ATOM     20  C   UNL     1      -5.121  14.995  22.672  0.00  0.00    +0.000 A 
ATOM     21  C   UNL     1      -5.711  15.231  21.416  0.00  0.00    +0.000 A 
ATOM     22  C   UNL     1      -4.979  14.476  20.539  0.00  0.00    +0.000 A 
ATOM     23  N   UNL     1      -3.989  13.857  21.270  0.00  0.00    +0.000 N 
ATOM     24  N   UNL     1      -4.097  14.136  22.589  0.00  0.00    +0.000 NA
BRANCH  20  25
ATOM     25  C   UNL     1      -5.499  15.581  23.982  0.00  0.00    +0.000 C 
BRANCH  25  26
ATOM     26  O   UNL     1      -4.393  15.659  24.885  0.00  0.00    +0.000 OA
ATOM     27  H   UNL     1      -3.606  15.761  24.328  0.00  0.00    +0.000 HD
ENDBRANCH  25  26
ENDBRANCH  20  25
ENDBRANCH  13  23
ENDBRANCH   1  16
BRANCH   6  28
ATOM     28  O   UNL     1       4.307   5.436  17.044  0.00  0.00    +0.000 OA
BRANCH  28  29
ATOM     29  C   UNL     1       5.312   6.237  16.407  0.00  0.00    +0.000 C 
ATOM     30  C   UNL     1       5.861   5.443  15.210  0.00  0.00    +0.000 C 
ATOM     31  C   UNL     1       6.705   4.241  15.639  0.00  0.00    +0.000 C 
ATOM     32  N   UNL     1       7.774   4.582  16.577  0.00  0.00    +0.000 NA
ATOM     33  C   UNL     1       7.275   5.327  17.732  0.00  0.00    +0.000 C 
ATOM     34  C   UNL     1       6.480   6.570  17.343  0.00  0.00    +0.000 C 
ATOM     35  H   UNL     1       8.492   5.125  16.101  0.00  0.00    +0.000 HD
ENDBRANCH  28  29
ENDBRANCH   6  28
TORSDOF 6
ENDMDL
MODEL 9
REMARK VINA RESULT:      -8.1      2.292     11.308
REMARK  Name = 
REMARK  6 active torsions:
REMARK  status: ('A' for Active; 'I' for Inactive)
REMARK    1  A    between atoms: O_1  and  C_2
REMARK    2  A    between atoms: C_2  and  C_3
REMARK    3  A    between atoms: N_6  and  C_7
REMARK    4  A    between atoms: C_10  and  N_11
REMARK    5  A    between atoms: C_16  and  O_17
REMARK    6  A    between atoms: O_17  and  C_18
REMARK                            x       y       z     vdW  Elec       q    Type
REMARK                         _______ _______ _______ _____ _____    ______ ____
ROOT
ATOM      1  N   UNL     1       0.858  10.358  19.828  0.00  0.00    +0.000 N 
ATOM      2  C   UNL     1      -0.458  10.745  19.524  0.00  0.00    +0.000 A 
ATOM      3  C   UNL     1      -1.127  11.605  20.391  0.00  0.00    +0.000 A 
ATOM      4  C   UNL     1      -2.437  11.987  20.137  0.00  0.00    +0.000 A 
ATOM      5  N   UNL     1      -3.064  12.864  20.953  0.00  0.00    +0.000 NA
ATOM      6  C   UNL     1      -4.312  13.264  20.616  0.00  0.00    +0.000 A 
ATOM      7  C   UNL     1      -5.007  12.778  19.525  0.00  0.00    +0.000 A 
ATOM      8  C   UNL     1      -4.375  11.858  18.702  0.00  0.00    +0.000 A 
ATOM      9  C   UNL     1      -3.064  11.458  19.004  0.00  0.00    +0.000 A 
ATOM     10  C   UNL     1      -2.349  10.582  18.198  0.00  0.00    +0.000 A 
ATOM     11  N   UNL     1      -1.078  10.221  18.447  0.00  0.00    +0.000 NA
ATOM     12  H   UNL     1       1.435  11.042  20.301  0.00  0.00    +0.000 HD
ENDROOT
BRANCH   1  16
ATOM     13  C   UNL     1       2.740   6.797  18.540  0.00  0.00    +0.000 A 
ATOM     14  C   UNL     1       2.684   7.922  17.705  0.00  0.00    +0.000 A 
ATOM     15  C   UNL     1       2.100   9.102  18.161  0.00  0.00    +0.000 A 
ATOM     16  C   UNL     1       1.524   9.185  19.431  0.00  0.00    +0.000 A 
ATOM     17  C   UNL     1       1.655   8.077  20.284  0.00  0.00    +0.000 A 
ATOM     18  F   UNL     1       1.184   8.142  21.540  0.00  0.00    +0.000 F 
ATOM     19  C   UNL     1       2.254   6.891  19.850  0.00  0.00    +0.000 A 
BRANCH  13  23
ATOM     20  C   UNL     1       3.283   3.468  17.641  0.00  0.00    +0.000 A 
ATOM     21  C   UNL     1       4.262   4.042  16.807  0.00  0.00    +0.000 A 
ATOM     22  C   UNL     1       4.221   5.381  17.091  0.00  0.00    +0.000 A 
ATOM     23  N   UNL     1       3.232   5.564  18.032  0.00  0.00    +0.000 N 
ATOM     24  N   UNL     1       2.681   4.387  18.408  0.00  0.00    +0.000 NA
BRANCH  20  25
ATOM     25  C   UNL     1       2.883   2.043  17.730  0.00  0.00    +0.000 C 
BRANCH  25  26
ATOM     26  O   UNL     1       1.623   1.870  18.385  0.00  0.00    +0.000 OA
ATOM     27  H   UNL     1       1.740   1.114  18.981  0.00  0.00    +0.000 HD
ENDBRANCH  25  26
ENDBRANCH  20  25
ENDBRANCH  13  23
ENDBRANCH   1  16
BRANCH   6  28
ATOM     28  O   UNL     1      -4.956  14.257  21.334  0.00  0.00    +0.000 OA
BRANCH  28  29
ATOM     29  C   UNL     1      -4.529  14.436  22.692  0.00  0.00    +0.000 C 
ATOM     30  C   UNL     1      -5.017  13.227  23.506  0.00  0.00    +0.000 C 
ATOM     31  C   UNL     1      -6.534  13.222  23.699  0.00  0.00    +0.000 C 
ATOM     32  N   UNL     1      -7.057  14.471  24.251  0.00  0.00    +0.000 NA
ATOM     33  C   UNL     1      -6.617  15.638  23.486  0.00  0.00    +0.000 C 
ATOM     34  C   UNL     1      -5.102  15.709  23.327  0.00  0.00    +0.000 C 
ATOM     35  H   UNL     1      -6.769  14.568  25.223  0.00  0.00    +0.000 HD
ENDBRANCH  28  29
ENDBRANCH   6  28
TORSDOF 6
ENDMDL
