MODEL 1
REMARK VINA RESULT:      -7.6      0.000      0.000
REMARK  Name = 
REMARK  7 active torsions:
REMARK  status: ('A' for Active; 'I' for Inactive)
REMARK    1  A    between atoms: C_1  and  O_2
REMARK    2  A    between atoms: O_2  and  C_3
REMARK    3  A    between atoms: C_5  and  C_6
REMARK    4  A    between atoms: N_8  and  C_9
REMARK    5  A    between atoms: C_9  and  C_10
REMARK    6  A    between atoms: C_10  and  C_11
REMARK    7  A    between atoms: N_14  and  C_15
REMARK                            x       y       z     vdW  Elec       q    Type
REMARK                         _______ _______ _______ _____ _____    ______ ____
ROOT
ATOM      1  C   UNL     1       2.308   6.394  20.218  0.00  0.00    +0.000 C 
ATOM      2  O   UNL     1       1.655   5.486  20.718  0.00  0.00    +0.000 OA
ATOM      3  N   UNL     1       3.553   6.220  19.649  0.00  0.00    +0.000 N 
ATOM      4  H   UNL     1       3.933   6.952  19.063  0.00  0.00    +0.000 HD
ENDROOT
BRANCH   1   7
ATOM      5  C   UNL     1       0.906   9.696  21.444  0.00  0.00    +0.000 A 
ATOM      6  C   UNL     1       1.394   8.383  21.409  0.00  0.00    +0.000 A 
ATOM      7  C   UNL     1       1.754   7.777  20.194  0.00  0.00    +0.000 A 
ATOM      8  C   UNL     1       1.641   8.501  19.003  0.00  0.00    +0.000 A 
ATOM      9  C   UNL     1       1.163   9.812  19.031  0.00  0.00    +0.000 A 
ATOM     10  C   UNL     1       0.799  10.401  20.242  0.00  0.00    +0.000 A 
ATOM     11  F   UNL     1       0.356  11.665  20.203  0.00  0.00    +0.000 F 
BRANCH   5  13
ATOM     12  C   UNL     1      -0.788  10.152  23.056  0.00  0.00    +0.000 C 
ATOM     13  O   UNL     1       0.589  10.147  22.697  0.00  0.00    +0.000 OA
ENDBRANCH   5  13
ENDBRANCH   1   7
BRANCH   3  14
ATOM     14  C   UNL     1       4.178   4.902  19.555  0.00  0.00    +0.000 C 
BRANCH  14  15
ATOM     15  C   UNL     1       4.040   4.186  18.177  0.00  0.00    +0.000 C 
ATOM     16  C   UNL     1       3.798   2.672  18.315  0.00  0.00    +0.000 C 
ATOM     17  C   UNL     1       2.299   2.542  18.339  0.00  0.00    +0.000 C 
ATOM     18  C   UNL     1       1.864   3.665  17.431  0.00  0.00    +0.000 C 
ATOM     19  O   UNL     1       2.822   4.717  17.579  0.00  0.00    +0.000 OA
BRANCH  15  20
ATOM     20  C   UNL     1       5.217   4.453  17.270  0.00  0.00    +0.000 A 
ATOM     21  C   UNL     1       6.584   4.541  17.627  0.00  0.00    +0.000 A 
ATOM     22  N   UNL     1       7.388   4.727  16.580  0.00  0.00    +0.000 NA
ATOM     23  N   UNL     1       6.546   4.718  15.532  0.00  0.00    +0.000 N 
ATOM     24  C   UNL     1       7.065   4.762  14.186  0.00  0.00    +0.000 C 
ATOM     25  C   UNL     1       5.239   4.592  15.893  0.00  0.00    +0.000 A 
ENDBRANCH  15  20
ENDBRANCH  14  15
ENDBRANCH   3  14
TORSDOF 5
ENDMDL
MODEL 2
REMARK VINA RESULT:      -7.6      3.684      7.905
REMARK  Name = 
REMARK  7 active torsions:
REMARK  status: ('A' for Active; 'I' for Inactive)
REMARK    1  A    between atoms: C_1  and  O_2
REMARK    2  A    between atoms: O_2  and  C_3
REMARK    3  A    between atoms: C_5  and  C_6
REMARK    4  A    between atoms: N_8  and  C_9
REMARK    5  A    between atoms: C_9  and  C_10
REMARK    6  A    between atoms: C_10  and  C_11
REMARK    7  A    between atoms: N_14  and  C_15
REMARK                            x       y       z     vdW  Elec       q    Type
REMARK                         _______ _______ _______ _____ _____    ______ ____
ROOT
ATOM      1  C   UNL     1       6.087   4.913  16.450  0.00  0.00    +0.000 C 
ATOM      2  O   UNL     1       6.284   5.996  16.988  0.00  0.00    +0.000 OA
ATOM      3  N   UNL     1       5.486   3.842  17.079  0.00  0.00    +0.000 N 
ATOM      4  H   UNL     1       5.155   3.066  16.521  0.00  0.00    +0.000 HD
ENDROOT
BRANCH   1   7
ATOM      5  C   UNL     1       6.078   3.621  12.886  0.00  0.00    +0.000 A 
ATOM      6  C   UNL     1       5.756   3.819  14.236  0.00  0.00    +0.000 A 
ATOM      7  C   UNL     1       6.498   4.707  15.032  0.00  0.00    +0.000 A 
ATOM      8  C   UNL     1       7.562   5.417  14.467  0.00  0.00    +0.000 A 
ATOM      9  C   UNL     1       7.882   5.231  13.121  0.00  0.00    +0.000 A 
ATOM     10  C   UNL     1       7.145   4.339  12.341  0.00  0.00    +0.000 A 
ATOM     11  F   UNL     1       7.497   4.211  11.054  0.00  0.00    +0.000 F 
BRANCH   5  13
ATOM     12  C   UNL     1       4.250   3.249  11.404  0.00  0.00    +0.000 C 
ATOM     13  O   UNL     1       5.272   2.721  12.241  0.00  0.00    +0.000 OA
ENDBRANCH   5  13
ENDBRANCH   1   7
BRANCH   3  14
ATOM     14  C   UNL     1       4.984   3.938  18.448  0.00  0.00    +0.000 C 
BRANCH  14  15
ATOM     15  C   UNL     1       3.437   4.073  18.591  0.00  0.00    +0.000 C 
ATOM     16  C   UNL     1       2.677   3.547  17.360  0.00  0.00    +0.000 C 
ATOM     17  C   UNL     1       2.409   2.102  17.686  0.00  0.00    +0.000 C 
ATOM     18  C   UNL     1       2.223   2.139  19.182  0.00  0.00    +0.000 C 
ATOM     19  O   UNL     1       3.064   3.182  19.683  0.00  0.00    +0.000 OA
BRANCH  15  20
ATOM     20  C   UNL     1       3.010   5.485  18.911  0.00  0.00    +0.000 A 
ATOM     21  C   UNL     1       3.016   6.608  18.050  0.00  0.00    +0.000 A 
ATOM     22  N   UNL     1       2.518   7.707  18.620  0.00  0.00    +0.000 NA
ATOM     23  N   UNL     1       2.148   7.288  19.842  0.00  0.00    +0.000 N 
ATOM     24  C   UNL     1       1.435   8.176  20.727  0.00  0.00    +0.000 C 
ATOM     25  C   UNL     1       2.451   5.981  20.077  0.00  0.00    +0.000 A 
ENDBRANCH  15  20
ENDBRANCH  14  15
ENDBRANCH   3  14
TORSDOF 5
ENDMDL
MODEL 3
REMARK VINA RESULT:      -7.4      2.467      4.161
REMARK  Name = 
REMARK  7 active torsions:
REMARK  status: ('A' for Active; 'I' for Inactive)
REMARK    1  A    between atoms: C_1  and  O_2
REMARK    2  A    between atoms: O_2  and  C_3
REMARK    3  A    between atoms: C_5  and  C_6
REMARK    4  A    between atoms: N_8  and  C_9
REMARK    5  A    between atoms: C_9  and  C_10
REMARK    6  A    between atoms: C_10  and  C_11
REMARK    7  A    between atoms: N_14  and  C_15
REMARK                            x       y       z     vdW  Elec       q    Type
REMARK                         _______ _______ _______ _____ _____    ______ ____
ROOT
ATOM      1  C   UNL     1       2.058   8.462  18.475  0.00  0.00    +0.000 C 
ATOM      2  O   UNL     1       2.177   9.096  17.434  0.00  0.00    +0.000 OA
ATOM      3  N   UNL     1       2.650   7.235  18.697  0.00  0.00    +0.000 N 
ATOM      4  H   UNL     1       2.698   6.876  19.642  0.00  0.00    +0.000 HD
ENDROOT
BRANCH   1   7
ATOM      5  C   UNL     1      -0.449  10.615  20.332  0.00  0.00    +0.000 A 
ATOM      6  C   UNL     1       0.367  10.082  19.325  0.00  0.00    +0.000 A 
ATOM      7  C   UNL     1       1.245   9.019  19.592  0.00  0.00    +0.000 A 
ATOM      8  C   UNL     1       1.293   8.471  20.878  0.00  0.00    +0.000 A 
ATOM      9  C   UNL     1       0.478   8.991  21.884  0.00  0.00    +0.000 A 
ATOM     10  C   UNL     1      -0.384  10.055  21.611  0.00  0.00    +0.000 A 
ATOM     11  F   UNL     1      -1.147  10.504  22.617  0.00  0.00    +0.000 F 
BRANCH   5  13
ATOM     12  C   UNL     1      -1.880  11.523  18.658  0.00  0.00    +0.000 C 
ATOM     13  O   UNL     1      -1.244  11.652  19.925  0.00  0.00    +0.000 OA
ENDBRANCH   5  13
ENDBRANCH   1   7
BRANCH   3  14
ATOM     14  C   UNL     1       3.522   6.611  17.704  0.00  0.00    +0.000 C 
BRANCH  14  15
ATOM     15  C   UNL     1       3.959   5.147  18.015  0.00  0.00    +0.000 C 
ATOM     16  C   UNL     1       4.350   4.362  16.750  0.00  0.00    +0.000 C 
ATOM     17  C   UNL     1       5.831   4.594  16.618  0.00  0.00    +0.000 C 
ATOM     18  C   UNL     1       6.272   4.685  18.058  0.00  0.00    +0.000 C 
ATOM     19  O   UNL     1       5.187   5.261  18.792  0.00  0.00    +0.000 OA
BRANCH  15  20
ATOM     20  C   UNL     1       2.918   4.392  18.806  0.00  0.00    +0.000 A 
ATOM     21  C   UNL     1       1.735   3.784  18.322  0.00  0.00    +0.000 A 
ATOM     22  N   UNL     1       1.054   3.138  19.270  0.00  0.00    +0.000 NA
ATOM     23  N   UNL     1       1.818   3.289  20.365  0.00  0.00    +0.000 N 
ATOM     24  C   UNL     1       1.472   2.607  21.588  0.00  0.00    +0.000 C 
ATOM     25  C   UNL     1       2.922   4.057  20.149  0.00  0.00    +0.000 A 
ENDBRANCH  15  20
ENDBRANCH  14  15
ENDBRANCH   3  14
TORSDOF 5
ENDMDL
MODEL 4
REMARK VINA RESULT:      -7.4      4.399      5.589
REMARK  Name = 
REMARK  7 active torsions:
REMARK  status: ('A' for Active; 'I' for Inactive)
REMARK    1  A    between atoms: C_1  and  O_2
REMARK    2  A    between atoms: O_2  and  C_3
REMARK    3  A    between atoms: C_5  and  C_6
REMARK    4  A    between atoms: N_8  and  C_9
REMARK    5  A    between atoms: C_9  and  C_10
REMARK    6  A    between atoms: C_10  and  C_11
REMARK    7  A    between atoms: N_14  and  C_15
REMARK                            x       y       z     vdW  Elec       q    Type
REMARK                         _______ _______ _______ _____ _____    ______ ____
ROOT
ATOM      1  C   UNL     1       3.343   4.277  17.619  0.00  0.00    +0.000 C 
ATOM      2  O   UNL     1       3.164   3.700  16.553  0.00  0.00    +0.000 OA
ATOM      3  N   UNL     1       4.125   5.406  17.757  0.00  0.00    +0.000 N 
ATOM      4  H   UNL     1       4.052   5.955  18.604  0.00  0.00    +0.000 HD
ENDROOT
BRANCH   1   7
ATOM      5  C   UNL     1       2.892   2.560  20.968  0.00  0.00    +0.000 A 
ATOM      6  C   UNL     1       3.453   3.027  19.771  0.00  0.00    +0.000 A 
ATOM      7  C   UNL     1       2.687   3.768  18.856  0.00  0.00    +0.000 A 
ATOM      8  C   UNL     1       1.352   4.060  19.150  0.00  0.00    +0.000 A 
ATOM      9  C   UNL     1       0.790   3.605  20.344  0.00  0.00    +0.000 A 
ATOM     10  C   UNL     1       1.556   2.861  21.242  0.00  0.00    +0.000 A 
ATOM     11  F   UNL     1       0.961   2.460  22.375  0.00  0.00    +0.000 F 
BRANCH   5  13
ATOM     12  C   UNL     1       4.970   1.408  21.153  0.00  0.00    +0.000 C 
ATOM     13  O   UNL     1       3.757   1.847  21.755  0.00  0.00    +0.000 OA
ENDBRANCH   5  13
ENDBRANCH   1   7
BRANCH   3  14
ATOM     14  C   UNL     1       4.772   6.039  16.609  0.00  0.00    +0.000 C 
BRANCH  14  15
ATOM     15  C   UNL     1       6.236   5.583  16.323  0.00  0.00    +0.000 C 
ATOM     16  C   UNL     1       7.268   6.690  16.602  0.00  0.00    +0.000 C 
ATOM     17  C   UNL     1       7.662   6.469  18.038  0.00  0.00    +0.000 C 
ATOM     18  C   UNL     1       7.568   4.969  18.170  0.00  0.00    +0.000 C 
ATOM     19  O   UNL     1       6.519   4.538  17.298  0.00  0.00    +0.000 OA
BRANCH  15  20
ATOM     20  C   UNL     1       6.406   5.042  14.924  0.00  0.00    +0.000 A 
ATOM     21  C   UNL     1       7.489   5.254  14.039  0.00  0.00    +0.000 A 
ATOM     22  N   UNL     1       7.367   4.584  12.892  0.00  0.00    +0.000 NA
ATOM     23  N   UNL     1       6.221   3.899  13.048  0.00  0.00    +0.000 N 
ATOM     24  C   UNL     1       5.809   2.940  12.052  0.00  0.00    +0.000 C 
ATOM     25  C   UNL     1       5.593   4.164  14.228  0.00  0.00    +0.000 A 
ENDBRANCH  15  20
ENDBRANCH  14  15
ENDBRANCH   3  14
TORSDOF 5
ENDMDL
MODEL 5
REMARK VINA RESULT:      -7.3      1.852      2.613
REMARK  Name = 
REMARK  7 active torsions:
REMARK  status: ('A' for Active; 'I' for Inactive)
REMARK    1  A    between atoms: C_1  and  O_2
REMARK    2  A    between atoms: O_2  and  C_3
REMARK    3  A    between atoms: C_5  and  C_6
REMARK    4  A    between atoms: N_8  and  C_9
REMARK    5  A    between atoms: C_9  and  C_10
REMARK    6  A    between atoms: C_10  and  C_11
REMARK    7  A    between atoms: N_14  and  C_15
REMARK                            x       y       z     vdW  Elec       q    Type
REMARK                         _______ _______ _______ _____ _____    ______ ____
ROOT
ATOM      1  C   UNL     1       2.647   7.093  18.233  0.00  0.00    +0.000 C 
ATOM      2  O   UNL     1       3.503   7.512  17.463  0.00  0.00    +0.000 OA
ATOM      3  N   UNL     1       2.267   5.768  18.309  0.00  0.00    +0.000 N 
ATOM      4  H   UNL     1       1.729   5.456  19.106  0.00  0.00    +0.000 HD
ENDROOT
BRANCH   1   7
ATOM      5  C   UNL     1       0.814  10.164  19.487  0.00  0.00    +0.000 A 
ATOM      6  C   UNL     1       1.499   9.262  18.662  0.00  0.00    +0.000 A 
ATOM      7  C   UNL     1       1.963   8.035  19.163  0.00  0.00    +0.000 A 
ATOM      8  C   UNL     1       1.723   7.700  20.499  0.00  0.00    +0.000 A 
ATOM      9  C   UNL     1       1.035   8.591  21.325  0.00  0.00    +0.000 A 
ATOM     10  C   UNL     1       0.586   9.812  20.820  0.00  0.00    +0.000 A 
ATOM     11  F   UNL     1      -0.075  10.620  21.660  0.00  0.00    +0.000 F 
BRANCH   5  13
ATOM     12  C   UNL     1      -0.935  11.429  18.478  0.00  0.00    +0.000 C 
ATOM     13  O   UNL     1       0.431  11.320  18.862  0.00  0.00    +0.000 OA
ENDBRANCH   5  13
ENDBRANCH   1   7
BRANCH   3  14
ATOM     14  C   UNL     1       2.906   4.737  17.494  0.00  0.00    +0.000 C 
BRANCH  14  15
ATOM     15  C   UNL     1       4.006   3.896  18.210  0.00  0.00    +0.000 C 
ATOM     16  C   UNL     1       3.688   3.640  19.694  0.00  0.00    +0.000 C 
ATOM     17  C   UNL     1       2.937   2.336  19.687  0.00  0.00    +0.000 C 
ATOM     18  C   UNL     1       3.582   1.600  18.539  0.00  0.00    +0.000 C 
ATOM     19  O   UNL     1       3.971   2.584  17.577  0.00  0.00    +0.000 OA
BRANCH  15  20
ATOM     20  C   UNL     1       5.381   4.502  18.061  0.00  0.00    +0.000 A 
ATOM     21  C   UNL     1       6.299   4.318  17.000  0.00  0.00    +0.000 A 
ATOM     22  N   UNL     1       7.409   5.044  17.136  0.00  0.00    +0.000 NA
ATOM     23  N   UNL     1       7.195   5.737  18.268  0.00  0.00    +0.000 N 
ATOM     24  C   UNL     1       8.135   6.749  18.687  0.00  0.00    +0.000 C 
ATOM     25  C   UNL     1       6.017   5.424  18.875  0.00  0.00    +0.000 A 
ENDBRANCH  15  20
ENDBRANCH  14  15
ENDBRANCH   3  14
TORSDOF 5
ENDMDL
MODEL 6
REMARK VINA RESULT:      -7.3      2.247      3.747
REMARK  Name = 
REMARK  7 active torsions:
REMARK  status: ('A' for Active; 'I' for Inactive)
REMARK    1  A    between atoms: C_1  and  O_2
REMARK    2  A    between atoms: O_2  and  C_3
REMARK    3  A    between atoms: C_5  and  C_6
REMARK    4  A    between atoms: N_8  and  C_9
REMARK    5  A    between atoms: C_9  and  C_10
REMARK    6  A    between atoms: C_10  and  C_11
REMARK    7  A    between atoms: N_14  and  C_15
REMARK                            x       y       z     vdW  Elec       q    Type
REMARK                         _______ _______ _______ _____ _____    ______ ____
ROOT
ATOM      1  C   UNL     1       2.712   8.007  18.050  0.00  0.00    +0.000 C 
ATOM      2  O   UNL     1       2.722   8.730  17.062  0.00  0.00    +0.000 OA
ATOM      3  N   UNL     1       3.453   6.848  18.159  0.00  0.00    +0.000 N 
ATOM      4  H   UNL     1       3.572   6.424  19.070  0.00  0.00    +0.000 HD
ENDROOT
BRANCH   1   7
ATOM      5  C   UNL     1       0.232   9.885  20.216  0.00  0.00    +0.000 A 
ATOM      6  C   UNL     1       1.070   9.522  19.153  0.00  0.00    +0.000 A 
ATOM      7  C   UNL     1       1.873   8.372  19.226  0.00  0.00    +0.000 A 
ATOM      8  C   UNL     1       1.823   7.567  20.369  0.00  0.00    +0.000 A 
ATOM      9  C   UNL     1       0.986   7.920  21.429  0.00  0.00    +0.000 A 
ATOM     10  C   UNL     1       0.199   9.070  21.350  0.00  0.00    +0.000 A 
ATOM     11  F   UNL     1      -0.590   9.349  22.397  0.00  0.00    +0.000 F 
BRANCH   5  13
ATOM     12  C   UNL     1      -0.037  12.208  20.671  0.00  0.00    +0.000 C 
ATOM     13  O   UNL     1      -0.483  11.033  20.003  0.00  0.00    +0.000 OA
ENDBRANCH   5  13
ENDBRANCH   1   7
BRANCH   3  14
ATOM     14  C   UNL     1       4.361   6.413  17.100  0.00  0.00    +0.000 C 
BRANCH  14  15
ATOM     15  C   UNL     1       4.871   4.944  17.208  0.00  0.00    +0.000 C 
ATOM     16  C   UNL     1       5.215   4.332  15.838  0.00  0.00    +0.000 C 
ATOM     17  C   UNL     1       6.677   4.643  15.656  0.00  0.00    +0.000 C 
ATOM     18  C   UNL     1       7.197   4.582  17.071  0.00  0.00    +0.000 C 
ATOM     19  O   UNL     1       6.137   5.018  17.926  0.00  0.00    +0.000 OA
BRANCH  15  20
ATOM     20  C   UNL     1       3.907   4.055  17.956  0.00  0.00    +0.000 A 
ATOM     21  C   UNL     1       4.024   3.571  19.281  0.00  0.00    +0.000 A 
ATOM     22  N   UNL     1       2.969   2.855  19.672  0.00  0.00    +0.000 NA
ATOM     23  N   UNL     1       2.142   2.908  18.613  0.00  0.00    +0.000 N 
ATOM     24  C   UNL     1       0.816   2.349  18.702  0.00  0.00    +0.000 C 
ATOM     25  C   UNL     1       2.669   3.582  17.554  0.00  0.00    +0.000 A 
ENDBRANCH  15  20
ENDBRANCH  14  15
ENDBRANCH   3  14
TORSDOF 5
ENDMDL
MODEL 7
REMARK VINA RESULT:      -7.3      1.118      1.850
REMARK  Name = 
REMARK  7 active torsions:
REMARK  status: ('A' for Active; 'I' for Inactive)
REMARK    1  A    between atoms: C_1  and  O_2
REMARK    2  A    between atoms: O_2  and  C_3
REMARK    3  A    between atoms: C_5  and  C_6
REMARK    4  A    between atoms: N_8  and  C_9
REMARK    5  A    between atoms: C_9  and  C_10
REMARK    6  A    between atoms: C_10  and  C_11
REMARK    7  A    between atoms: N_14  and  C_15
REMARK                            x       y       z     vdW  Elec       q    Type
REMARK                         _______ _______ _______ _____ _____    ______ ____
ROOT
ATOM      1  C   UNL     1       2.339   6.247  20.292  0.00  0.00    +0.000 C 
ATOM      2  O   UNL     1       1.802   5.285  20.829  0.00  0.00    +0.000 OA
ATOM      3  N   UNL     1       3.553   6.180  19.638  0.00  0.00    +0.000 N 
ATOM      4  H   UNL     1       3.828   6.942  19.033  0.00  0.00    +0.000 HD
ENDROOT
BRANCH   1   7
ATOM      5  C   UNL     1       1.178   9.675  19.169  0.00  0.00    +0.000 A 
ATOM      6  C   UNL     1       1.821   8.431  19.211  0.00  0.00    +0.000 A 
ATOM      7  C   UNL     1       1.670   7.577  20.316  0.00  0.00    +0.000 A 
ATOM      8  C   UNL     1       0.852   7.966  21.382  0.00  0.00    +0.000 A 
ATOM      9  C   UNL     1       0.204   9.202  21.343  0.00  0.00    +0.000 A 
ATOM     10  C   UNL     1       0.368  10.047  20.244  0.00  0.00    +0.000 A 
ATOM     11  F   UNL     1      -0.288  11.215  20.263  0.00  0.00    +0.000 F 
BRANCH   5  13
ATOM     12  C   UNL     1       2.227  11.567  18.170  0.00  0.00    +0.000 C 
ATOM     13  O   UNL     1       1.426  10.399  18.033  0.00  0.00    +0.000 OA
ENDBRANCH   5  13
ENDBRANCH   1   7
BRANCH   3  14
ATOM     14  C   UNL     1       4.279   4.920  19.492  0.00  0.00    +0.000 C 
BRANCH  14  15
ATOM     15  C   UNL     1       4.114   4.201  18.119  0.00  0.00    +0.000 C 
ATOM     16  C   UNL     1       3.869   2.688  18.265  0.00  0.00    +0.000 C 
ATOM     17  C   UNL     1       2.370   2.564  18.316  0.00  0.00    +0.000 C 
ATOM     18  C   UNL     1       1.923   3.687  17.413  0.00  0.00    +0.000 C 
ATOM     19  O   UNL     1       2.888   4.735  17.540  0.00  0.00    +0.000 OA
BRANCH  15  20
ATOM     20  C   UNL     1       5.276   4.460  17.191  0.00  0.00    +0.000 A 
ATOM     21  C   UNL     1       6.649   4.544  17.523  0.00  0.00    +0.000 A 
ATOM     22  N   UNL     1       7.435   4.723  16.461  0.00  0.00    +0.000 NA
ATOM     23  N   UNL     1       6.576   4.714  15.428  0.00  0.00    +0.000 N 
ATOM     24  C   UNL     1       7.071   4.752  14.074  0.00  0.00    +0.000 C 
ATOM     25  C   UNL     1       5.274   4.594  15.813  0.00  0.00    +0.000 A 
ENDBRANCH  15  20
ENDBRANCH  14  15
ENDBRANCH   3  14
TORSDOF 5
ENDMDL
MODEL 8
REMARK VINA RESULT:      -7.2      3.449      7.015
REMARK  Name = 
REMARK  7 active torsions:
REMARK  status: ('A' for Active; 'I' for Inactive)
REMARK    1  A    between atoms: C_1  and  O_2
REMARK    2  A    between atoms: O_2  and  C_3
REMARK    3  A    between atoms: C_5  and  C_6
REMARK    4  A    between atoms: N_8  and  C_9
REMARK    5  A    between atoms: C_9  and  C_10
REMARK    6  A    between atoms: C_10  and  C_11
REMARK    7  A    between atoms: N_14  and  C_15
REMARK                            x       y       z     vdW  Elec       q    Type
REMARK                         _______ _______ _______ _____ _____    ______ ____
ROOT
ATOM      1  C   UNL     1       3.920   3.500  17.050  0.00  0.00    +0.000 C 
ATOM      2  O   UNL     1       3.997   2.351  17.469  0.00  0.00    +0.000 OA
ATOM      3  N   UNL     1       2.882   4.358  17.351  0.00  0.00    +0.000 N 
ATOM      4  H   UNL     1       2.989   5.346  17.162  0.00  0.00    +0.000 HD
ENDROOT
BRANCH   1   7
ATOM      5  C   UNL     1       6.881   5.567  15.898  0.00  0.00    +0.000 A 
ATOM      6  C   UNL     1       5.830   5.055  16.670  0.00  0.00    +0.000 A 
ATOM      7  C   UNL     1       4.996   4.040  16.172  0.00  0.00    +0.000 A 
ATOM      8  C   UNL     1       5.228   3.522  14.894  0.00  0.00    +0.000 A 
ATOM      9  C   UNL     1       6.278   4.023  14.122  0.00  0.00    +0.000 A 
ATOM     10  C   UNL     1       7.095   5.037  14.623  0.00  0.00    +0.000 A 
ATOM     11  F   UNL     1       8.091   5.470  13.837  0.00  0.00    +0.000 F 
BRANCH   5  13
ATOM     12  C   UNL     1       7.518   6.634  17.931  0.00  0.00    +0.000 C 
ATOM     13  O   UNL     1       7.601   6.556  16.512  0.00  0.00    +0.000 OA
ENDBRANCH   5  13
ENDBRANCH   1   7
BRANCH   3  14
ATOM     14  C   UNL     1       1.798   3.967  18.251  0.00  0.00    +0.000 C 
BRANCH  14  15
ATOM     15  C   UNL     1       1.958   4.418  19.735  0.00  0.00    +0.000 C 
ATOM     16  C   UNL     1       0.912   3.779  20.666  0.00  0.00    +0.000 C 
ATOM     17  C   UNL     1       1.579   2.521  21.156  0.00  0.00    +0.000 C 
ATOM     18  C   UNL     1       3.029   2.930  21.218  0.00  0.00    +0.000 C 
ATOM     19  O   UNL     1       3.241   3.883  20.172  0.00  0.00    +0.000 OA
BRANCH  15  20
ATOM     20  C   UNL     1       1.950   5.920  19.883  0.00  0.00    +0.000 A 
ATOM     21  C   UNL     1       2.394   6.886  18.949  0.00  0.00    +0.000 A 
ATOM     22  N   UNL     1       2.195   8.140  19.357  0.00  0.00    +0.000 NA
ATOM     23  N   UNL     1       1.580   7.991  20.543  0.00  0.00    +0.000 N 
ATOM     24  C   UNL     1       1.077   9.145  21.248  0.00  0.00    +0.000 C 
ATOM     25  C   UNL     1       1.441   6.689  20.917  0.00  0.00    +0.000 A 
ENDBRANCH  15  20
ENDBRANCH  14  15
ENDBRANCH   3  14
TORSDOF 5
ENDMDL
MODEL 9
REMARK VINA RESULT:      -7.2      2.205      3.091
REMARK  Name = 
REMARK  7 active torsions:
REMARK  status: ('A' for Active; 'I' for Inactive)
REMARK    1  A    between atoms: C_1  and  O_2
REMARK    2  A    between atoms: O_2  and  C_3
REMARK    3  A    between atoms: C_5  and  C_6
REMARK    4  A    between atoms: N_8  and  C_9
REMARK    5  A    between atoms: C_9  and  C_10
REMARK    6  A    between atoms: C_10  and  C_11
REMARK    7  A    between atoms: N_14  and  C_15
REMARK                            x       y       z     vdW  Elec       q    Type
REMARK                         _______ _______ _______ _____ _____    ______ ____
ROOT
ATOM      1  C   UNL     1       3.148   6.443  18.751  0.00  0.00    +0.000 C 
ATOM      2  O   UNL     1       3.215   5.615  19.650  0.00  0.00    +0.000 OA
ATOM      3  N   UNL     1       3.801   6.317  17.542  0.00  0.00    +0.000 N 
ATOM      4  H   UNL     1       3.530   6.912  16.771  0.00  0.00    +0.000 HD
ENDROOT
BRANCH   1   7
ATOM      5  C   UNL     1       0.859   8.992  20.374  0.00  0.00    +0.000 A 
ATOM      6  C   UNL     1       1.624   7.841  20.141  0.00  0.00    +0.000 A 
ATOM      7  C   UNL     1       2.314   7.665  18.930  0.00  0.00    +0.000 A 
ATOM      8  C   UNL     1       2.252   8.660  17.950  0.00  0.00    +0.000 A 
ATOM      9  C   UNL     1       1.498   9.813  18.179  0.00  0.00    +0.000 A 
ATOM     10  C   UNL     1       0.809   9.973  19.381  0.00  0.00    +0.000 A 
ATOM     11  F   UNL     1       0.110  11.106  19.544  0.00  0.00    +0.000 F 
BRANCH   5  13
ATOM     12  C   UNL     1       1.034   9.375  22.720  0.00  0.00    +0.000 C 
ATOM     13  O   UNL     1       0.239   9.018  21.594  0.00  0.00    +0.000 OA
ENDBRANCH   5  13
ENDBRANCH   1   7
BRANCH   3  14
ATOM     14  C   UNL     1       4.600   5.136  17.220  0.00  0.00    +0.000 C 
BRANCH  14  15
ATOM     15  C   UNL     1       5.978   5.416  16.546  0.00  0.00    +0.000 C 
ATOM     16  C   UNL     1       6.761   4.128  16.234  0.00  0.00    +0.000 C 
ATOM     17  C   UNL     1       6.341   3.777  14.832  0.00  0.00    +0.000 C 
ATOM     18  C   UNL     1       6.129   5.135  14.210  0.00  0.00    +0.000 C 
ATOM     19  O   UNL     1       5.670   6.004  15.249  0.00  0.00    +0.000 OA
BRANCH  15  20
ATOM     20  C   UNL     1       6.829   6.369  17.353  0.00  0.00    +0.000 A 
ATOM     21  C   UNL     1       7.695   6.058  18.428  0.00  0.00    +0.000 A 
ATOM     22  N   UNL     1       8.354   7.121  18.892  0.00  0.00    +0.000 NA
ATOM     23  N   UNL     1       7.948   8.119  18.088  0.00  0.00    +0.000 N 
ATOM     24  C   UNL     1       8.551   9.425  18.195  0.00  0.00    +0.000 C 
ATOM     25  C   UNL     1       7.014   7.729  17.177  0.00  0.00    +0.000 A 
ENDBRANCH  15  20
ENDBRANCH  14  15
ENDBRANCH   3  14
TORSDOF 5
ENDMDL
