MODEL 1
REMARK VINA RESULT:      -9.0      0.000      0.000
REMARK  Name = 
REMARK  4 active torsions:
REMARK  status: ('A' for Active; 'I' for Inactive)
REMARK    1  A    between atoms: C_1  and  N_2
REMARK    2  A    between atoms: C_8  and  N_9
REMARK    3  A    between atoms: N_12  and  C_13
REMARK    4  A    between atoms: C_16  and  C_17
REMARK                            x       y       z     vdW  Elec       q    Type
REMARK                         _______ _______ _______ _____ _____    ______ ____
ROOT
ATOM      1  N   UNL     1       2.274   5.858  20.323  0.00  0.00    +0.000 N 
ATOM      2  C   UNL     1       1.880   7.176  20.211  0.00  0.00    +0.000 C 
ATOM      3  O   UNL     1       1.867   7.840  19.183  0.00  0.00    +0.000 OA
ATOM      4  N   UNL     1       1.496   7.699  21.430  0.00  0.00    +0.000 N 
ATOM      5  H   UNL     1       1.805   5.361  21.063  0.00  0.00    +0.000 HD
ATOM      6  H   UNL     1       1.305   7.075  22.198  0.00  0.00    +0.000 HD
ENDROOT
BRANCH   1  14
ATOM      7  C   UNL     1       5.877   3.669  15.717  0.00  0.00    +0.000 C 
ATOM      8  N   UNL     1       5.632   4.231  17.037  0.00  0.00    +0.000 N 
ATOM      9  C   UNL     1       6.725   4.743  17.738  0.00  0.00    +0.000 C 
ATOM     10  O   UNL     1       7.876   4.778  17.291  0.00  0.00    +0.000 OA
ATOM     11  C   UNL     1       6.459   5.139  19.168  0.00  0.00    +0.000 C 
ATOM     12  C   UNL     1       5.139   5.868  19.288  0.00  0.00    +0.000 C 
ATOM     13  C   UNL     1       4.017   5.049  18.706  0.00  0.00    +0.000 A 
ATOM     14  C   UNL     1       2.703   5.068  19.229  0.00  0.00    +0.000 A 
ATOM     15  C   UNL     1       1.726   4.231  18.671  0.00  0.00    +0.000 A 
ATOM     16  C   UNL     1       2.010   3.460  17.549  0.00  0.00    +0.000 A 
ATOM     17  C   UNL     1       3.287   3.483  16.995  0.00  0.00    +0.000 A 
ATOM     18  C   UNL     1       4.308   4.251  17.574  0.00  0.00    +0.000 A 
ENDBRANCH   1  14
BRANCH   4  19
ATOM     19  C   UNL     1       1.132   9.096  21.546  0.00  0.00    +0.000 C 
ATOM     20  C   UNL     1       0.476   9.450  22.874  0.00  0.00    +0.000 C 
ATOM     21  C   UNL     1      -0.356  10.708  22.602  0.00  0.00    +0.000 C 
ATOM     22  C   UNL     1      -0.437  10.877  21.071  0.00  0.00    +0.000 C 
ATOM     23  C   UNL     1       0.102   9.553  20.513  0.00  0.00    +0.000 C 
BRANCH  22  24
ATOM     24  C   UNL     1       0.266  12.149  20.619  0.00  0.00    +0.000 A 
ATOM     25  C   UNL     1       0.321  13.322  21.389  0.00  0.00    +0.000 A 
ATOM     26  C   UNL     1       0.926  14.485  20.898  0.00  0.00    +0.000 A 
ATOM     27  C   UNL     1       1.507  14.489  19.635  0.00  0.00    +0.000 A 
ATOM     28  C   UNL     1       1.478  13.329  18.874  0.00  0.00    +0.000 A 
ATOM     29  F   UNL     1       2.045  13.325  17.660  0.00  0.00    +0.000 F 
ATOM     30  C   UNL     1       0.865  12.172  19.348  0.00  0.00    +0.000 A 
ENDBRANCH  22  24
ENDBRANCH   4  19
TORSDOF 3
ENDMDL
MODEL 2
REMARK VINA RESULT:      -8.9      3.420      4.615
REMARK  Name = 
REMARK  4 active torsions:
REMARK  status: ('A' for Active; 'I' for Inactive)
REMARK    1  A    between atoms: C_1  and  N_2
REMARK    2  A    between atoms: C_8  and  N_9
REMARK    3  A    between atoms: N_12  and  C_13
REMARK    4  A    between atoms: C_16  and  C_17
REMARK                            x       y       z     vdW  Elec       q    Type
REMARK                         _______ _______ _______ _____ _____    ______ ____
ROOT
ATOM      1  N   UNL     1       1.743   7.986  20.765  0.00  0.00    +0.000 N 
ATOM      2  C   UNL     1       0.819   8.994  20.577  0.00  0.00    +0.000 C 
ATOM      3  O   UNL     1       0.348   9.349  19.505  0.00  0.00    +0.000 OA
ATOM      4  N   UNL     1       0.474   9.598  21.770  0.00  0.00    +0.000 N 
ATOM      5  H   UNL     1       1.665   7.533  21.662  0.00  0.00    +0.000 HD
ATOM      6  H   UNL     1       0.702   9.144  22.640  0.00  0.00    +0.000 HD
ENDROOT
BRANCH   1  14
ATOM      7  C   UNL     1       3.621   2.935  17.611  0.00  0.00    +0.000 C 
ATOM      8  N   UNL     1       2.760   3.662  18.533  0.00  0.00    +0.000 N 
ATOM      9  C   UNL     1       1.904   2.917  19.345  0.00  0.00    +0.000 C 
ATOM     10  O   UNL     1       1.860   1.682  19.354  0.00  0.00    +0.000 OA
ATOM     11  C   UNL     1       0.901   3.712  20.143  0.00  0.00    +0.000 C 
ATOM     12  C   UNL     1       1.542   4.947  20.736  0.00  0.00    +0.000 C 
ATOM     13  C   UNL     1       2.206   5.776  19.668  0.00  0.00    +0.000 A 
ATOM     14  C   UNL     1       2.263   7.187  19.718  0.00  0.00    +0.000 A 
ATOM     15  C   UNL     1       2.844   7.893  18.655  0.00  0.00    +0.000 A 
ATOM     16  C   UNL     1       3.451   7.216  17.602  0.00  0.00    +0.000 A 
ATOM     17  C   UNL     1       3.448   5.824  17.578  0.00  0.00    +0.000 A 
ATOM     18  C   UNL     1       2.809   5.088  18.587  0.00  0.00    +0.000 A 
ENDBRANCH   1  14
BRANCH   4  19
ATOM     19  C   UNL     1      -0.416  10.741  21.781  0.00  0.00    +0.000 C 
ATOM     20  C   UNL     1       0.278  12.061  21.470  0.00  0.00    +0.000 C 
ATOM     21  C   UNL     1      -0.598  13.148  22.102  0.00  0.00    +0.000 C 
ATOM     22  C   UNL     1      -1.596  12.438  23.040  0.00  0.00    +0.000 C 
ATOM     23  C   UNL     1      -1.070  11.000  23.137  0.00  0.00    +0.000 C 
BRANCH  22  24
ATOM     24  C   UNL     1      -3.028  12.614  22.554  0.00  0.00    +0.000 A 
ATOM     25  C   UNL     1      -3.381  12.737  21.201  0.00  0.00    +0.000 A 
ATOM     26  C   UNL     1      -4.707  12.961  20.812  0.00  0.00    +0.000 A 
ATOM     27  C   UNL     1      -5.709  13.045  21.772  0.00  0.00    +0.000 A 
ATOM     28  C   UNL     1      -5.376  12.903  23.112  0.00  0.00    +0.000 A 
ATOM     29  F   UNL     1      -6.340  12.974  24.040  0.00  0.00    +0.000 F 
ATOM     30  C   UNL     1      -4.057  12.696  23.508  0.00  0.00    +0.000 A 
ENDBRANCH  22  24
ENDBRANCH   4  19
TORSDOF 3
ENDMDL
MODEL 3
REMARK VINA RESULT:      -8.9      2.744      3.289
REMARK  Name = 
REMARK  4 active torsions:
REMARK  status: ('A' for Active; 'I' for Inactive)
REMARK    1  A    between atoms: C_1  and  N_2
REMARK    2  A    between atoms: C_8  and  N_9
REMARK    3  A    between atoms: N_12  and  C_13
REMARK    4  A    between atoms: C_16  and  C_17
REMARK                            x       y       z     vdW  Elec       q    Type
REMARK                         _______ _______ _______ _____ _____    ______ ____
ROOT
ATOM      1  N   UNL     1       2.758   7.051  19.197  0.00  0.00    +0.000 N 
ATOM      2  C   UNL     1       1.811   7.887  18.642  0.00  0.00    +0.000 C 
ATOM      3  O   UNL     1       1.304   7.768  17.534  0.00  0.00    +0.000 OA
ATOM      4  N   UNL     1       1.486   8.925  19.493  0.00  0.00    +0.000 N 
ATOM      5  H   UNL     1       2.713   7.005  20.203  0.00  0.00    +0.000 HD
ATOM      6  H   UNL     1       1.745   8.869  20.465  0.00  0.00    +0.000 HD
ENDROOT
BRANCH   1  14
ATOM      7  C   UNL     1       6.070   3.489  15.281  0.00  0.00    +0.000 C 
ATOM      8  N   UNL     1       5.858   4.639  16.149  0.00  0.00    +0.000 N 
ATOM      9  C   UNL     1       6.767   5.694  16.063  0.00  0.00    +0.000 C 
ATOM     10  O   UNL     1       7.716   5.725  15.272  0.00  0.00    +0.000 OA
ATOM     11  C   UNL     1       6.620   6.772  17.106  0.00  0.00    +0.000 C 
ATOM     12  C   UNL     1       5.163   7.112  17.329  0.00  0.00    +0.000 C 
ATOM     13  C   UNL     1       4.369   5.878  17.669  0.00  0.00    +0.000 A 
ATOM     14  C   UNL     1       3.266   5.896  18.553  0.00  0.00    +0.000 A 
ATOM     15  C   UNL     1       2.614   4.696  18.869  0.00  0.00    +0.000 A 
ATOM     16  C   UNL     1       2.977   3.507  18.245  0.00  0.00    +0.000 A 
ATOM     17  C   UNL     1       4.026   3.495  17.330  0.00  0.00    +0.000 A 
ATOM     18  C   UNL     1       4.748   4.664  17.048  0.00  0.00    +0.000 A 
ENDBRANCH   1  14
BRANCH   4  19
ATOM     19  C   UNL     1       0.575   9.966  19.063  0.00  0.00    +0.000 C 
ATOM     20  C   UNL     1       1.224  11.339  18.948  0.00  0.00    +0.000 C 
ATOM     21  C   UNL     1       0.083  12.350  19.096  0.00  0.00    +0.000 C 
ATOM     22  C   UNL     1      -1.146  11.576  19.617  0.00  0.00    +0.000 C 
ATOM     23  C   UNL     1      -0.586  10.207  20.027  0.00  0.00    +0.000 C 
BRANCH  22  24
ATOM     24  C   UNL     1      -2.273  11.578  18.595  0.00  0.00    +0.000 A 
ATOM     25  C   UNL     1      -3.609  11.875  18.910  0.00  0.00    +0.000 A 
ATOM     26  C   UNL     1      -4.618  11.800  17.943  0.00  0.00    +0.000 A 
ATOM     27  C   UNL     1      -4.305  11.446  16.635  0.00  0.00    +0.000 A 
ATOM     28  C   UNL     1      -2.985  11.171  16.306  0.00  0.00    +0.000 A 
ATOM     29  F   UNL     1      -2.677  10.838  15.046  0.00  0.00    +0.000 F 
ATOM     30  C   UNL     1      -1.977  11.228  17.266  0.00  0.00    +0.000 A 
ENDBRANCH  22  24
ENDBRANCH   4  19
TORSDOF 3
ENDMDL
MODEL 4
REMARK VINA RESULT:      -8.8      2.776      4.064
REMARK  Name = 
REMARK  4 active torsions:
REMARK  status: ('A' for Active; 'I' for Inactive)
REMARK    1  A    between atoms: C_1  and  N_2
REMARK    2  A    between atoms: C_8  and  N_9
REMARK    3  A    between atoms: N_12  and  C_13
REMARK    4  A    between atoms: C_16  and  C_17
REMARK                            x       y       z     vdW  Elec       q    Type
REMARK                         _______ _______ _______ _____ _____    ______ ____
ROOT
ATOM      1  N   UNL     1       2.846   7.663  17.488  0.00  0.00    +0.000 N 
ATOM      2  C   UNL     1       1.970   8.300  18.343  0.00  0.00    +0.000 C 
ATOM      3  O   UNL     1       1.774   8.016  19.517  0.00  0.00    +0.000 OA
ATOM      4  N   UNL     1       1.297   9.328  17.712  0.00  0.00    +0.000 N 
ATOM      5  H   UNL     1       3.217   8.267  16.772  0.00  0.00    +0.000 HD
ATOM      6  H   UNL     1       1.639   9.675  16.830  0.00  0.00    +0.000 HD
ENDROOT
BRANCH   1  14
ATOM      7  C   UNL     1       4.598   2.146  19.828  0.00  0.00    +0.000 C 
ATOM      8  N   UNL     1       3.694   3.048  19.129  0.00  0.00    +0.000 N 
ATOM      9  C   UNL     1       2.387   2.612  18.907  0.00  0.00    +0.000 C 
ATOM     10  O   UNL     1       1.945   1.527  19.298  0.00  0.00    +0.000 OA
ATOM     11  C   UNL     1       1.546   3.493  18.019  0.00  0.00    +0.000 C 
ATOM     12  C   UNL     1       1.756   4.953  18.352  0.00  0.00    +0.000 C 
ATOM     13  C   UNL     1       3.217   5.314  18.291  0.00  0.00    +0.000 A 
ATOM     14  C   UNL     1       3.677   6.583  17.871  0.00  0.00    +0.000 A 
ATOM     15  C   UNL     1       5.055   6.824  17.782  0.00  0.00    +0.000 A 
ATOM     16  C   UNL     1       5.971   5.862  18.197  0.00  0.00    +0.000 A 
ATOM     17  C   UNL     1       5.521   4.631  18.667  0.00  0.00    +0.000 A 
ATOM     18  C   UNL     1       4.151   4.330  18.697  0.00  0.00    +0.000 A 
ENDBRANCH   1  14
BRANCH   4  19
ATOM     19  C   UNL     1       0.266  10.066  18.411  0.00  0.00    +0.000 C 
ATOM     20  C   UNL     1      -0.907  10.467  17.526  0.00  0.00    +0.000 C 
ATOM     21  C   UNL     1      -1.541  11.685  18.207  0.00  0.00    +0.000 C 
ATOM     22  C   UNL     1      -0.549  12.172  19.283  0.00  0.00    +0.000 C 
ATOM     23  C   UNL     1       0.743  11.399  18.987  0.00  0.00    +0.000 C 
BRANCH  22  24
ATOM     24  C   UNL     1      -1.135  12.020  20.680  0.00  0.00    +0.000 A 
ATOM     25  C   UNL     1      -2.198  12.798  21.166  0.00  0.00    +0.000 A 
ATOM     26  C   UNL     1      -2.656  12.662  22.482  0.00  0.00    +0.000 A 
ATOM     27  C   UNL     1      -2.071  11.728  23.331  0.00  0.00    +0.000 A 
ATOM     28  C   UNL     1      -1.033  10.939  22.855  0.00  0.00    +0.000 A 
ATOM     29  F   UNL     1      -0.472  10.032  23.666  0.00  0.00    +0.000 F 
ATOM     30  C   UNL     1      -0.561  11.079  21.552  0.00  0.00    +0.000 A 
ENDBRANCH  22  24
ENDBRANCH   4  19
TORSDOF 3
ENDMDL
MODEL 5
REMARK VINA RESULT:      -8.7      3.026      9.322
REMARK  Name = 
REMARK  4 active torsions:
REMARK  status: ('A' for Active; 'I' for Inactive)
REMARK    1  A    between atoms: C_1  and  N_2
REMARK    2  A    between atoms: C_8  and  N_9
REMARK    3  A    between atoms: N_12  and  C_13
REMARK    4  A    between atoms: C_16  and  C_17
REMARK                            x       y       z     vdW  Elec       q    Type
REMARK                         _______ _______ _______ _____ _____    ______ ____
ROOT
ATOM      1  N   UNL     1       1.402   8.831  20.171  0.00  0.00    +0.000 N 
ATOM      2  C   UNL     1       1.942   8.129  19.112  0.00  0.00    +0.000 C 
ATOM      3  O   UNL     1       1.920   8.467  17.937  0.00  0.00    +0.000 OA
ATOM      4  N   UNL     1       2.526   6.949  19.528  0.00  0.00    +0.000 N 
ATOM      5  H   UNL     1       1.887   8.680  21.041  0.00  0.00    +0.000 HD
ATOM      6  H   UNL     1       2.724   6.812  20.507  0.00  0.00    +0.000 HD
ENDROOT
BRANCH   1  14
ATOM      7  C   UNL     1      -2.698  13.447  21.099  0.00  0.00    +0.000 C 
ATOM      8  N   UNL     1      -1.859  12.333  21.516  0.00  0.00    +0.000 N 
ATOM      9  C   UNL     1      -2.085  11.791  22.782  0.00  0.00    +0.000 C 
ATOM     10  O   UNL     1      -2.972  12.175  23.551  0.00  0.00    +0.000 OA
ATOM     11  C   UNL     1      -1.075  10.771  23.246  0.00  0.00    +0.000 C 
ATOM     12  C   UNL     1      -0.713   9.822  22.126  0.00  0.00    +0.000 C 
ATOM     13  C   UNL     1      -0.241  10.579  20.912  0.00  0.00    +0.000 A 
ATOM     14  C   UNL     1       0.754  10.083  20.039  0.00  0.00    +0.000 A 
ATOM     15  C   UNL     1       1.186  10.873  18.963  0.00  0.00    +0.000 A 
ATOM     16  C   UNL     1       0.575  12.092  18.690  0.00  0.00    +0.000 A 
ATOM     17  C   UNL     1      -0.446  12.558  19.514  0.00  0.00    +0.000 A 
ATOM     18  C   UNL     1      -0.849  11.828  20.642  0.00  0.00    +0.000 A 
ENDBRANCH   1  14
BRANCH   4  19
ATOM     19  C   UNL     1       3.073   6.021  18.559  0.00  0.00    +0.000 C 
ATOM     20  C   UNL     1       2.079   4.967  18.092  0.00  0.00    +0.000 C 
ATOM     21  C   UNL     1       2.926   3.785  17.607  0.00  0.00    +0.000 C 
ATOM     22  C   UNL     1       4.369   4.030  18.096  0.00  0.00    +0.000 C 
ATOM     23  C   UNL     1       4.241   5.192  19.090  0.00  0.00    +0.000 C 
BRANCH  22  24
ATOM     24  C   UNL     1       5.321   4.231  16.925  0.00  0.00    +0.000 A 
ATOM     25  C   UNL     1       6.649   4.662  17.067  0.00  0.00    +0.000 A 
ATOM     26  C   UNL     1       7.462   4.893  15.951  0.00  0.00    +0.000 A 
ATOM     27  C   UNL     1       6.967   4.675  14.671  0.00  0.00    +0.000 A 
ATOM     28  C   UNL     1       5.662   4.228  14.518  0.00  0.00    +0.000 A 
ATOM     29  F   UNL     1       5.182   4.008  13.286  0.00  0.00    +0.000 F 
ATOM     30  C   UNL     1       4.841   4.011  15.622  0.00  0.00    +0.000 A 
ENDBRANCH  22  24
ENDBRANCH   4  19
TORSDOF 3
ENDMDL
MODEL 6
REMARK VINA RESULT:      -8.7      6.163      9.654
REMARK  Name = 
REMARK  4 active torsions:
REMARK  status: ('A' for Active; 'I' for Inactive)
REMARK    1  A    between atoms: C_1  and  N_2
REMARK    2  A    between atoms: C_8  and  N_9
REMARK    3  A    between atoms: N_12  and  C_13
REMARK    4  A    between atoms: C_16  and  C_17
REMARK                            x       y       z     vdW  Elec       q    Type
REMARK                         _______ _______ _______ _____ _____    ______ ____
ROOT
ATOM      1  N   UNL     1       9.471   9.543  19.212  0.00  0.00    +0.000 N 
ATOM      2  C   UNL     1       8.465   8.809  18.616  0.00  0.00    +0.000 C 
ATOM      3  O   UNL     1       7.598   9.246  17.872  0.00  0.00    +0.000 OA
ATOM      4  N   UNL     1       8.530   7.476  18.968  0.00  0.00    +0.000 N 
ATOM      5  H   UNL     1      10.310   9.012  19.379  0.00  0.00    +0.000 HD
ATOM      6  H   UNL     1       9.372   7.115  19.390  0.00  0.00    +0.000 HD
ENDROOT
BRANCH   1  14
ATOM      7  C   UNL     1       9.085  15.705  20.144  0.00  0.00    +0.000 C 
ATOM      8  N   UNL     1       9.191  14.318  20.570  0.00  0.00    +0.000 N 
ATOM      9  C   UNL     1       8.961  14.033  21.917  0.00  0.00    +0.000 C 
ATOM     10  O   UNL     1       8.639  14.881  22.756  0.00  0.00    +0.000 OA
ATOM     11  C   UNL     1       9.265  12.622  22.349  0.00  0.00    +0.000 C 
ATOM     12  C   UNL     1       8.774  11.625  21.323  0.00  0.00    +0.000 C 
ATOM     13  C   UNL     1       9.334  11.936  19.960  0.00  0.00    +0.000 A 
ATOM     14  C   UNL     1       9.655  10.934  19.016  0.00  0.00    +0.000 A 
ATOM     15  C   UNL     1      10.230  11.298  17.790  0.00  0.00    +0.000 A 
ATOM     16  C   UNL     1      10.395  12.638  17.455  0.00  0.00    +0.000 A 
ATOM     17  C   UNL     1      10.026  13.631  18.359  0.00  0.00    +0.000 A 
ATOM     18  C   UNL     1       9.518  13.299  19.624  0.00  0.00    +0.000 A 
ENDBRANCH   1  14
BRANCH   4  19
ATOM     19  C   UNL     1       7.511   6.549  18.520  0.00  0.00    +0.000 C 
ATOM     20  C   UNL     1       8.030   5.140  18.273  0.00  0.00    +0.000 C 
ATOM     21  C   UNL     1       7.052   4.507  17.276  0.00  0.00    +0.000 C 
ATOM     22  C   UNL     1       6.178   5.646  16.712  0.00  0.00    +0.000 C 
ATOM     23  C   UNL     1       6.876   6.929  17.183  0.00  0.00    +0.000 C 
BRANCH  22  24
ATOM     24  C   UNL     1       4.720   5.472  17.113  0.00  0.00    +0.000 A 
ATOM     25  C   UNL     1       3.930   6.505  17.642  0.00  0.00    +0.000 A 
ATOM     26  C   UNL     1       2.613   6.274  18.054  0.00  0.00    +0.000 A 
ATOM     27  C   UNL     1       2.053   5.008  17.925  0.00  0.00    +0.000 A 
ATOM     28  C   UNL     1       2.817   3.983  17.383  0.00  0.00    +0.000 A 
ATOM     29  F   UNL     1       2.280   2.764  17.248  0.00  0.00    +0.000 F 
ATOM     30  C   UNL     1       4.134   4.201  16.985  0.00  0.00    +0.000 A 
ENDBRANCH  22  24
ENDBRANCH   4  19
TORSDOF 3
ENDMDL
MODEL 7
REMARK VINA RESULT:      -8.7      0.842      1.052
REMARK  Name = 
REMARK  4 active torsions:
REMARK  status: ('A' for Active; 'I' for Inactive)
REMARK    1  A    between atoms: C_1  and  N_2
REMARK    2  A    between atoms: C_8  and  N_9
REMARK    3  A    between atoms: N_12  and  C_13
REMARK    4  A    between atoms: C_16  and  C_17
REMARK                            x       y       z     vdW  Elec       q    Type
REMARK                         _______ _______ _______ _____ _____    ______ ____
ROOT
ATOM      1  N   UNL     1       2.302   5.878  20.173  0.00  0.00    +0.000 N 
ATOM      2  C   UNL     1       1.869   7.180  20.026  0.00  0.00    +0.000 C 
ATOM      3  O   UNL     1       1.831   7.813  18.980  0.00  0.00    +0.000 OA
ATOM      4  N   UNL     1       1.478   7.726  21.232  0.00  0.00    +0.000 N 
ATOM      5  H   UNL     1       1.853   5.389  20.930  0.00  0.00    +0.000 HD
ATOM      6  H   UNL     1       1.311   7.119  22.020  0.00  0.00    +0.000 HD
ENDROOT
BRANCH   1  14
ATOM      7  C   UNL     1       5.958   3.630  15.637  0.00  0.00    +0.000 C 
ATOM      8  N   UNL     1       5.699   4.218  16.943  0.00  0.00    +0.000 N 
ATOM      9  C   UNL     1       6.782   4.756  17.640  0.00  0.00    +0.000 C 
ATOM     10  O   UNL     1       7.936   4.794  17.200  0.00  0.00    +0.000 OA
ATOM     11  C   UNL     1       6.502   5.180  19.059  0.00  0.00    +0.000 C 
ATOM     12  C   UNL     1       5.174   5.897  19.156  0.00  0.00    +0.000 C 
ATOM     13  C   UNL     1       4.064   5.054  18.585  0.00  0.00    +0.000 A 
ATOM     14  C   UNL     1       2.747   5.069  19.099  0.00  0.00    +0.000 A 
ATOM     15  C   UNL     1       1.783   4.210  18.553  0.00  0.00    +0.000 A 
ATOM     16  C   UNL     1       2.082   3.418  17.449  0.00  0.00    +0.000 A 
ATOM     17  C   UNL     1       3.363   3.443  16.903  0.00  0.00    +0.000 A 
ATOM     18  C   UNL     1       4.372   4.234  17.472  0.00  0.00    +0.000 A 
ENDBRANCH   1  14
BRANCH   4  19
ATOM     19  C   UNL     1       1.075   9.115  21.311  0.00  0.00    +0.000 C 
ATOM     20  C   UNL     1       0.648   9.550  22.707  0.00  0.00    +0.000 C 
ATOM     21  C   UNL     1      -0.278  10.754  22.499  0.00  0.00    +0.000 C 
ATOM     22  C   UNL     1      -0.636  10.799  20.999  0.00  0.00    +0.000 C 
ATOM     23  C   UNL     1      -0.141   9.454  20.450  0.00  0.00    +0.000 C 
BRANCH  22  24
ATOM     24  C   UNL     1      -0.084  12.054  20.339  0.00  0.00    +0.000 A 
ATOM     25  C   UNL     1      -0.628  12.624  19.176  0.00  0.00    +0.000 A 
ATOM     26  C   UNL     1      -0.042  13.743  18.573  0.00  0.00    +0.000 A 
ATOM     27  C   UNL     1       1.089  14.326  19.135  0.00  0.00    +0.000 A 
ATOM     28  C   UNL     1       1.623  13.785  20.295  0.00  0.00    +0.000 A 
ATOM     29  F   UNL     1       2.707  14.348  20.846  0.00  0.00    +0.000 F 
ATOM     30  C   UNL     1       1.055  12.662  20.894  0.00  0.00    +0.000 A 
ENDBRANCH  22  24
ENDBRANCH   4  19
TORSDOF 3
ENDMDL
MODEL 8
REMARK VINA RESULT:      -8.7      3.208      8.946
REMARK  Name = 
REMARK  4 active torsions:
REMARK  status: ('A' for Active; 'I' for Inactive)
REMARK    1  A    between atoms: C_1  and  N_2
REMARK    2  A    between atoms: C_8  and  N_9
REMARK    3  A    between atoms: N_12  and  C_13
REMARK    4  A    between atoms: C_16  and  C_17
REMARK                            x       y       z     vdW  Elec       q    Type
REMARK                         _______ _______ _______ _____ _____    ______ ____
ROOT
ATOM      1  N   UNL     1       1.033   9.468  19.683  0.00  0.00    +0.000 N 
ATOM      2  C   UNL     1       1.599   8.609  18.763  0.00  0.00    +0.000 C 
ATOM      3  O   UNL     1       1.533   8.710  17.545  0.00  0.00    +0.000 OA
ATOM      4  N   UNL     1       2.268   7.571  19.380  0.00  0.00    +0.000 N 
ATOM      5  H   UNL     1       1.543   9.520  20.550  0.00  0.00    +0.000 HD
ATOM      6  H   UNL     1       2.493   7.639  20.360  0.00  0.00    +0.000 HD
ENDROOT
BRANCH   1  14
ATOM      7  C   UNL     1      -0.316  15.484  18.692  0.00  0.00    +0.000 C 
ATOM      8  N   UNL     1       0.557  14.318  18.700  0.00  0.00    +0.000 N 
ATOM      9  C   UNL     1       1.927  14.533  18.548  0.00  0.00    +0.000 C 
ATOM     10  O   UNL     1       2.444  15.650  18.443  0.00  0.00    +0.000 OA
ATOM     11  C   UNL     1       2.768  13.294  18.373  0.00  0.00    +0.000 C 
ATOM     12  C   UNL     1       2.325  12.203  19.322  0.00  0.00    +0.000 C 
ATOM     13  C   UNL     1       0.854  11.919  19.167  0.00  0.00    +0.000 A 
ATOM     14  C   UNL     1       0.301  10.629  19.331  0.00  0.00    +0.000 A 
ATOM     15  C   UNL     1      -1.069  10.431  19.110  0.00  0.00    +0.000 A 
ATOM     16  C   UNL     1      -1.904  11.508  18.828  0.00  0.00    +0.000 A 
ATOM     17  C   UNL     1      -1.372  12.790  18.722  0.00  0.00    +0.000 A 
ATOM     18  C   UNL     1       0.006  13.011  18.863  0.00  0.00    +0.000 A 
ENDBRANCH   1  14
BRANCH   4  19
ATOM     19  C   UNL     1       2.858   6.508  18.592  0.00  0.00    +0.000 C 
ATOM     20  C   UNL     1       1.861   5.444  18.155  0.00  0.00    +0.000 C 
ATOM     21  C   UNL     1       2.688   4.178  17.906  0.00  0.00    +0.000 C 
ATOM     22  C   UNL     1       4.087   4.425  18.508  0.00  0.00    +0.000 C 
ATOM     23  C   UNL     1       3.924   5.706  19.337  0.00  0.00    +0.000 C 
BRANCH  22  24
ATOM     24  C   UNL     1       5.158   4.439  17.427  0.00  0.00    +0.000 A 
ATOM     25  C   UNL     1       6.522   4.650  17.686  0.00  0.00    +0.000 A 
ATOM     26  C   UNL     1       7.457   4.718  16.646  0.00  0.00    +0.000 A 
ATOM     27  C   UNL     1       7.047   4.554  15.328  0.00  0.00    +0.000 A 
ATOM     28  C   UNL     1       5.705   4.324  15.061  0.00  0.00    +0.000 A 
ATOM     29  F   UNL     1       5.306   4.157  13.793  0.00  0.00    +0.000 F 
ATOM     30  C   UNL     1       4.765   4.271  16.088  0.00  0.00    +0.000 A 
ENDBRANCH  22  24
ENDBRANCH   4  19
TORSDOF 3
ENDMDL
MODEL 9
REMARK VINA RESULT:      -8.7      2.853      4.126
REMARK  Name = 
REMARK  4 active torsions:
REMARK  status: ('A' for Active; 'I' for Inactive)
REMARK    1  A    between atoms: C_1  and  N_2
REMARK    2  A    between atoms: C_8  and  N_9
REMARK    3  A    between atoms: N_12  and  C_13
REMARK    4  A    between atoms: C_16  and  C_17
REMARK                            x       y       z     vdW  Elec       q    Type
REMARK                         _______ _______ _______ _____ _____    ______ ____
ROOT
ATOM      1  N   UNL     1       2.813   7.744  17.464  0.00  0.00    +0.000 N 
ATOM      2  C   UNL     1       1.925   8.358  18.323  0.00  0.00    +0.000 C 
ATOM      3  O   UNL     1       1.729   8.059  19.493  0.00  0.00    +0.000 OA
ATOM      4  N   UNL     1       1.239   9.382  17.701  0.00  0.00    +0.000 N 
ATOM      5  H   UNL     1       3.178   8.361  16.756  0.00  0.00    +0.000 HD
ATOM      6  H   UNL     1       1.578   9.744  16.823  0.00  0.00    +0.000 HD
ENDROOT
BRANCH   1  14
ATOM      7  C   UNL     1       4.643   2.230  19.754  0.00  0.00    +0.000 C 
ATOM      8  N   UNL     1       3.727   3.125  19.061  0.00  0.00    +0.000 N 
ATOM      9  C   UNL     1       2.427   2.672  18.830  0.00  0.00    +0.000 C 
ATOM     10  O   UNL     1       2.001   1.576  19.208  0.00  0.00    +0.000 OA
ATOM     11  C   UNL     1       1.575   3.549  17.948  0.00  0.00    +0.000 C 
ATOM     12  C   UNL     1       1.763   5.009  18.297  0.00  0.00    +0.000 C 
ATOM     13  C   UNL     1       3.218   5.392  18.245  0.00  0.00    +0.000 A 
ATOM     14  C   UNL     1       3.660   6.672  17.839  0.00  0.00    +0.000 A 
ATOM     15  C   UNL     1       5.035   6.935  17.756  0.00  0.00    +0.000 A 
ATOM     16  C   UNL     1       5.964   5.983  18.165  0.00  0.00    +0.000 A 
ATOM     17  C   UNL     1       5.531   4.741  18.621  0.00  0.00    +0.000 A 
ATOM     18  C   UNL     1       4.166   4.419  18.644  0.00  0.00    +0.000 A 
ENDBRANCH   1  14
BRANCH   4  19
ATOM     19  C   UNL     1       0.194  10.097  18.403  0.00  0.00    +0.000 C 
ATOM     20  C   UNL     1      -1.058  10.329  17.568  0.00  0.00    +0.000 C 
ATOM     21  C   UNL     1      -1.748  11.549  18.187  0.00  0.00    +0.000 C 
ATOM     22  C   UNL     1      -0.737  12.202  19.153  0.00  0.00    +0.000 C 
ATOM     23  C   UNL     1       0.593  11.507  18.836  0.00  0.00    +0.000 C 
BRANCH  22  24
ATOM     24  C   UNL     1      -1.225  12.127  20.593  0.00  0.00    +0.000 A 
ATOM     25  C   UNL     1      -0.522  11.475  21.619  0.00  0.00    +0.000 A 
ATOM     26  C   UNL     1      -1.047  11.381  22.913  0.00  0.00    +0.000 A 
ATOM     27  C   UNL     1      -2.278  11.957  23.210  0.00  0.00    +0.000 A 
ATOM     28  C   UNL     1      -2.972  12.623  22.210  0.00  0.00    +0.000 A 
ATOM     29  F   UNL     1      -4.153  13.187  22.493  0.00  0.00    +0.000 F 
ATOM     30  C   UNL     1      -2.464  12.708  20.915  0.00  0.00    +0.000 A 
ENDBRANCH  22  24
ENDBRANCH   4  19
TORSDOF 3
ENDMDL
