MODEL 1
REMARK VINA RESULT:      -7.7      0.000      0.000
REMARK  Name = 
REMARK  9 active torsions:
REMARK  status: ('A' for Active; 'I' for Inactive)
REMARK    1  A    between atoms: C_1  and  S_2
REMARK    2  A    between atoms: S_2  and  C_5
REMARK    3  A    between atoms: C_11  and  C_12
REMARK    4  A    between atoms: C_12  and  N_13
REMARK    5  A    between atoms: C_14  and  C_16
REMARK    6  A    between atoms: C_19  and  O_20
REMARK    7  A    between atoms: O_20  and  C_21
REMARK    8  A    between atoms: C_21  and  C_22
REMARK    9  A    between atoms: C_22  and  C_23
REMARK                            x       y       z     vdW  Elec       q    Type
REMARK                         _______ _______ _______ _____ _____    ______ ____
ROOT
ATOM      1  N   UNL     1       2.689   7.467  19.385  0.00  0.00    +0.000 N 
ATOM      2  C   UNL     1       2.834   6.169  18.939  0.00  0.00    +0.000 C 
ATOM      3  O   UNL     1       2.189   5.218  19.368  0.00  0.00    +0.000 OA
ATOM      4  H   UNL     1       2.916   8.198  18.707  0.00  0.00    +0.000 HD
ENDROOT
BRANCH   2   5
ATOM      5  C   UNL     1       3.848   5.971  17.871  0.00  0.00    +0.000 A 
ATOM      6  C   UNL     1       4.142   6.969  16.940  0.00  0.00    +0.000 A 
ATOM      7  C   UNL     1       5.096   6.718  15.947  0.00  0.00    +0.000 A 
ATOM      8  C   UNL     1       5.687   5.463  15.901  0.00  0.00    +0.000 A 
ATOM      9  N   UNL     1       5.409   4.479  16.779  0.00  0.00    +0.000 NA
ATOM     10  C   UNL     1       4.500   4.752  17.741  0.00  0.00    +0.000 A 
BRANCH   8  11
ATOM     11  O   UNL     1       6.626   5.230  14.913  0.00  0.00    +0.000 OA
BRANCH  11  12
ATOM     12  C   UNL     1       6.510   3.903  14.377  0.00  0.00    +0.000 C 
BRANCH  12  13
ATOM     13  C   UNL     1       5.277   3.827  13.493  0.00  0.00    +0.000 C 
BRANCH  13  14
ATOM     14  C   UNL     1       5.637   3.408  12.085  0.00  0.00    +0.000 C 
ATOM     15  F   UNL     1       6.825   3.897  11.676  0.00  0.00    +0.000 F 
ATOM     16  F   UNL     1       5.703   2.060  11.994  0.00  0.00    +0.000 F 
ATOM     17  F   UNL     1       4.700   3.824  11.204  0.00  0.00    +0.000 F 
ENDBRANCH  13  14
ENDBRANCH  12  13
ENDBRANCH  11  12
ENDBRANCH   8  11
ENDBRANCH   2   5
BRANCH   1  18
ATOM     18  C   UNL     1       1.698   7.852  20.361  0.00  0.00    +0.000 C 
BRANCH  18  25
ATOM     19  C   UNL     1       0.214   9.945  20.875  0.00  0.00    +0.000 A 
ATOM     20  C   UNL     1      -0.374  11.143  20.421  0.00  0.00    +0.000 A 
ATOM     21  C   UNL     1      -0.183  11.571  19.112  0.00  0.00    +0.000 A 
ATOM     22 CL   UNL     1      -0.874  13.054  18.586  0.00  0.00    +0.000 Cl
ATOM     23  C   UNL     1       0.576  10.807  18.239  0.00  0.00    +0.000 A 
ATOM     24  C   UNL     1       1.142   9.606  18.677  0.00  0.00    +0.000 A 
ATOM     25  C   UNL     1       0.982   9.142  20.003  0.00  0.00    +0.000 A 
BRANCH  19  27
ATOM     26  C   UNL     1      -1.162  10.895  23.117  0.00  0.00    +0.000 C 
ATOM     27  S   UNL     1      -0.119   9.552  22.588  0.00  0.00    +0.000 S 
ATOM     28  O   UNL     1       1.122   9.607  23.337  0.00  0.00    +0.000 OA
ATOM     29  O   UNL     1      -0.916   8.338  22.600  0.00  0.00    +0.000 OA
ENDBRANCH  19  27
ENDBRANCH  18  25
ENDBRANCH   1  18
TORSDOF 8
ENDMDL
MODEL 2
REMARK VINA RESULT:      -7.7      1.067      1.459
REMARK  Name = 
REMARK  9 active torsions:
REMARK  status: ('A' for Active; 'I' for Inactive)
REMARK    1  A    between atoms: C_1  and  S_2
REMARK    2  A    between atoms: S_2  and  C_5
REMARK    3  A    between atoms: C_11  and  C_12
REMARK    4  A    between atoms: C_12  and  N_13
REMARK    5  A    between atoms: C_14  and  C_16
REMARK    6  A    between atoms: C_19  and  O_20
REMARK    7  A    between atoms: O_20  and  C_21
REMARK    8  A    between atoms: C_21  and  C_22
REMARK    9  A    between atoms: C_22  and  C_23
REMARK                            x       y       z     vdW  Elec       q    Type
REMARK                         _______ _______ _______ _____ _____    ______ ____
ROOT
ATOM      1  N   UNL     1       2.407   6.997  19.989  0.00  0.00    +0.000 N 
ATOM      2  C   UNL     1       2.262   5.638  19.794  0.00  0.00    +0.000 C 
ATOM      3  O   UNL     1       1.516   4.924  20.453  0.00  0.00    +0.000 OA
ATOM      4  H   UNL     1       2.675   7.539  19.165  0.00  0.00    +0.000 HD
ENDROOT
BRANCH   2   5
ATOM      5  C   UNL     1       3.086   5.061  18.700  0.00  0.00    +0.000 A 
ATOM      6  C   UNL     1       2.642   3.983  17.932  0.00  0.00    +0.000 A 
ATOM      7  C   UNL     1       3.470   3.471  16.927  0.00  0.00    +0.000 A 
ATOM      8  C   UNL     1       4.727   4.035  16.756  0.00  0.00    +0.000 A 
ATOM      9  N   UNL     1       5.185   5.066  17.494  0.00  0.00    +0.000 NA
ATOM     10  C   UNL     1       4.358   5.555  18.446  0.00  0.00    +0.000 A 
BRANCH   8  11
ATOM     11  O   UNL     1       5.534   3.518  15.759  0.00  0.00    +0.000 OA
BRANCH  11  12
ATOM     12  C   UNL     1       5.752   4.472  14.709  0.00  0.00    +0.000 C 
BRANCH  12  13
ATOM     13  C   UNL     1       6.690   3.872  13.675  0.00  0.00    +0.000 C 
BRANCH  13  14
ATOM     14  C   UNL     1       5.945   3.486  12.417  0.00  0.00    +0.000 C 
ATOM     15  F   UNL     1       6.009   2.166  12.148  0.00  0.00    +0.000 F 
ATOM     16  F   UNL     1       4.636   3.812  12.522  0.00  0.00    +0.000 F 
ATOM     17  F   UNL     1       6.437   4.144  11.344  0.00  0.00    +0.000 F 
ENDBRANCH  13  14
ENDBRANCH  12  13
ENDBRANCH  11  12
ENDBRANCH   8  11
ENDBRANCH   2   5
BRANCH   1  18
ATOM     18  C   UNL     1       1.627   7.734  20.955  0.00  0.00    +0.000 C 
BRANCH  18  25
ATOM     19  C   UNL     1       0.212   9.932  21.075  0.00  0.00    +0.000 A 
ATOM     20  C   UNL     1      -0.266  11.091  20.431  0.00  0.00    +0.000 A 
ATOM     21  C   UNL     1       0.072  11.355  19.109  0.00  0.00    +0.000 A 
ATOM     22 CL   UNL     1      -0.485  12.792  18.351  0.00  0.00    +0.000 Cl
ATOM     23  C   UNL     1       0.872  10.463  18.409  0.00  0.00    +0.000 A 
ATOM     24  C   UNL     1       1.330   9.300  19.036  0.00  0.00    +0.000 A 
ATOM     25  C   UNL     1       1.018   9.001  20.383  0.00  0.00    +0.000 A 
BRANCH  19  27
ATOM     26  C   UNL     1      -1.302  11.207  23.051  0.00  0.00    +0.000 C 
ATOM     27  S   UNL     1      -0.304   9.757  22.779  0.00  0.00    +0.000 S 
ATOM     28  O   UNL     1       0.862   9.830  23.638  0.00  0.00    +0.000 OA
ATOM     29  O   UNL     1      -1.176   8.598  22.844  0.00  0.00    +0.000 OA
ENDBRANCH  19  27
ENDBRANCH  18  25
ENDBRANCH   1  18
TORSDOF 8
ENDMDL
MODEL 3
REMARK VINA RESULT:      -7.6      7.136     10.833
REMARK  Name = 
REMARK  9 active torsions:
REMARK  status: ('A' for Active; 'I' for Inactive)
REMARK    1  A    between atoms: C_1  and  S_2
REMARK    2  A    between atoms: S_2  and  C_5
REMARK    3  A    between atoms: C_11  and  C_12
REMARK    4  A    between atoms: C_12  and  N_13
REMARK    5  A    between atoms: C_14  and  C_16
REMARK    6  A    between atoms: C_19  and  O_20
REMARK    7  A    between atoms: O_20  and  C_21
REMARK    8  A    between atoms: C_21  and  C_22
REMARK    9  A    between atoms: C_22  and  C_23
REMARK                            x       y       z     vdW  Elec       q    Type
REMARK                         _______ _______ _______ _____ _____    ______ ____
ROOT
ATOM      1  N   UNL     1       2.490   8.220  18.846  0.00  0.00    +0.000 N 
ATOM      2  C   UNL     1       1.450   9.120  18.723  0.00  0.00    +0.000 C 
ATOM      3  O   UNL     1       1.023   9.536  17.652  0.00  0.00    +0.000 OA
ATOM      4  H   UNL     1       2.471   7.630  19.680  0.00  0.00    +0.000 HD
ENDROOT
BRANCH   2   5
ATOM      5  C   UNL     1       0.848   9.576  20.003  0.00  0.00    +0.000 A 
ATOM      6  C   UNL     1       0.250   8.685  20.896  0.00  0.00    +0.000 A 
ATOM      7  C   UNL     1      -0.315   9.176  22.078  0.00  0.00    +0.000 A 
ATOM      8  C   UNL     1      -0.294  10.546  22.301  0.00  0.00    +0.000 A 
ATOM      9  N   UNL     1       0.264  11.428  21.448  0.00  0.00    +0.000 NA
ATOM     10  C   UNL     1       0.820  10.927  20.322  0.00  0.00    +0.000 A 
BRANCH   8  11
ATOM     11  O   UNL     1      -0.857  11.017  23.472  0.00  0.00    +0.000 OA
BRANCH  11  12
ATOM     12  C   UNL     1      -1.457  12.309  23.288  0.00  0.00    +0.000 C 
BRANCH  12  13
ATOM     13  C   UNL     1      -2.939  12.135  23.000  0.00  0.00    +0.000 C 
BRANCH  13  14
ATOM     14  C   UNL     1      -3.785  12.850  24.029  0.00  0.00    +0.000 C 
ATOM     15  F   UNL     1      -4.317  12.016  24.947  0.00  0.00    +0.000 F 
ATOM     16  F   UNL     1      -3.047  13.766  24.697  0.00  0.00    +0.000 F 
ATOM     17  F   UNL     1      -4.806  13.510  23.439  0.00  0.00    +0.000 F 
ENDBRANCH  13  14
ENDBRANCH  12  13
ENDBRANCH  11  12
ENDBRANCH   8  11
ENDBRANCH   2   5
BRANCH   1  18
ATOM     18  C   UNL     1       3.137   7.615  17.707  0.00  0.00    +0.000 C 
BRANCH  18  25
ATOM     19  C   UNL     1       4.325   5.307  17.375  0.00  0.00    +0.000 A 
ATOM     20  C   UNL     1       4.316   3.911  17.571  0.00  0.00    +0.000 A 
ATOM     21  C   UNL     1       3.259   3.298  18.233  0.00  0.00    +0.000 A 
ATOM     22 CL   UNL     1       3.283   1.600  18.499  0.00  0.00    +0.000 Cl
ATOM     23  C   UNL     1       2.193   4.060  18.689  0.00  0.00    +0.000 A 
ATOM     24  C   UNL     1       2.186   5.442  18.477  0.00  0.00    +0.000 A 
ATOM     25  C   UNL     1       3.247   6.105  17.819  0.00  0.00    +0.000 A 
BRANCH  19  27
ATOM     26  C   UNL     1       6.746   4.469  16.253  0.00  0.00    +0.000 C 
ATOM     27  S   UNL     1       5.767   5.933  16.522  0.00  0.00    +0.000 S 
ATOM     28  O   UNL     1       6.496   6.820  17.409  0.00  0.00    +0.000 OA
ATOM     29  O   UNL     1       5.322   6.414  15.227  0.00  0.00    +0.000 OA
ENDBRANCH  19  27
ENDBRANCH  18  25
ENDBRANCH   1  18
TORSDOF 8
ENDMDL
MODEL 4
REMARK VINA RESULT:      -7.5      6.649     10.597
REMARK  Name = 
REMARK  9 active torsions:
REMARK  status: ('A' for Active; 'I' for Inactive)
REMARK    1  A    between atoms: C_1  and  S_2
REMARK    2  A    between atoms: S_2  and  C_5
REMARK    3  A    between atoms: C_11  and  C_12
REMARK    4  A    between atoms: C_12  and  N_13
REMARK    5  A    between atoms: C_14  and  C_16
REMARK    6  A    between atoms: C_19  and  O_20
REMARK    7  A    between atoms: O_20  and  C_21
REMARK    8  A    between atoms: C_21  and  C_22
REMARK    9  A    between atoms: C_22  and  C_23
REMARK                            x       y       z     vdW  Elec       q    Type
REMARK                         _______ _______ _______ _____ _____    ______ ____
ROOT
ATOM      1  N   UNL     1       2.460   8.078  18.798  0.00  0.00    +0.000 N 
ATOM      2  C   UNL     1       1.546   9.105  18.685  0.00  0.00    +0.000 C 
ATOM      3  O   UNL     1       1.261   9.659  17.629  0.00  0.00    +0.000 OA
ATOM      4  H   UNL     1       2.304   7.426  19.570  0.00  0.00    +0.000 HD
ENDROOT
BRANCH   2   5
ATOM      5  C   UNL     1       0.895   9.522  19.954  0.00  0.00    +0.000 A 
ATOM      6  C   UNL     1       0.943   8.729  21.102  0.00  0.00    +0.000 A 
ATOM      7  C   UNL     1       0.298   9.167  22.264  0.00  0.00    +0.000 A 
ATOM      8  C   UNL     1      -0.405  10.364  22.218  0.00  0.00    +0.000 A 
ATOM      9  N   UNL     1      -0.479  11.140  21.118  0.00  0.00    +0.000 NA
ATOM     10  C   UNL     1       0.170  10.704  20.014  0.00  0.00    +0.000 A 
BRANCH   8  11
ATOM     11  O   UNL     1      -1.039  10.783  23.373  0.00  0.00    +0.000 OA
BRANCH  11  12
ATOM     12  C   UNL     1      -1.581  12.105  23.227  0.00  0.00    +0.000 C 
BRANCH  12  13
ATOM     13  C   UNL     1      -3.070  12.071  23.527  0.00  0.00    +0.000 C 
BRANCH  13  14
ATOM     14  C   UNL     1      -3.832  13.014  22.624  0.00  0.00    +0.000 C 
ATOM     15  F   UNL     1      -3.027  13.785  21.864  0.00  0.00    +0.000 F 
ATOM     16  F   UNL     1      -4.636  12.322  21.784  0.00  0.00    +0.000 F 
ATOM     17  F   UNL     1      -4.622  13.840  23.346  0.00  0.00    +0.000 F 
ENDBRANCH  13  14
ENDBRANCH  12  13
ENDBRANCH  11  12
ENDBRANCH   8  11
ENDBRANCH   2   5
BRANCH   1  18
ATOM     18  C   UNL     1       3.127   7.496  17.658  0.00  0.00    +0.000 C 
BRANCH  18  25
ATOM     19  C   UNL     1       4.389   5.224  17.345  0.00  0.00    +0.000 A 
ATOM     20  C   UNL     1       4.413   3.828  17.530  0.00  0.00    +0.000 A 
ATOM     21  C   UNL     1       3.355   3.179  18.156  0.00  0.00    +0.000 A 
ATOM     22 CL   UNL     1       3.419   1.481  18.410  0.00  0.00    +0.000 Cl
ATOM     23  C   UNL     1       2.256   3.907  18.586  0.00  0.00    +0.000 A 
ATOM     24  C   UNL     1       2.215   5.291  18.384  0.00  0.00    +0.000 A 
ATOM     25  C   UNL     1       3.276   5.989  17.762  0.00  0.00    +0.000 A 
BRANCH  19  27
ATOM     26  C   UNL     1       6.837   4.456  16.233  0.00  0.00    +0.000 C 
ATOM     27  S   UNL     1       5.837   5.897  16.539  0.00  0.00    +0.000 S 
ATOM     28  O   UNL     1       6.540   6.760  17.469  0.00  0.00    +0.000 OA
ATOM     29  O   UNL     1       5.407   6.420  15.255  0.00  0.00    +0.000 OA
ENDBRANCH  19  27
ENDBRANCH  18  25
ENDBRANCH   1  18
TORSDOF 8
ENDMDL
MODEL 5
REMARK VINA RESULT:      -7.5      4.250      5.164
REMARK  Name = 
REMARK  9 active torsions:
REMARK  status: ('A' for Active; 'I' for Inactive)
REMARK    1  A    between atoms: C_1  and  S_2
REMARK    2  A    between atoms: S_2  and  C_5
REMARK    3  A    between atoms: C_11  and  C_12
REMARK    4  A    between atoms: C_12  and  N_13
REMARK    5  A    between atoms: C_14  and  C_16
REMARK    6  A    between atoms: C_19  and  O_20
REMARK    7  A    between atoms: O_20  and  C_21
REMARK    8  A    between atoms: C_21  and  C_22
REMARK    9  A    between atoms: C_22  and  C_23
REMARK                            x       y       z     vdW  Elec       q    Type
REMARK                         _______ _______ _______ _____ _____    ______ ____
ROOT
ATOM      1  N   UNL     1       0.979   9.741  19.270  0.00  0.00    +0.000 N 
ATOM      2  C   UNL     1       1.841   9.159  18.362  0.00  0.00    +0.000 C 
ATOM      3  O   UNL     1       2.198   9.688  17.315  0.00  0.00    +0.000 OA
ATOM      4  H   UNL     1       1.094   9.450  20.242  0.00  0.00    +0.000 HD
ENDROOT
BRANCH   2   5
ATOM      5  C   UNL     1       2.336   7.807  18.731  0.00  0.00    +0.000 A 
ATOM      6  C   UNL     1       1.985   7.197  19.937  0.00  0.00    +0.000 A 
ATOM      7  C   UNL     1       2.496   5.929  20.236  0.00  0.00    +0.000 A 
ATOM      8  C   UNL     1       3.371   5.340  19.334  0.00  0.00    +0.000 A 
ATOM      9  N   UNL     1       3.737   5.915  18.171  0.00  0.00    +0.000 NA
ATOM     10  C   UNL     1       3.214   7.131  17.895  0.00  0.00    +0.000 A 
BRANCH   8  11
ATOM     11  O   UNL     1       3.869   4.088  19.644  0.00  0.00    +0.000 OA
BRANCH  11  12
ATOM     12  C   UNL     1       3.508   3.115  18.651  0.00  0.00    +0.000 C 
BRANCH  12  13
ATOM     13  C   UNL     1       2.424   2.209  19.211  0.00  0.00    +0.000 C 
BRANCH  13  14
ATOM     14  C   UNL     1       1.046   2.753  18.911  0.00  0.00    +0.000 C 
ATOM     15  F   UNL     1       0.466   3.340  19.978  0.00  0.00    +0.000 F 
ATOM     16  F   UNL     1       1.104   3.677  17.925  0.00  0.00    +0.000 F 
ATOM     17  F   UNL     1       0.220   1.769  18.490  0.00  0.00    +0.000 F 
ENDBRANCH  13  14
ENDBRANCH  12  13
ENDBRANCH  11  12
ENDBRANCH   8  11
ENDBRANCH   2   5
BRANCH   1  18
ATOM     18  C   UNL     1       0.464  11.080  19.109  0.00  0.00    +0.000 C 
BRANCH  18  25
ATOM     19  C   UNL     1      -1.968  12.019  19.339  0.00  0.00    +0.000 A 
ATOM     20  C   UNL     1      -3.322  11.959  18.951  0.00  0.00    +0.000 A 
ATOM     21  C   UNL     1      -3.748  11.023  18.016  0.00  0.00    +0.000 A 
ATOM     22 CL   UNL     1      -5.394  10.990  17.524  0.00  0.00    +0.000 Cl
ATOM     23  C   UNL     1      -2.839  10.128  17.471  0.00  0.00    +0.000 A 
ATOM     24  C   UNL     1      -1.499  10.167  17.870  0.00  0.00    +0.000 A 
ATOM     25  C   UNL     1      -1.024  11.112  18.809  0.00  0.00    +0.000 A 
BRANCH  19  27
ATOM     26  C   UNL     1      -1.059  12.363  21.961  0.00  0.00    +0.000 C 
ATOM     27  S   UNL     1      -1.590  13.292  20.537  0.00  0.00    +0.000 S 
ATOM     28  O   UNL     1      -2.808  14.003  20.876  0.00  0.00    +0.000 OA
ATOM     29  O   UNL     1      -0.443  14.026  20.033  0.00  0.00    +0.000 OA
ENDBRANCH  19  27
ENDBRANCH  18  25
ENDBRANCH   1  18
TORSDOF 8
ENDMDL
MODEL 6
REMARK VINA RESULT:      -7.5      6.412     10.428
REMARK  Name = 
REMARK  9 active torsions:
REMARK  status: ('A' for Active; 'I' for Inactive)
REMARK    1  A    between atoms: C_1  and  S_2
REMARK    2  A    between atoms: S_2  and  C_5
REMARK    3  A    between atoms: C_11  and  C_12
REMARK    4  A    between atoms: C_12  and  N_13
REMARK    5  A    between atoms: C_14  and  C_16
REMARK    6  A    between atoms: C_19  and  O_20
REMARK    7  A    between atoms: O_20  and  C_21
REMARK    8  A    between atoms: C_21  and  C_22
REMARK    9  A    between atoms: C_22  and  C_23
REMARK                            x       y       z     vdW  Elec       q    Type
REMARK                         _______ _______ _______ _____ _____    ______ ____
ROOT
ATOM      1  N   UNL     1       2.567   7.984  18.693  0.00  0.00    +0.000 N 
ATOM      2  C   UNL     1       1.712   9.062  18.585  0.00  0.00    +0.000 C 
ATOM      3  O   UNL     1       1.469   9.646  17.535  0.00  0.00    +0.000 OA
ATOM      4  H   UNL     1       2.367   7.332  19.454  0.00  0.00    +0.000 HD
ENDROOT
BRANCH   2   5
ATOM      5  C   UNL     1       1.074   9.498  19.855  0.00  0.00    +0.000 A 
ATOM      6  C   UNL     1       0.841   8.609  20.906  0.00  0.00    +0.000 A 
ATOM      7  C   UNL     1       0.221   9.074  22.071  0.00  0.00    +0.000 A 
ATOM      8  C   UNL     1      -0.179  10.403  22.121  0.00  0.00    +0.000 A 
ATOM      9  N   UNL     1       0.021  11.277  21.114  0.00  0.00    +0.000 NA
ATOM     10  C   UNL     1       0.640  10.808  20.007  0.00  0.00    +0.000 A 
BRANCH   8  11
ATOM     11  O   UNL     1      -0.792  10.848  23.278  0.00  0.00    +0.000 OA
BRANCH  11  12
ATOM     12  C   UNL     1      -1.348  12.161  23.109  0.00  0.00    +0.000 C 
BRANCH  12  13
ATOM     13  C   UNL     1      -2.858  12.087  23.262  0.00  0.00    +0.000 C 
BRANCH  13  14
ATOM     14  C   UNL     1      -3.560  12.754  22.100  0.00  0.00    +0.000 C 
ATOM     15  F   UNL     1      -4.885  12.500  22.068  0.00  0.00    +0.000 F 
ATOM     16  F   UNL     1      -3.408  14.096  22.160  0.00  0.00    +0.000 F 
ATOM     17  F   UNL     1      -3.039  12.343  20.922  0.00  0.00    +0.000 F 
ENDBRANCH  13  14
ENDBRANCH  12  13
ENDBRANCH  11  12
ENDBRANCH   8  11
ENDBRANCH   2   5
BRANCH   1  18
ATOM     18  C   UNL     1       3.212   7.382  17.550  0.00  0.00    +0.000 C 
BRANCH  18  25
ATOM     19  C   UNL     1       4.410   5.086  17.173  0.00  0.00    +0.000 A 
ATOM     20  C   UNL     1       4.433   3.693  17.385  0.00  0.00    +0.000 A 
ATOM     21  C   UNL     1       3.427   3.073  18.117  0.00  0.00    +0.000 A 
ATOM     22 CL   UNL     1       3.492   1.380  18.401  0.00  0.00    +0.000 Cl
ATOM     23  C   UNL     1       2.381   3.826  18.630  0.00  0.00    +0.000 A 
ATOM     24  C   UNL     1       2.340   5.205  18.402  0.00  0.00    +0.000 A 
ATOM     25  C   UNL     1       3.350   5.875  17.673  0.00  0.00    +0.000 A 
BRANCH  19  27
ATOM     26  C   UNL     1       6.714   6.650  17.431  0.00  0.00    +0.000 C 
ATOM     27  S   UNL     1       5.788   5.721  16.226  0.00  0.00    +0.000 S 
ATOM     28  O   UNL     1       5.290   6.637  15.219  0.00  0.00    +0.000 OA
ATOM     29  O   UNL     1       6.594   4.581  15.829  0.00  0.00    +0.000 OA
ENDBRANCH  19  27
ENDBRANCH  18  25
ENDBRANCH   1  18
TORSDOF 8
ENDMDL
MODEL 7
REMARK VINA RESULT:      -7.4      4.022      4.940
REMARK  Name = 
REMARK  9 active torsions:
REMARK  status: ('A' for Active; 'I' for Inactive)
REMARK    1  A    between atoms: C_1  and  S_2
REMARK    2  A    between atoms: S_2  and  C_5
REMARK    3  A    between atoms: C_11  and  C_12
REMARK    4  A    between atoms: C_12  and  N_13
REMARK    5  A    between atoms: C_14  and  C_16
REMARK    6  A    between atoms: C_19  and  O_20
REMARK    7  A    between atoms: O_20  and  C_21
REMARK    8  A    between atoms: C_21  and  C_22
REMARK    9  A    between atoms: C_22  and  C_23
REMARK                            x       y       z     vdW  Elec       q    Type
REMARK                         _______ _______ _______ _____ _____    ______ ____
ROOT
ATOM      1  N   UNL     1       1.576   9.307  19.006  0.00  0.00    +0.000 N 
ATOM      2  C   UNL     1       2.279   8.519  18.118  0.00  0.00    +0.000 C 
ATOM      3  O   UNL     1       2.554   8.853  16.970  0.00  0.00    +0.000 OA
ATOM      4  H   UNL     1       1.779   9.152  19.996  0.00  0.00    +0.000 HD
ENDROOT
BRANCH   2   5
ATOM      5  C   UNL     1       2.705   7.195  18.640  0.00  0.00    +0.000 A 
ATOM      6  C   UNL     1       2.294   6.728  19.889  0.00  0.00    +0.000 A 
ATOM      7  C   UNL     1       2.741   5.479  20.334  0.00  0.00    +0.000 A 
ATOM      8  C   UNL     1       3.616   4.765  19.527  0.00  0.00    +0.000 A 
ATOM      9  N   UNL     1       4.039   5.200  18.324  0.00  0.00    +0.000 NA
ATOM     10  C   UNL     1       3.577   6.401  17.907  0.00  0.00    +0.000 A 
BRANCH   8  11
ATOM     11  O   UNL     1       4.051   3.533  19.980  0.00  0.00    +0.000 OA
BRANCH  11  12
ATOM     12  C   UNL     1       2.950   2.657  20.268  0.00  0.00    +0.000 C 
BRANCH  12  13
ATOM     13  C   UNL     1       2.340   2.176  18.962  0.00  0.00    +0.000 C 
BRANCH  13  14
ATOM     14  C   UNL     1       0.935   2.708  18.784  0.00  0.00    +0.000 C 
ATOM     15  F   UNL     1       0.057   1.760  18.398  0.00  0.00    +0.000 F 
ATOM     16  F   UNL     1       0.477   3.234  19.943  0.00  0.00    +0.000 F 
ATOM     17  F   UNL     1       0.906   3.692  17.858  0.00  0.00    +0.000 F 
ENDBRANCH  13  14
ENDBRANCH  12  13
ENDBRANCH  11  12
ENDBRANCH   8  11
ENDBRANCH   2   5
BRANCH   1  18
ATOM     18  C   UNL     1       1.153  10.651  18.693  0.00  0.00    +0.000 C 
BRANCH  18  25
ATOM     19  C   UNL     1      -1.142  11.686  19.410  0.00  0.00    +0.000 A 
ATOM     20  C   UNL     1      -2.539  11.748  19.236  0.00  0.00    +0.000 A 
ATOM     21  C   UNL     1      -3.167  10.960  18.279  0.00  0.00    +0.000 A 
ATOM     22 CL   UNL     1      -4.866  11.078  18.052  0.00  0.00    +0.000 Cl
ATOM     23  C   UNL     1      -2.419  10.091  17.499  0.00  0.00    +0.000 A 
ATOM     24  C   UNL     1      -1.035  10.008  17.683  0.00  0.00    +0.000 A 
ATOM     25  C   UNL     1      -0.357  10.801  18.637  0.00  0.00    +0.000 A 
BRANCH  19  27
ATOM     26  C   UNL     1      -1.965  13.487  21.385  0.00  0.00    +0.000 C 
ATOM     27  S   UNL     1      -0.495  12.778  20.671  0.00  0.00    +0.000 S 
ATOM     28  O   UNL     1       0.268  13.835  20.037  0.00  0.00    +0.000 OA
ATOM     29  O   UNL     1       0.130  11.941  21.680  0.00  0.00    +0.000 OA
ENDBRANCH  19  27
ENDBRANCH  18  25
ENDBRANCH   1  18
TORSDOF 8
ENDMDL
MODEL 8
REMARK VINA RESULT:      -7.4      4.220      5.082
REMARK  Name = 
REMARK  9 active torsions:
REMARK  status: ('A' for Active; 'I' for Inactive)
REMARK    1  A    between atoms: C_1  and  S_2
REMARK    2  A    between atoms: S_2  and  C_5
REMARK    3  A    between atoms: C_11  and  C_12
REMARK    4  A    between atoms: C_12  and  N_13
REMARK    5  A    between atoms: C_14  and  C_16
REMARK    6  A    between atoms: C_19  and  O_20
REMARK    7  A    between atoms: O_20  and  C_21
REMARK    8  A    between atoms: C_21  and  C_22
REMARK    9  A    between atoms: C_22  and  C_23
REMARK                            x       y       z     vdW  Elec       q    Type
REMARK                         _______ _______ _______ _____ _____    ______ ____
ROOT
ATOM      1  N   UNL     1       1.124   9.739  19.349  0.00  0.00    +0.000 N 
ATOM      2  C   UNL     1       1.930   9.202  18.366  0.00  0.00    +0.000 C 
ATOM      3  O   UNL     1       2.200   9.768  17.312  0.00  0.00    +0.000 OA
ATOM      4  H   UNL     1       1.316   9.425  20.303  0.00  0.00    +0.000 HD
ENDROOT
BRANCH   2   5
ATOM      5  C   UNL     1       2.479   7.852  18.659  0.00  0.00    +0.000 A 
ATOM      6  C   UNL     1       3.314   7.185  17.761  0.00  0.00    +0.000 A 
ATOM      7  C   UNL     1       3.786   5.908  18.085  0.00  0.00    +0.000 A 
ATOM      8  C   UNL     1       3.371   5.334  19.279  0.00  0.00    +0.000 A 
ATOM      9  N   UNL     1       2.554   5.951  20.155  0.00  0.00    +0.000 NA
ATOM     10  C   UNL     1       2.127   7.192  19.828  0.00  0.00    +0.000 A 
BRANCH   8  11
ATOM     11  O   UNL     1       3.845   4.071  19.585  0.00  0.00    +0.000 OA
BRANCH  11  12
ATOM     12  C   UNL     1       3.444   3.104  18.602  0.00  0.00    +0.000 C 
BRANCH  12  13
ATOM     13  C   UNL     1       2.359   2.216  19.188  0.00  0.00    +0.000 C 
BRANCH  13  14
ATOM     14  C   UNL     1       0.981   2.752  18.868  0.00  0.00    +0.000 C 
ATOM     15  F   UNL     1       0.988   3.672  17.882  0.00  0.00    +0.000 F 
ATOM     16  F   UNL     1       0.161   1.750  18.478  0.00  0.00    +0.000 F 
ATOM     17  F   UNL     1       0.423   3.326  19.957  0.00  0.00    +0.000 F 
ENDBRANCH  13  14
ENDBRANCH  12  13
ENDBRANCH  11  12
ENDBRANCH   8  11
ENDBRANCH   2   5
BRANCH   1  18
ATOM     18  C   UNL     1       0.571  11.070  19.265  0.00  0.00    +0.000 C 
BRANCH  18  25
ATOM     19  C   UNL     1      -1.883  11.968  19.405  0.00  0.00    +0.000 A 
ATOM     20  C   UNL     1      -3.220  11.887  18.966  0.00  0.00    +0.000 A 
ATOM     21  C   UNL     1      -3.594  10.947  18.013  0.00  0.00    +0.000 A 
ATOM     22 CL   UNL     1      -5.220  10.888  17.459  0.00  0.00    +0.000 Cl
ATOM     23  C   UNL     1      -2.651  10.068  17.501  0.00  0.00    +0.000 A 
ATOM     24  C   UNL     1      -1.328  10.128  17.951  0.00  0.00    +0.000 A 
ATOM     25  C   UNL     1      -0.905  11.078  18.909  0.00  0.00    +0.000 A 
BRANCH  19  27
ATOM     26  C   UNL     1      -1.138  12.318  22.077  0.00  0.00    +0.000 C 
ATOM     27  S   UNL     1      -1.571  13.244  20.619  0.00  0.00    +0.000 S 
ATOM     28  O   UNL     1      -2.803  13.965  20.877  0.00  0.00    +0.000 OA
ATOM     29  O   UNL     1      -0.390  13.967  20.184  0.00  0.00    +0.000 OA
ENDBRANCH  19  27
ENDBRANCH  18  25
ENDBRANCH   1  18
TORSDOF 8
ENDMDL
MODEL 9
REMARK VINA RESULT:      -7.3      4.440      5.219
REMARK  Name = 
REMARK  9 active torsions:
REMARK  status: ('A' for Active; 'I' for Inactive)
REMARK    1  A    between atoms: C_1  and  S_2
REMARK    2  A    between atoms: S_2  and  C_5
REMARK    3  A    between atoms: C_11  and  C_12
REMARK    4  A    between atoms: C_12  and  N_13
REMARK    5  A    between atoms: C_14  and  C_16
REMARK    6  A    between atoms: C_19  and  O_20
REMARK    7  A    between atoms: O_20  and  C_21
REMARK    8  A    between atoms: C_21  and  C_22
REMARK    9  A    between atoms: C_22  and  C_23
REMARK                            x       y       z     vdW  Elec       q    Type
REMARK                         _______ _______ _______ _____ _____    ______ ____
ROOT
ATOM      1  N   UNL     1       1.537   8.725  19.310  0.00  0.00    +0.000 N 
ATOM      2  C   UNL     1       2.259   8.288  18.218  0.00  0.00    +0.000 C 
ATOM      3  O   UNL     1       2.662   9.020  17.321  0.00  0.00    +0.000 OA
ATOM      4  H   UNL     1       1.637   8.169  20.161  0.00  0.00    +0.000 HD
ENDROOT
BRANCH   2   5
ATOM      5  C   UNL     1       2.537   6.828  18.182  0.00  0.00    +0.000 A 
ATOM      6  C   UNL     1       1.568   5.903  17.792  0.00  0.00    +0.000 A 
ATOM      7  C   UNL     1       1.883   4.539  17.793  0.00  0.00    +0.000 A 
ATOM      8  C   UNL     1       3.145   4.154  18.225  0.00  0.00    +0.000 A 
ATOM      9  N   UNL     1       4.093   5.027  18.621  0.00  0.00    +0.000 NA
ATOM     10  C   UNL     1       3.770   6.340  18.592  0.00  0.00    +0.000 A 
BRANCH   8  11
ATOM     11  O   UNL     1       3.442   2.804  18.223  0.00  0.00    +0.000 OA
BRANCH  11  12
ATOM     12  C   UNL     1       2.514   2.057  19.025  0.00  0.00    +0.000 C 
BRANCH  12  13
ATOM     13  C   UNL     1       2.710   2.423  20.487  0.00  0.00    +0.000 C 
BRANCH  13  14
ATOM     14  C   UNL     1       1.457   3.035  21.071  0.00  0.00    +0.000 C 
ATOM     15  F   UNL     1       1.090   2.471  22.241  0.00  0.00    +0.000 F 
ATOM     16  F   UNL     1       1.634   4.356  21.298  0.00  0.00    +0.000 F 
ATOM     17  F   UNL     1       0.416   2.911  20.217  0.00  0.00    +0.000 F 
ENDBRANCH  13  14
ENDBRANCH  12  13
ENDBRANCH  11  12
ENDBRANCH   8  11
ENDBRANCH   2   5
BRANCH   1  18
ATOM     18  C   UNL     1       1.244  10.119  19.545  0.00  0.00    +0.000 C 
BRANCH  18  25
ATOM     19  C   UNL     1      -1.052  11.318  19.917  0.00  0.00    +0.000 A 
ATOM     20  C   UNL     1      -2.342  11.620  19.438  0.00  0.00    +0.000 A 
ATOM     21  C   UNL     1      -2.767  11.141  18.204  0.00  0.00    +0.000 A 
ATOM     22 CL   UNL     1      -4.328  11.552  17.615  0.00  0.00    +0.000 Cl
ATOM     23  C   UNL     1      -1.923  10.344  17.444  0.00  0.00    +0.000 A 
ATOM     24  C   UNL     1      -0.651  10.022  17.926  0.00  0.00    +0.000 A 
ATOM     25  C   UNL     1      -0.177  10.499  19.170  0.00  0.00    +0.000 A 
BRANCH  19  27
ATOM     26  C   UNL     1      -0.693  10.619  22.601  0.00  0.00    +0.000 C 
ATOM     27  S   UNL     1      -0.663  12.028  21.512  0.00  0.00    +0.000 S 
ATOM     28  O   UNL     1      -1.726  12.935  21.901  0.00  0.00    +0.000 OA
ATOM     29  O   UNL     1       0.706  12.507  21.443  0.00  0.00    +0.000 OA
ENDBRANCH  19  27
ENDBRANCH  18  25
ENDBRANCH   1  18
TORSDOF 8
ENDMDL
