MODEL 1
REMARK VINA RESULT:      -9.3      0.000      0.000
REMARK  Name = 
REMARK  6 active torsions:
REMARK  status: ('A' for Active; 'I' for Inactive)
REMARK    1  A    between atoms: C_2  and  OXT_3
REMARK    2  A    between atoms: C_2  and  CA_4
REMARK    3  A    between atoms: C_6  and  C_7
REMARK    4  A    between atoms: C_10  and  C_11
REMARK    5  A    between atoms: C_20  and  C_21
REMARK    6  A    between atoms: C_24  and  C_25
REMARK                            x       y       z     vdW  Elec       q    Type
REMARK                         _______ _______ _______ _____ _____    ______ ____
ROOT
ATOM      1  CA  UNL     1       1.902   5.673  20.364  0.00  0.00    +0.000 A 
ATOM      2  N   UNL     1       1.263   6.598  21.169  0.00  0.00    +0.000 N 
ATOM      3  C   UNL     1       1.362   7.864  20.656  0.00  0.00    +0.000 A 
ATOM      4  C   UNL     1       2.179   7.767  19.551  0.00  0.00    +0.000 A 
ATOM      5  C   UNL     1       2.515   6.398  19.344  0.00  0.00    +0.000 A 
ATOM      6  H   UNL     1       0.783   6.366  22.027  0.00  0.00    +0.000 HD
ENDROOT
BRANCH   3   7
ATOM      7  C   UNL     1       0.698   9.031  21.228  0.00  0.00    +0.000 A 
ATOM      8  C   UNL     1       0.736  10.278  20.600  0.00  0.00    +0.000 A 
ATOM      9  C   UNL     1       0.104  11.384  21.177  0.00  0.00    +0.000 A 
ATOM     10  C   UNL     1      -0.572  11.288  22.401  0.00  0.00    +0.000 A 
ATOM     11  C   UNL     1      -0.627  10.023  23.008  0.00  0.00    +0.000 A 
ATOM     12  C   UNL     1       0.003   8.917  22.435  0.00  0.00    +0.000 A 
BRANCH  10  13
ATOM     13  C   UNL     1      -1.297  12.462  23.053  0.00  0.00    +0.000 C 
ATOM     14  C   UNL     1      -2.836  12.385  23.058  0.00  0.00    +0.000 C 
ATOM     15  C   UNL     1      -3.444  12.712  21.691  0.00  0.00    +0.000 C 
ATOM     16  N   UNL     1      -3.012  14.016  21.191  0.00  0.00    +0.000 NA
ATOM     17  C   UNL     1      -1.551  14.097  21.113  0.00  0.00    +0.000 C 
ATOM     18  C   UNL     1      -0.891  13.830  22.465  0.00  0.00    +0.000 C 
ATOM     19  H   UNL     1      -3.351  14.743  21.819  0.00  0.00    +0.000 HD
ENDBRANCH  10  13
ENDBRANCH   3   7
BRANCH   5  20
ATOM     20  C   UNL     1       3.324   5.873  18.248  0.00  0.00    +0.000 A 
ATOM     21  C   UNL     1       4.200   6.731  17.565  0.00  0.00    +0.000 A 
ATOM     22  C   UNL     1       4.961   6.273  16.486  0.00  0.00    +0.000 A 
ATOM     23  C   UNL     1       4.870   4.939  16.073  0.00  0.00    +0.000 A 
ATOM     24  C   UNL     1       3.982   4.084  16.742  0.00  0.00    +0.000 A 
ATOM     25  C   UNL     1       3.206   4.552  17.807  0.00  0.00    +0.000 A 
BRANCH  23  26
ATOM     26  C   UNL     1       5.709   4.410  14.939  0.00  0.00    +0.000 C 
ATOM     27  F   UNL     1       6.749   5.224  14.603  0.00  0.00    +0.000 F 
ATOM     28  F   UNL     1       6.261   3.197  15.222  0.00  0.00    +0.000 F 
ATOM     29  F   UNL     1       4.990   4.235  13.796  0.00  0.00    +0.000 F 
ENDBRANCH  23  26
ENDBRANCH   5  20
BRANCH   1  31
ATOM     30  O   UNL     1       2.894   3.614  21.050  0.00  0.00    +0.000 OA
ATOM     31  C   UNL     1       1.930   4.263  20.679  0.00  0.00    +0.000 C 
BRANCH  31  32
ATOM     32  OXT UNL     1       0.708   3.694  20.512  0.00  0.00    +0.000 OA
ATOM     33  HXT UNL     1      -0.016   4.200  20.922  0.00  0.00    +0.000 HD
ENDBRANCH  31  32
ENDBRANCH   1  31
TORSDOF 6
ENDMDL
MODEL 2
REMARK VINA RESULT:      -9.2      0.150      1.426
REMARK  Name = 
REMARK  6 active torsions:
REMARK  status: ('A' for Active; 'I' for Inactive)
REMARK    1  A    between atoms: C_2  and  OXT_3
REMARK    2  A    between atoms: C_2  and  CA_4
REMARK    3  A    between atoms: C_6  and  C_7
REMARK    4  A    between atoms: C_10  and  C_11
REMARK    5  A    between atoms: C_20  and  C_21
REMARK    6  A    between atoms: C_24  and  C_25
REMARK                            x       y       z     vdW  Elec       q    Type
REMARK                         _______ _______ _______ _____ _____    ______ ____
ROOT
ATOM      1  CA  UNL     1       1.904   5.711  20.350  0.00  0.00    +0.000 A 
ATOM      2  N   UNL     1       1.273   6.616  21.183  0.00  0.00    +0.000 N 
ATOM      3  C   UNL     1       1.362   7.894  20.697  0.00  0.00    +0.000 A 
ATOM      4  C   UNL     1       2.164   7.823  19.579  0.00  0.00    +0.000 A 
ATOM      5  C   UNL     1       2.501   6.461  19.338  0.00  0.00    +0.000 A 
ATOM      6  H   UNL     1       0.805   6.365  22.043  0.00  0.00    +0.000 HD
ENDROOT
BRANCH   3   7
ATOM      7  C   UNL     1       0.702   9.046  21.302  0.00  0.00    +0.000 A 
ATOM      8  C   UNL     1      -0.073   8.925  22.457  0.00  0.00    +0.000 A 
ATOM      9  C   UNL     1      -0.709  10.042  23.008  0.00  0.00    +0.000 A 
ATOM     10  C   UNL     1      -0.605  11.310  22.420  0.00  0.00    +0.000 A 
ATOM     11  C   UNL     1       0.200  11.425  21.276  0.00  0.00    +0.000 A 
ATOM     12  C   UNL     1       0.836  10.311  20.723  0.00  0.00    +0.000 A 
BRANCH  10  13
ATOM     13  C   UNL     1      -1.260  12.560  23.002  0.00  0.00    +0.000 C 
ATOM     14  C   UNL     1      -2.778  12.472  23.250  0.00  0.00    +0.000 C 
ATOM     15  C   UNL     1      -3.591  12.595  21.958  0.00  0.00    +0.000 C 
ATOM     16  N   UNL     1      -3.276  13.817  21.221  0.00  0.00    +0.000 NA
ATOM     17  C   UNL     1      -1.846  13.898  20.913  0.00  0.00    +0.000 C 
ATOM     18  C   UNL     1      -0.985  13.833  22.174  0.00  0.00    +0.000 C 
ATOM     19  H   UNL     1      -3.540  14.625  21.784  0.00  0.00    +0.000 HD
ENDBRANCH  10  13
ENDBRANCH   3   7
BRANCH   5  20
ATOM     20  C   UNL     1       3.297   5.962  18.221  0.00  0.00    +0.000 A 
ATOM     21  C   UNL     1       3.165   4.621  17.824  0.00  0.00    +0.000 A 
ATOM     22  C   UNL     1       3.940   4.098  16.785  0.00  0.00    +0.000 A 
ATOM     23  C   UNL     1       4.858   4.911  16.110  0.00  0.00    +0.000 A 
ATOM     24  C   UNL     1       5.004   6.245  16.516  0.00  0.00    +0.000 A 
ATOM     25  C   UNL     1       4.244   6.759  17.571  0.00  0.00    +0.000 A 
BRANCH  23  26
ATOM     26  C   UNL     1       5.675   4.383  14.959  0.00  0.00    +0.000 C 
ATOM     27  F   UNL     1       6.235   3.165  15.201  0.00  0.00    +0.000 F 
ATOM     28  F   UNL     1       4.939   4.237  13.823  0.00  0.00    +0.000 F 
ATOM     29  F   UNL     1       6.708   5.208  14.632  0.00  0.00    +0.000 F 
ENDBRANCH  23  26
ENDBRANCH   5  20
BRANCH   1  31
ATOM     30  O   UNL     1       2.911   3.641  20.979  0.00  0.00    +0.000 OA
ATOM     31  C   UNL     1       1.941   4.295  20.634  0.00  0.00    +0.000 C 
BRANCH  31  32
ATOM     32  OXT UNL     1       0.718   3.726  20.470  0.00  0.00    +0.000 OA
ATOM     33  HXT UNL     1       0.654   3.162  19.679  0.00  0.00    +0.000 HD
ENDBRANCH  31  32
ENDBRANCH   1  31
TORSDOF 6
ENDMDL
MODEL 3
REMARK VINA RESULT:      -9.1      0.705      1.289
REMARK  Name = 
REMARK  6 active torsions:
REMARK  status: ('A' for Active; 'I' for Inactive)
REMARK    1  A    between atoms: C_2  and  OXT_3
REMARK    2  A    between atoms: C_2  and  CA_4
REMARK    3  A    between atoms: C_6  and  C_7
REMARK    4  A    between atoms: C_10  and  C_11
REMARK    5  A    between atoms: C_20  and  C_21
REMARK    6  A    between atoms: C_24  and  C_25
REMARK                            x       y       z     vdW  Elec       q    Type
REMARK                         _______ _______ _______ _____ _____    ______ ____
ROOT
ATOM      1  CA  UNL     1       1.826   5.965  20.386  0.00  0.00    +0.000 A 
ATOM      2  N   UNL     1       1.162   6.942  21.105  0.00  0.00    +0.000 N 
ATOM      3  C   UNL     1       1.280   8.170  20.511  0.00  0.00    +0.000 A 
ATOM      4  C   UNL     1       2.133   7.999  19.442  0.00  0.00    +0.000 A 
ATOM      5  C   UNL     1       2.474   6.619  19.341  0.00  0.00    +0.000 A 
ATOM      6  H   UNL     1       0.652   6.769  21.960  0.00  0.00    +0.000 HD
ENDROOT
BRANCH   3   7
ATOM      7  C   UNL     1       0.599   9.373  20.978  0.00  0.00    +0.000 A 
ATOM      8  C   UNL     1       0.173   9.508  22.301  0.00  0.00    +0.000 A 
ATOM      9  C   UNL     1      -0.493  10.664  22.720  0.00  0.00    +0.000 A 
ATOM     10  C   UNL     1      -0.767  11.715  21.834  0.00  0.00    +0.000 A 
ATOM     11  C   UNL     1      -0.309  11.580  20.513  0.00  0.00    +0.000 A 
ATOM     12  C   UNL     1       0.355  10.426  20.093  0.00  0.00    +0.000 A 
BRANCH  10  13
ATOM     13  C   UNL     1      -1.467  13.005  22.254  0.00  0.00    +0.000 C 
ATOM     14  C   UNL     1      -2.126  12.991  23.647  0.00  0.00    +0.000 C 
ATOM     15  C   UNL     1      -3.448  12.218  23.662  0.00  0.00    +0.000 C 
ATOM     16  N   UNL     1      -4.394  12.721  22.668  0.00  0.00    +0.000 NA
ATOM     17  C   UNL     1      -3.818  12.686  21.322  0.00  0.00    +0.000 C 
ATOM     18  C   UNL     1      -2.520  13.487  21.234  0.00  0.00    +0.000 C 
ATOM     19  H   UNL     1      -4.640  13.683  22.898  0.00  0.00    +0.000 HD
ENDBRANCH  10  13
ENDBRANCH   3   7
BRANCH   5  20
ATOM     20  C   UNL     1       3.318   6.021  18.311  0.00  0.00    +0.000 A 
ATOM     21  C   UNL     1       4.121   6.850  17.511  0.00  0.00    +0.000 A 
ATOM     22  C   UNL     1       4.912   6.317  16.489  0.00  0.00    +0.000 A 
ATOM     23  C   UNL     1       4.927   4.936  16.254  0.00  0.00    +0.000 A 
ATOM     24  C   UNL     1       4.113   4.109  17.041  0.00  0.00    +0.000 A 
ATOM     25  C   UNL     1       3.305   4.649  18.047  0.00  0.00    +0.000 A 
BRANCH  23  26
ATOM     26  C   UNL     1       5.802   4.332  15.187  0.00  0.00    +0.000 C 
ATOM     27  F   UNL     1       7.010   4.948  15.058  0.00  0.00    +0.000 F 
ATOM     28  F   UNL     1       6.075   3.019  15.421  0.00  0.00    +0.000 F 
ATOM     29  F   UNL     1       5.228   4.381  13.953  0.00  0.00    +0.000 F 
ENDBRANCH  23  26
ENDBRANCH   5  20
BRANCH   1  31
ATOM     30  O   UNL     1       2.725   4.007  21.413  0.00  0.00    +0.000 OA
ATOM     31  C   UNL     1       1.841   4.579  20.798  0.00  0.00    +0.000 C 
BRANCH  31  32
ATOM     32  OXT UNL     1       0.710   3.935  20.410  0.00  0.00    +0.000 OA
ATOM     33  HXT UNL     1       0.622   3.849  19.444  0.00  0.00    +0.000 HD
ENDBRANCH  31  32
ENDBRANCH   1  31
TORSDOF 6
ENDMDL
MODEL 4
REMARK VINA RESULT:      -9.0      6.317     10.531
REMARK  Name = 
REMARK  6 active torsions:
REMARK  status: ('A' for Active; 'I' for Inactive)
REMARK    1  A    between atoms: C_2  and  OXT_3
REMARK    2  A    between atoms: C_2  and  CA_4
REMARK    3  A    between atoms: C_6  and  C_7
REMARK    4  A    between atoms: C_10  and  C_11
REMARK    5  A    between atoms: C_20  and  C_21
REMARK    6  A    between atoms: C_24  and  C_25
REMARK                            x       y       z     vdW  Elec       q    Type
REMARK                         _______ _______ _______ _____ _____    ______ ____
ROOT
ATOM      1  CA  UNL     1      -0.080  11.623  18.988  0.00  0.00    +0.000 A 
ATOM      2  N   UNL     1       0.860  10.770  18.439  0.00  0.00    +0.000 N 
ATOM      3  C   UNL     1       1.058   9.667  19.226  0.00  0.00    +0.000 A 
ATOM      4  C   UNL     1       0.307   9.867  20.363  0.00  0.00    +0.000 A 
ATOM      5  C   UNL     1      -0.425  11.081  20.224  0.00  0.00    +0.000 A 
ATOM      6  H   UNL     1       1.340  10.941  17.566  0.00  0.00    +0.000 HD
ENDROOT
BRANCH   3   7
ATOM      7  C   UNL     1       1.911   8.542  18.856  0.00  0.00    +0.000 A 
ATOM      8  C   UNL     1       2.568   8.492  17.625  0.00  0.00    +0.000 A 
ATOM      9  C   UNL     1       3.366   7.395  17.287  0.00  0.00    +0.000 A 
ATOM     10  C   UNL     1       3.524   6.308  18.157  0.00  0.00    +0.000 A 
ATOM     11  C   UNL     1       2.882   6.381  19.404  0.00  0.00    +0.000 A 
ATOM     12  C   UNL     1       2.084   7.476  19.743  0.00  0.00    +0.000 A 
BRANCH  10  13
ATOM     13  C   UNL     1       4.407   5.103  17.841  0.00  0.00    +0.000 C 
ATOM     14  C   UNL     1       5.269   4.576  19.004  0.00  0.00    +0.000 C 
ATOM     15  C   UNL     1       6.493   5.457  19.272  0.00  0.00    +0.000 C 
ATOM     16  N   UNL     1       7.319   5.633  18.080  0.00  0.00    +0.000 NA
ATOM     17  C   UNL     1       6.541   6.196  16.974  0.00  0.00    +0.000 C 
ATOM     18  C   UNL     1       5.331   5.328  16.627  0.00  0.00    +0.000 C 
ATOM     19  H   UNL     1       7.694   4.729  17.796  0.00  0.00    +0.000 HD
ENDBRANCH  10  13
ENDBRANCH   3   7
BRANCH   5  20
ATOM     20  C   UNL     1      -1.373  11.623  21.193  0.00  0.00    +0.000 A 
ATOM     21  C   UNL     1      -1.185  11.366  22.561  0.00  0.00    +0.000 A 
ATOM     22  C   UNL     1      -2.094  11.835  23.513  0.00  0.00    +0.000 A 
ATOM     23  C   UNL     1      -3.209  12.583  23.118  0.00  0.00    +0.000 A 
ATOM     24  C   UNL     1      -3.409  12.825  21.751  0.00  0.00    +0.000 A 
ATOM     25  C   UNL     1      -2.509  12.336  20.799  0.00  0.00    +0.000 A 
BRANCH  23  26
ATOM     26  C   UNL     1      -4.181  13.135  24.128  0.00  0.00    +0.000 C 
ATOM     27  F   UNL     1      -5.215  13.825  23.570  0.00  0.00    +0.000 F 
ATOM     28  F   UNL     1      -4.750  12.160  24.889  0.00  0.00    +0.000 F 
ATOM     29  F   UNL     1      -3.591  13.996  25.003  0.00  0.00    +0.000 F 
ENDBRANCH  23  26
ENDBRANCH   5  20
BRANCH   1  31
ATOM     30  O   UNL     1      -0.147  13.985  18.656  0.00  0.00    +0.000 OA
ATOM     31  C   UNL     1      -0.477  12.853  18.342  0.00  0.00    +0.000 C 
BRANCH  31  32
ATOM     32  OXT UNL     1      -1.304  12.616  17.291  0.00  0.00    +0.000 OA
ATOM     33  HXT UNL     1      -1.612  11.694  17.238  0.00  0.00    +0.000 HD
ENDBRANCH  31  32
ENDBRANCH   1  31
TORSDOF 6
ENDMDL
MODEL 5
REMARK VINA RESULT:      -9.0      6.331     10.581
REMARK  Name = 
REMARK  6 active torsions:
REMARK  status: ('A' for Active; 'I' for Inactive)
REMARK    1  A    between atoms: C_2  and  OXT_3
REMARK    2  A    between atoms: C_2  and  CA_4
REMARK    3  A    between atoms: C_6  and  C_7
REMARK    4  A    between atoms: C_10  and  C_11
REMARK    5  A    between atoms: C_20  and  C_21
REMARK    6  A    between atoms: C_24  and  C_25
REMARK                            x       y       z     vdW  Elec       q    Type
REMARK                         _______ _______ _______ _____ _____    ______ ____
ROOT
ATOM      1  CA  UNL     1       0.018  11.681  19.021  0.00  0.00    +0.000 A 
ATOM      2  N   UNL     1       0.962  10.814  18.503  0.00  0.00    +0.000 N 
ATOM      3  C   UNL     1       1.069   9.677  19.259  0.00  0.00    +0.000 A 
ATOM      4  C   UNL     1       0.252   9.865  20.352  0.00  0.00    +0.000 A 
ATOM      5  C   UNL     1      -0.426  11.111  20.212  0.00  0.00    +0.000 A 
ATOM      6  H   UNL     1       1.504  10.997  17.670  0.00  0.00    +0.000 HD
ENDROOT
BRANCH   3   7
ATOM      7  C   UNL     1       1.904   8.534  18.903  0.00  0.00    +0.000 A 
ATOM      8  C   UNL     1       2.088   7.459  19.774  0.00  0.00    +0.000 A 
ATOM      9  C   UNL     1       2.906   6.383  19.415  0.00  0.00    +0.000 A 
ATOM     10  C   UNL     1       3.577   6.351  18.185  0.00  0.00    +0.000 A 
ATOM     11  C   UNL     1       3.362   7.423  17.305  0.00  0.00    +0.000 A 
ATOM     12  C   UNL     1       2.545   8.499  17.662  0.00  0.00    +0.000 A 
BRANCH  10  13
ATOM     13  C   UNL     1       4.457   5.185  17.741  0.00  0.00    +0.000 C 
ATOM     14  C   UNL     1       5.316   4.532  18.842  0.00  0.00    +0.000 C 
ATOM     15  C   UNL     1       6.541   5.376  19.207  0.00  0.00    +0.000 C 
ATOM     16  N   UNL     1       7.370   5.680  18.042  0.00  0.00    +0.000 NA
ATOM     17  C   UNL     1       6.596   6.361  17.003  0.00  0.00    +0.000 C 
ATOM     18  C   UNL     1       5.386   5.539  16.560  0.00  0.00    +0.000 C 
ATOM     19  H   UNL     1       7.744   4.811  17.662  0.00  0.00    +0.000 HD
ENDBRANCH  10  13
ENDBRANCH   3   7
BRANCH   5  20
ATOM     20  C   UNL     1      -1.416  11.653  21.137  0.00  0.00    +0.000 A 
ATOM     21  C   UNL     1      -1.270  11.426  22.515  0.00  0.00    +0.000 A 
ATOM     22  C   UNL     1      -2.219  11.896  23.427  0.00  0.00    +0.000 A 
ATOM     23  C   UNL     1      -3.333  12.617  22.980  0.00  0.00    +0.000 A 
ATOM     24  C   UNL     1      -3.490  12.829  21.603  0.00  0.00    +0.000 A 
ATOM     25  C   UNL     1      -2.550  12.338  20.691  0.00  0.00    +0.000 A 
BRANCH  23  26
ATOM     26  C   UNL     1      -4.349  13.170  23.945  0.00  0.00    +0.000 C 
ATOM     27  F   UNL     1      -4.677  12.306  24.946  0.00  0.00    +0.000 F 
ATOM     28  F   UNL     1      -3.919  14.307  24.558  0.00  0.00    +0.000 F 
ATOM     29  F   UNL     1      -5.523  13.495  23.336  0.00  0.00    +0.000 F 
ENDBRANCH  23  26
ENDBRANCH   5  20
BRANCH   1  31
ATOM     30  O   UNL     1       0.159  14.041  18.697  0.00  0.00    +0.000 OA
ATOM     31  C   UNL     1      -0.292  12.948  18.398  0.00  0.00    +0.000 C 
BRANCH  31  32
ATOM     32  OXT UNL     1      -1.187  12.796  17.388  0.00  0.00    +0.000 OA
ATOM     33  HXT UNL     1      -1.027  13.391  16.634  0.00  0.00    +0.000 HD
ENDBRANCH  31  32
ENDBRANCH   1  31
TORSDOF 6
ENDMDL
MODEL 6
REMARK VINA RESULT:      -8.9      0.737      1.697
REMARK  Name = 
REMARK  6 active torsions:
REMARK  status: ('A' for Active; 'I' for Inactive)
REMARK    1  A    between atoms: C_2  and  OXT_3
REMARK    2  A    between atoms: C_2  and  CA_4
REMARK    3  A    between atoms: C_6  and  C_7
REMARK    4  A    between atoms: C_10  and  C_11
REMARK    5  A    between atoms: C_20  and  C_21
REMARK    6  A    between atoms: C_24  and  C_25
REMARK                            x       y       z     vdW  Elec       q    Type
REMARK                         _______ _______ _______ _____ _____    ______ ____
ROOT
ATOM      1  CA  UNL     1       1.841   6.048  20.347  0.00  0.00    +0.000 A 
ATOM      2  N   UNL     1       1.175   7.011  21.083  0.00  0.00    +0.000 N 
ATOM      3  C   UNL     1       1.254   8.242  20.487  0.00  0.00    +0.000 A 
ATOM      4  C   UNL     1       2.084   8.087  19.397  0.00  0.00    +0.000 A 
ATOM      5  C   UNL     1       2.449   6.715  19.287  0.00  0.00    +0.000 A 
ATOM      6  H   UNL     1       0.690   6.828  21.950  0.00  0.00    +0.000 HD
ENDROOT
BRANCH   3   7
ATOM      7  C   UNL     1       0.560   9.430  20.972  0.00  0.00    +0.000 A 
ATOM      8  C   UNL     1       0.149   9.550  22.300  0.00  0.00    +0.000 A 
ATOM      9  C   UNL     1      -0.528  10.692  22.737  0.00  0.00    +0.000 A 
ATOM     10  C   UNL     1      -0.830  11.745  21.861  0.00  0.00    +0.000 A 
ATOM     11  C   UNL     1      -0.387  11.627  20.534  0.00  0.00    +0.000 A 
ATOM     12  C   UNL     1       0.290  10.486  20.097  0.00  0.00    +0.000 A 
BRANCH  10  13
ATOM     13  C   UNL     1      -1.544  13.021  22.300  0.00  0.00    +0.000 C 
ATOM     14  C   UNL     1      -2.190  12.985  23.699  0.00  0.00    +0.000 C 
ATOM     15  C   UNL     1      -3.502  12.194  23.718  0.00  0.00    +0.000 C 
ATOM     16  N   UNL     1      -4.463  12.693  22.737  0.00  0.00    +0.000 NA
ATOM     17  C   UNL     1      -3.899  12.678  21.385  0.00  0.00    +0.000 C 
ATOM     18  C   UNL     1      -2.612  13.498  21.294  0.00  0.00    +0.000 C 
ATOM     19  H   UNL     1      -4.721  13.649  22.978  0.00  0.00    +0.000 HD
ENDBRANCH  10  13
ENDBRANCH   3   7
BRANCH   5  20
ATOM     20  C   UNL     1       3.280   6.134  18.236  0.00  0.00    +0.000 A 
ATOM     21  C   UNL     1       3.182   4.761  17.960  0.00  0.00    +0.000 A 
ATOM     22  C   UNL     1       3.990   4.162  16.990  0.00  0.00    +0.000 A 
ATOM     23  C   UNL     1       4.908   4.930  16.263  0.00  0.00    +0.000 A 
ATOM     24  C   UNL     1       5.020   6.298  16.549  0.00  0.00    +0.000 A 
ATOM     25  C   UNL     1       4.226   6.889  17.537  0.00  0.00    +0.000 A 
BRANCH  23  26
ATOM     26  C   UNL     1       5.761   4.317  15.183  0.00  0.00    +0.000 C 
ATOM     27  F   UNL     1       5.204   4.389  13.941  0.00  0.00    +0.000 F 
ATOM     28  F   UNL     1       6.980   4.915  15.080  0.00  0.00    +0.000 F 
ATOM     29  F   UNL     1       6.009   2.996  15.401  0.00  0.00    +0.000 F 
ENDBRANCH  23  26
ENDBRANCH   5  20
BRANCH   1  31
ATOM     30  O   UNL     1       2.820   4.099  21.317  0.00  0.00    +0.000 OA
ATOM     31  C   UNL     1       1.894   4.663  20.758  0.00  0.00    +0.000 C 
BRANCH  31  32
ATOM     32  OXT UNL     1       0.746   4.009  20.442  0.00  0.00    +0.000 OA
ATOM     33  HXT UNL     1       0.023   4.601  20.169  0.00  0.00    +0.000 HD
ENDBRANCH  31  32
ENDBRANCH   1  31
TORSDOF 6
ENDMDL
MODEL 7
REMARK VINA RESULT:      -8.9      0.769      1.215
REMARK  Name = 
REMARK  6 active torsions:
REMARK  status: ('A' for Active; 'I' for Inactive)
REMARK    1  A    between atoms: C_2  and  OXT_3
REMARK    2  A    between atoms: C_2  and  CA_4
REMARK    3  A    between atoms: C_6  and  C_7
REMARK    4  A    between atoms: C_10  and  C_11
REMARK    5  A    between atoms: C_20  and  C_21
REMARK    6  A    between atoms: C_24  and  C_25
REMARK                            x       y       z     vdW  Elec       q    Type
REMARK                         _______ _______ _______ _____ _____    ______ ____
ROOT
ATOM      1  CA  UNL     1       1.852   6.108  20.325  0.00  0.00    +0.000 A 
ATOM      2  N   UNL     1       1.175   7.098  21.014  0.00  0.00    +0.000 N 
ATOM      3  C   UNL     1       1.262   8.306  20.373  0.00  0.00    +0.000 A 
ATOM      4  C   UNL     1       2.106   8.111  19.302  0.00  0.00    +0.000 A 
ATOM      5  C   UNL     1       2.474   6.736  19.248  0.00  0.00    +0.000 A 
ATOM      6  H   UNL     1       0.679   6.947  21.882  0.00  0.00    +0.000 HD
ENDROOT
BRANCH   3   7
ATOM      7  C   UNL     1       0.561   9.511  20.804  0.00  0.00    +0.000 A 
ATOM      8  C   UNL     1       0.184  10.504  19.898  0.00  0.00    +0.000 A 
ATOM      9  C   UNL     1      -0.472  11.657  20.338  0.00  0.00    +0.000 A 
ATOM     10  C   UNL     1      -0.763  11.864  21.694  0.00  0.00    +0.000 A 
ATOM     11  C   UNL     1      -0.405  10.845  22.592  0.00  0.00    +0.000 A 
ATOM     12  C   UNL     1       0.251   9.693  22.154  0.00  0.00    +0.000 A 
BRANCH  10  13
ATOM     13  C   UNL     1      -1.501  13.094  22.215  0.00  0.00    +0.000 C 
ATOM     14  C   UNL     1      -2.097  12.973  23.631  0.00  0.00    +0.000 C 
ATOM     15  C   UNL     1      -3.381  12.138  23.657  0.00  0.00    +0.000 C 
ATOM     16  N   UNL     1      -4.391  12.648  22.733  0.00  0.00    +0.000 NA
ATOM     17  C   UNL     1      -3.874  12.713  21.365  0.00  0.00    +0.000 C 
ATOM     18  C   UNL     1      -2.619  13.580  21.269  0.00  0.00    +0.000 C 
ATOM     19  H   UNL     1      -4.671  13.583  23.028  0.00  0.00    +0.000 HD
ENDBRANCH  10  13
ENDBRANCH   3   7
BRANCH   5  20
ATOM     20  C   UNL     1       3.320   6.117  18.232  0.00  0.00    +0.000 A 
ATOM     21  C   UNL     1       4.162   6.924  17.451  0.00  0.00    +0.000 A 
ATOM     22  C   UNL     1       4.956   6.372  16.442  0.00  0.00    +0.000 A 
ATOM     23  C   UNL     1       4.934   4.993  16.200  0.00  0.00    +0.000 A 
ATOM     24  C   UNL     1       4.080   4.187  16.967  0.00  0.00    +0.000 A 
ATOM     25  C   UNL     1       3.270   4.747  17.961  0.00  0.00    +0.000 A 
BRANCH  23  26
ATOM     26  C   UNL     1       5.810   4.367  15.147  0.00  0.00    +0.000 C 
ATOM     27  F   UNL     1       5.255   4.369  13.903  0.00  0.00    +0.000 F 
ATOM     28  F   UNL     1       7.008   5.001  15.022  0.00  0.00    +0.000 F 
ATOM     29  F   UNL     1       6.103   3.065  15.420  0.00  0.00    +0.000 F 
ENDBRANCH  23  26
ENDBRANCH   5  20
BRANCH   1  31
ATOM     30  O   UNL     1       2.828   4.192  21.360  0.00  0.00    +0.000 OA
ATOM     31  C   UNL     1       1.900   4.740  20.788  0.00  0.00    +0.000 C 
BRANCH  31  32
ATOM     32  OXT UNL     1       0.746   4.081  20.507  0.00  0.00    +0.000 OA
ATOM     33  HXT UNL     1       0.356   4.328  19.650  0.00  0.00    +0.000 HD
ENDBRANCH  31  32
ENDBRANCH   1  31
TORSDOF 6
ENDMDL
MODEL 8
REMARK VINA RESULT:      -8.9      6.339     10.582
REMARK  Name = 
REMARK  6 active torsions:
REMARK  status: ('A' for Active; 'I' for Inactive)
REMARK    1  A    between atoms: C_2  and  OXT_3
REMARK    2  A    between atoms: C_2  and  CA_4
REMARK    3  A    between atoms: C_6  and  C_7
REMARK    4  A    between atoms: C_10  and  C_11
REMARK    5  A    between atoms: C_20  and  C_21
REMARK    6  A    between atoms: C_24  and  C_25
REMARK                            x       y       z     vdW  Elec       q    Type
REMARK                         _______ _______ _______ _____ _____    ______ ____
ROOT
ATOM      1  CA  UNL     1      -0.064  11.647  19.032  0.00  0.00    +0.000 A 
ATOM      2  N   UNL     1       0.891  10.799  18.501  0.00  0.00    +0.000 N 
ATOM      3  C   UNL     1       1.036   9.668  19.260  0.00  0.00    +0.000 A 
ATOM      4  C   UNL     1       0.233   9.843  20.366  0.00  0.00    +0.000 A 
ATOM      5  C   UNL     1      -0.475  11.071  20.232  0.00  0.00    +0.000 A 
ATOM      6  H   UNL     1       1.414  10.990  17.658  0.00  0.00    +0.000 HD
ENDROOT
BRANCH   3   7
ATOM      7  C   UNL     1       1.891   8.543  18.895  0.00  0.00    +0.000 A 
ATOM      8  C   UNL     1       2.097   7.466  19.759  0.00  0.00    +0.000 A 
ATOM      9  C   UNL     1       2.933   6.408  19.391  0.00  0.00    +0.000 A 
ATOM     10  C   UNL     1       3.601   6.395  18.159  0.00  0.00    +0.000 A 
ATOM     11  C   UNL     1       3.364   7.469  17.286  0.00  0.00    +0.000 A 
ATOM     12  C   UNL     1       2.529   8.527  17.652  0.00  0.00    +0.000 A 
BRANCH  10  13
ATOM     13  C   UNL     1       4.502   5.249  17.706  0.00  0.00    +0.000 C 
ATOM     14  C   UNL     1       5.312   4.549  18.815  0.00  0.00    +0.000 C 
ATOM     15  C   UNL     1       6.519   5.376  19.269  0.00  0.00    +0.000 C 
ATOM     16  N   UNL     1       7.398   5.728  18.156  0.00  0.00    +0.000 NA
ATOM     17  C   UNL     1       6.669   6.453  17.112  0.00  0.00    +0.000 C 
ATOM     18  C   UNL     1       5.481   5.651  16.583  0.00  0.00    +0.000 C 
ATOM     19  H   UNL     1       7.789   4.875  17.756  0.00  0.00    +0.000 HD
ENDBRANCH  10  13
ENDBRANCH   3   7
BRANCH   5  20
ATOM     20  C   UNL     1      -1.462  11.596  21.172  0.00  0.00    +0.000 A 
ATOM     21  C   UNL     1      -2.567  12.311  20.683  0.00  0.00    +0.000 A 
ATOM     22  C   UNL     1      -3.511  12.862  21.554  0.00  0.00    +0.000 A 
ATOM     23  C   UNL     1      -3.376  12.698  22.938  0.00  0.00    +0.000 A 
ATOM     24  C   UNL     1      -2.263  11.999  23.429  0.00  0.00    +0.000 A 
ATOM     25  C   UNL     1      -1.309  11.469  22.555  0.00  0.00    +0.000 A 
BRANCH  23  26
ATOM     26  C   UNL     1      -4.400  13.245  23.897  0.00  0.00    +0.000 C 
ATOM     27  F   UNL     1      -5.603  13.515  23.315  0.00  0.00    +0.000 F 
ATOM     28  F   UNL     1      -4.665  12.388  24.921  0.00  0.00    +0.000 F 
ATOM     29  F   UNL     1      -4.000  14.410  24.478  0.00  0.00    +0.000 F 
ENDBRANCH  23  26
ENDBRANCH   5  20
BRANCH   1  31
ATOM     30  O   UNL     1      -0.051  14.016  18.750  0.00  0.00    +0.000 OA
ATOM     31  C   UNL     1      -0.413  12.903  18.408  0.00  0.00    +0.000 C 
BRANCH  31  32
ATOM     32  OXT UNL     1      -1.234  12.715  17.343  0.00  0.00    +0.000 OA
ATOM     33  HXT UNL     1      -0.847  13.005  16.497  0.00  0.00    +0.000 HD
ENDBRANCH  31  32
ENDBRANCH   1  31
TORSDOF 6
ENDMDL
MODEL 9
REMARK VINA RESULT:      -8.9      6.309     10.528
REMARK  Name = 
REMARK  6 active torsions:
REMARK  status: ('A' for Active; 'I' for Inactive)
REMARK    1  A    between atoms: C_2  and  OXT_3
REMARK    2  A    between atoms: C_2  and  CA_4
REMARK    3  A    between atoms: C_6  and  C_7
REMARK    4  A    between atoms: C_10  and  C_11
REMARK    5  A    between atoms: C_20  and  C_21
REMARK    6  A    between atoms: C_24  and  C_25
REMARK                            x       y       z     vdW  Elec       q    Type
REMARK                         _______ _______ _______ _____ _____    ______ ____
ROOT
ATOM      1  CA  UNL     1      -0.012  11.591  19.032  0.00  0.00    +0.000 A 
ATOM      2  N   UNL     1       0.935  10.744  18.487  0.00  0.00    +0.000 N 
ATOM      3  C   UNL     1       1.097   9.615  19.247  0.00  0.00    +0.000 A 
ATOM      4  C   UNL     1       0.312   9.791  20.366  0.00  0.00    +0.000 A 
ATOM      5  C   UNL     1      -0.401  11.018  20.241  0.00  0.00    +0.000 A 
ATOM      6  H   UNL     1       1.444  10.934  17.635  0.00  0.00    +0.000 HD
ENDROOT
BRANCH   3   7
ATOM      7  C   UNL     1       1.947   8.491  18.869  0.00  0.00    +0.000 A 
ATOM      8  C   UNL     1       2.639   8.468  17.657  0.00  0.00    +0.000 A 
ATOM      9  C   UNL     1       3.435   7.372  17.311  0.00  0.00    +0.000 A 
ATOM     10  C   UNL     1       3.557   6.259  18.155  0.00  0.00    +0.000 A 
ATOM     11  C   UNL     1       2.880   6.306  19.384  0.00  0.00    +0.000 A 
ATOM     12  C   UNL     1       2.084   7.400  19.731  0.00  0.00    +0.000 A 
BRANCH  10  13
ATOM     13  C   UNL     1       4.435   5.054  17.830  0.00  0.00    +0.000 C 
ATOM     14  C   UNL     1       5.328   4.543  18.978  0.00  0.00    +0.000 C 
ATOM     15  C   UNL     1       6.556   5.431  19.205  0.00  0.00    +0.000 C 
ATOM     16  N   UNL     1       7.351   5.596  17.990  0.00  0.00    +0.000 NA
ATOM     17  C   UNL     1       6.543   6.144  16.897  0.00  0.00    +0.000 C 
ATOM     18  C   UNL     1       5.328   5.268  16.591  0.00  0.00    +0.000 C 
ATOM     19  H   UNL     1       7.721   4.690  17.707  0.00  0.00    +0.000 HD
ENDBRANCH  10  13
ENDBRANCH   3   7
BRANCH   5  20
ATOM     20  C   UNL     1      -1.373  11.542  21.196  0.00  0.00    +0.000 A 
ATOM     21  C   UNL     1      -2.470  12.282  20.726  0.00  0.00    +0.000 A 
ATOM     22  C   UNL     1      -3.399  12.833  21.613  0.00  0.00    +0.000 A 
ATOM     23  C   UNL     1      -3.257  12.645  22.993  0.00  0.00    +0.000 A 
ATOM     24  C   UNL     1      -2.152  11.921  23.465  0.00  0.00    +0.000 A 
ATOM     25  C   UNL     1      -1.213  11.390  22.576  0.00  0.00    +0.000 A 
BRANCH  23  26
ATOM     26  C   UNL     1      -4.266  13.193  23.968  0.00  0.00    +0.000 C 
ATOM     27  F   UNL     1      -3.811  14.258  24.684  0.00  0.00    +0.000 F 
ATOM     28  F   UNL     1      -5.406  13.615  23.354  0.00  0.00    +0.000 F 
ATOM     29  F   UNL     1      -4.658  12.268  24.888  0.00  0.00    +0.000 F 
ENDBRANCH  23  26
ENDBRANCH   5  20
BRANCH   1  31
ATOM     30  O   UNL     1       0.018  13.957  18.722  0.00  0.00    +0.000 OA
ATOM     31  C   UNL     1      -0.375  12.844  18.411  0.00  0.00    +0.000 C 
BRANCH  31  32
ATOM     32  OXT UNL     1      -1.250  12.656  17.389  0.00  0.00    +0.000 OA
ATOM     33  HXT UNL     1      -0.892  12.110  16.667  0.00  0.00    +0.000 HD
ENDBRANCH  31  32
ENDBRANCH   1  31
TORSDOF 6
ENDMDL
