MODEL 1
REMARK VINA RESULT:      -7.2      0.000      0.000
REMARK  Name = 
REMARK  6 active torsions:
REMARK  status: ('A' for Active; 'I' for Inactive)
REMARK    1  A    between atoms: C_1  and  O_2
REMARK    2  A    between atoms: O_2  and  C_3
REMARK    3  A    between atoms: C_7  and  C_8
REMARK    4  A    between atoms: C_8  and  N_9
REMARK    5  A    between atoms: C_21  and  O_22
REMARK    6  A    between atoms: O_22  and  C_23
REMARK                            x       y       z     vdW  Elec       q    Type
REMARK                         _______ _______ _______ _____ _____    ______ ____
ROOT
ATOM      1  N   UNL     1       1.856   7.293  20.533  0.00  0.00    +0.000 N 
ATOM      2  C   UNL     1       2.566   6.401  19.804  0.00  0.00    +0.000 A 
ATOM      3  N   UNL     1       3.382   6.650  18.803  0.00  0.00    +0.000 NA
ATOM      4  C   UNL     1       3.957   5.461  18.353  0.00  0.00    +0.000 A 
ATOM      5  N   UNL     1       4.840   5.530  17.323  0.00  0.00    +0.000 N 
ATOM      6  C   UNL     1       5.500   4.332  16.792  0.00  0.00    +0.000 C 
ATOM      7  C   UNL     1       7.018   4.413  17.016  0.00  0.00    +0.000 C 
ATOM      8  O   UNL     1       7.567   5.634  16.488  0.00  0.00    +0.000 OA
ATOM      9  C   UNL     1       6.948   6.769  17.119  0.00  0.00    +0.000 C 
ATOM     10  C   UNL     1       5.430   6.790  16.874  0.00  0.00    +0.000 C 
ATOM     11  N   UNL     1       3.593   4.324  18.949  0.00  0.00    +0.000 NA
ATOM     12  S   UNL     1       2.521   4.712  20.154  0.00  0.00    +0.000 S 
ATOM     13  H   UNL     1       1.186   6.925  21.197  0.00  0.00    +0.000 HD
ENDROOT
BRANCH   1  14
ATOM     14  C   UNL     1       1.454   8.566  19.957  0.00  0.00    +0.000 C 
BRANCH  14  19
ATOM     15  C   UNL     1      -0.911  11.117  21.617  0.00  0.00    +0.000 A 
ATOM     16  C   UNL     1      -0.881  10.647  22.938  0.00  0.00    +0.000 A 
ATOM     17  C   UNL     1      -0.069   9.573  23.291  0.00  0.00    +0.000 A 
ATOM     18  C   UNL     1       0.683   8.933  22.316  0.00  0.00    +0.000 A 
ATOM     19  C   UNL     1       0.607   9.326  20.966  0.00  0.00    +0.000 A 
ATOM     20  C   UNL     1      -0.211  10.424  20.607  0.00  0.00    +0.000 A 
BRANCH  15  22
ATOM     21  C   UNL     1      -2.743  12.517  22.148  0.00  0.00    +0.000 C 
ATOM     22  O   UNL     1      -1.625  12.245  21.301  0.00  0.00    +0.000 OA
ENDBRANCH  15  22
BRANCH  20  23
ATOM     23  O   UNL     1      -0.183  10.747  19.273  0.00  0.00    +0.000 OA
ATOM     24  C   UNL     1      -1.304  10.397  18.469  0.00  0.00    +0.000 C 
ENDBRANCH  20  23
ENDBRANCH  14  19
ENDBRANCH   1  14
TORSDOF 4
ENDMDL
MODEL 2
REMARK VINA RESULT:      -7.2      3.035      8.249
REMARK  Name = 
REMARK  6 active torsions:
REMARK  status: ('A' for Active; 'I' for Inactive)
REMARK    1  A    between atoms: C_1  and  O_2
REMARK    2  A    between atoms: O_2  and  C_3
REMARK    3  A    between atoms: C_7  and  C_8
REMARK    4  A    between atoms: C_8  and  N_9
REMARK    5  A    between atoms: C_21  and  O_22
REMARK    6  A    between atoms: O_22  and  C_23
REMARK                            x       y       z     vdW  Elec       q    Type
REMARK                         _______ _______ _______ _____ _____    ______ ____
ROOT
ATOM      1  N   UNL     1       1.708   7.511  21.071  0.00  0.00    +0.000 N 
ATOM      2  C   UNL     1       1.008   8.660  20.928  0.00  0.00    +0.000 A 
ATOM      3  N   UNL     1       0.418   9.110  19.842  0.00  0.00    +0.000 NA
ATOM      4  C   UNL     1      -0.242  10.308  20.123  0.00  0.00    +0.000 A 
ATOM      5  N   UNL     1      -0.918  10.914  19.113  0.00  0.00    +0.000 N 
ATOM      6  C   UNL     1      -1.648  12.170  19.320  0.00  0.00    +0.000 C 
ATOM      7  C   UNL     1      -3.154  11.957  19.096  0.00  0.00    +0.000 C 
ATOM      8  O   UNL     1      -3.420  11.361  17.814  0.00  0.00    +0.000 OA
ATOM      9  C   UNL     1      -2.755  10.089  17.712  0.00  0.00    +0.000 C 
ATOM     10  C   UNL     1      -1.231  10.237  17.856  0.00  0.00    +0.000 C 
ATOM     11  N   UNL     1      -0.155  10.795  21.362  0.00  0.00    +0.000 NA
ATOM     12  S   UNL     1       0.743   9.727  22.258  0.00  0.00    +0.000 S 
ATOM     13  H   UNL     1       2.195   7.367  21.948  0.00  0.00    +0.000 HD
ENDROOT
BRANCH   1  14
ATOM     14  C   UNL     1       2.385   6.909  19.934  0.00  0.00    +0.000 C 
BRANCH  14  19
ATOM     15  C   UNL     1       3.256   3.159  19.764  0.00  0.00    +0.000 A 
ATOM     16  C   UNL     1       2.101   2.618  20.350  0.00  0.00    +0.000 A 
ATOM     17  C   UNL     1       1.047   3.442  20.732  0.00  0.00    +0.000 A 
ATOM     18  C   UNL     1       1.158   4.816  20.572  0.00  0.00    +0.000 A 
ATOM     19  C   UNL     1       2.339   5.396  20.068  0.00  0.00    +0.000 A 
ATOM     20  C   UNL     1       3.408   4.558  19.670  0.00  0.00    +0.000 A 
BRANCH  15  22
ATOM     21  C   UNL     1       3.800   1.306  18.397  0.00  0.00    +0.000 C 
ATOM     22  O   UNL     1       4.242   2.332  19.288  0.00  0.00    +0.000 OA
ENDBRANCH  15  22
BRANCH  20  23
ATOM     23  O   UNL     1       4.496   5.222  19.158  0.00  0.00    +0.000 OA
ATOM     24  C   UNL     1       4.625   5.318  17.745  0.00  0.00    +0.000 C 
ENDBRANCH  20  23
ENDBRANCH  14  19
ENDBRANCH   1  14
TORSDOF 4
ENDMDL
MODEL 3
REMARK VINA RESULT:      -6.7      2.837      8.415
REMARK  Name = 
REMARK  6 active torsions:
REMARK  status: ('A' for Active; 'I' for Inactive)
REMARK    1  A    between atoms: C_1  and  O_2
REMARK    2  A    between atoms: O_2  and  C_3
REMARK    3  A    between atoms: C_7  and  C_8
REMARK    4  A    between atoms: C_8  and  N_9
REMARK    5  A    between atoms: C_21  and  O_22
REMARK    6  A    between atoms: O_22  and  C_23
REMARK                            x       y       z     vdW  Elec       q    Type
REMARK                         _______ _______ _______ _____ _____    ______ ____
ROOT
ATOM      1  N   UNL     1       2.134   7.296  20.199  0.00  0.00    +0.000 N 
ATOM      2  C   UNL     1       1.467   8.450  20.434  0.00  0.00    +0.000 A 
ATOM      3  N   UNL     1       0.800   9.181  19.569  0.00  0.00    +0.000 NA
ATOM      4  C   UNL     1       0.213  10.268  20.220  0.00  0.00    +0.000 A 
ATOM      5  N   UNL     1      -0.529  11.130  19.478  0.00  0.00    +0.000 N 
ATOM      6  C   UNL     1      -1.190  12.294  20.080  0.00  0.00    +0.000 C 
ATOM      7  C   UNL     1      -2.716  12.166  19.954  0.00  0.00    +0.000 C 
ATOM      8  O   UNL     1      -3.119  11.938  18.592  0.00  0.00    +0.000 OA
ATOM      9  C   UNL     1      -2.514  10.732  18.092  0.00  0.00    +0.000 C 
ATOM     10  C   UNL     1      -0.979  10.818  18.122  0.00  0.00    +0.000 C 
ATOM     11  N   UNL     1       0.429  10.404  21.529  0.00  0.00    +0.000 NA
ATOM     12  S   UNL     1       1.364   9.125  22.018  0.00  0.00    +0.000 S 
ATOM     13  H   UNL     1       2.692   6.917  20.955  0.00  0.00    +0.000 HD
ENDROOT
BRANCH   1  14
ATOM     14  C   UNL     1       2.683   7.012  18.883  0.00  0.00    +0.000 C 
BRANCH  14  19
ATOM     15  C   UNL     1       3.802   3.325  18.871  0.00  0.00    +0.000 A 
ATOM     16  C   UNL     1       2.715   2.747  18.198  0.00  0.00    +0.000 A 
ATOM     17  C   UNL     1       1.681   3.539  17.708  0.00  0.00    +0.000 A 
ATOM     18  C   UNL     1       1.704   4.909  17.929  0.00  0.00    +0.000 A 
ATOM     19  C   UNL     1       2.737   5.507  18.677  0.00  0.00    +0.000 A 
ATOM     20  C   UNL     1       3.794   4.704  19.167  0.00  0.00    +0.000 A 
BRANCH  15  22
ATOM     21  C   UNL     1       4.707   1.848  20.483  0.00  0.00    +0.000 C 
ATOM     22  O   UNL     1       4.870   2.552  19.250  0.00  0.00    +0.000 OA
ENDBRANCH  15  22
BRANCH  20  23
ATOM     23  O   UNL     1       4.767   5.392  19.850  0.00  0.00    +0.000 OA
ATOM     24  C   UNL     1       6.046   5.532  19.244  0.00  0.00    +0.000 C 
ENDBRANCH  20  23
ENDBRANCH  14  19
ENDBRANCH   1  14
TORSDOF 4
ENDMDL
MODEL 4
REMARK VINA RESULT:      -6.7      3.115      8.168
REMARK  Name = 
REMARK  6 active torsions:
REMARK  status: ('A' for Active; 'I' for Inactive)
REMARK    1  A    between atoms: C_1  and  O_2
REMARK    2  A    between atoms: O_2  and  C_3
REMARK    3  A    between atoms: C_7  and  C_8
REMARK    4  A    between atoms: C_8  and  N_9
REMARK    5  A    between atoms: C_21  and  O_22
REMARK    6  A    between atoms: O_22  and  C_23
REMARK                            x       y       z     vdW  Elec       q    Type
REMARK                         _______ _______ _______ _____ _____    ______ ____
ROOT
ATOM      1  N   UNL     1       1.263   7.444  21.092  0.00  0.00    +0.000 N 
ATOM      2  C   UNL     1       1.007   8.754  21.311  0.00  0.00    +0.000 A 
ATOM      3  N   UNL     1       1.127   9.748  20.458  0.00  0.00    +0.000 NA
ATOM      4  C   UNL     1       0.715  10.940  21.058  0.00  0.00    +0.000 A 
ATOM      5  N   UNL     1       0.762  12.076  20.316  0.00  0.00    +0.000 N 
ATOM      6  C   UNL     1       0.340  13.371  20.862  0.00  0.00    +0.000 C 
ATOM      7  C   UNL     1      -0.883  13.902  20.096  0.00  0.00    +0.000 C 
ATOM      8  O   UNL     1      -0.642  13.945  18.678  0.00  0.00    +0.000 OA
ATOM      9  C   UNL     1      -0.328  12.629  18.188  0.00  0.00    +0.000 C 
ATOM     10  C   UNL     1       0.932  12.062  18.863  0.00  0.00    +0.000 C 
ATOM     11  N   UNL     1       0.317  10.894  22.331  0.00  0.00    +0.000 NA
ATOM     12  S   UNL     1       0.404   9.314  22.827  0.00  0.00    +0.000 S 
ATOM     13  H   UNL     1       1.227   6.821  21.891  0.00  0.00    +0.000 HD
ENDROOT
BRANCH   1  14
ATOM     14  C   UNL     1       2.235   7.036  20.090  0.00  0.00    +0.000 C 
BRANCH  14  19
ATOM     15  C   UNL     1       2.942   3.413  18.982  0.00  0.00    +0.000 A 
ATOM     16  C   UNL     1       1.916   2.748  19.669  0.00  0.00    +0.000 A 
ATOM     17  C   UNL     1       0.986   3.460  20.419  0.00  0.00    +0.000 A 
ATOM     18  C   UNL     1       1.103   4.840  20.524  0.00  0.00    +0.000 A 
ATOM     19  C   UNL     1       2.172   5.527  19.918  0.00  0.00    +0.000 A 
ATOM     20  C   UNL     1       3.114   4.804  19.147  0.00  0.00    +0.000 A 
BRANCH  15  22
ATOM     21  C   UNL     1       3.784   1.299  18.336  0.00  0.00    +0.000 C 
ATOM     22  O   UNL     1       3.786   2.716  18.154  0.00  0.00    +0.000 OA
ENDBRANCH  15  22
BRANCH  20  23
ATOM     23  O   UNL     1       4.093   5.574  18.569  0.00  0.00    +0.000 OA
ATOM     24  C   UNL     1       5.424   5.451  19.057  0.00  0.00    +0.000 C 
ENDBRANCH  20  23
ENDBRANCH  14  19
ENDBRANCH   1  14
TORSDOF 4
ENDMDL
MODEL 5
REMARK VINA RESULT:      -6.7      1.851      2.454
REMARK  Name = 
REMARK  6 active torsions:
REMARK  status: ('A' for Active; 'I' for Inactive)
REMARK    1  A    between atoms: C_1  and  O_2
REMARK    2  A    between atoms: O_2  and  C_3
REMARK    3  A    between atoms: C_7  and  C_8
REMARK    4  A    between atoms: C_8  and  N_9
REMARK    5  A    between atoms: C_21  and  O_22
REMARK    6  A    between atoms: O_22  and  C_23
REMARK                            x       y       z     vdW  Elec       q    Type
REMARK                         _______ _______ _______ _____ _____    ______ ____
ROOT
ATOM      1  N   UNL     1       1.543   8.659  19.232  0.00  0.00    +0.000 N 
ATOM      2  C   UNL     1       2.300   7.551  19.054  0.00  0.00    +0.000 A 
ATOM      3  N   UNL     1       3.232   7.353  18.149  0.00  0.00    +0.000 NA
ATOM      4  C   UNL     1       3.814   6.097  18.334  0.00  0.00    +0.000 A 
ATOM      5  N   UNL     1       4.810   5.726  17.489  0.00  0.00    +0.000 N 
ATOM      6  C   UNL     1       5.484   4.429  17.616  0.00  0.00    +0.000 C 
ATOM      7  C   UNL     1       6.969   4.629  17.959  0.00  0.00    +0.000 C 
ATOM      8  O   UNL     1       7.617   5.505  17.019  0.00  0.00    +0.000 OA
ATOM      9  C   UNL     1       6.969   6.790  17.013  0.00  0.00    +0.000 C 
ATOM     10  C   UNL     1       5.490   6.673  16.607  0.00  0.00    +0.000 C 
ATOM     11  N   UNL     1       3.345   5.330  19.320  0.00  0.00    +0.000 NA
ATOM     12  S   UNL     1       2.158   6.186  20.099  0.00  0.00    +0.000 S 
ATOM     13  H   UNL     1       0.789   8.606  19.907  0.00  0.00    +0.000 HD
ENDROOT
BRANCH   1  14
ATOM     14  C   UNL     1       1.253   9.544  18.115  0.00  0.00    +0.000 C 
BRANCH  14  19
ATOM     15  C   UNL     1      -1.543  11.724  19.626  0.00  0.00    +0.000 A 
ATOM     16  C   UNL     1      -2.578  11.447  18.720  0.00  0.00    +0.000 A 
ATOM     17  C   UNL     1      -2.393  10.534  17.688  0.00  0.00    +0.000 A 
ATOM     18  C   UNL     1      -1.156   9.925  17.526  0.00  0.00    +0.000 A 
ATOM     19  C   UNL     1      -0.072  10.247  18.365  0.00  0.00    +0.000 A 
ATOM     20  C   UNL     1      -0.262  11.169  19.422  0.00  0.00    +0.000 A 
BRANCH  15  22
ATOM     21  C   UNL     1      -3.107  13.023  20.836  0.00  0.00    +0.000 C 
ATOM     22  O   UNL     1      -1.769  12.539  20.707  0.00  0.00    +0.000 OA
ENDBRANCH  15  22
BRANCH  20  23
ATOM     23  O   UNL     1       0.847  11.383  20.202  0.00  0.00    +0.000 OA
ATOM     24  C   UNL     1       1.574  12.594  20.026  0.00  0.00    +0.000 C 
ENDBRANCH  20  23
ENDBRANCH  14  19
ENDBRANCH   1  14
TORSDOF 4
ENDMDL
MODEL 6
REMARK VINA RESULT:      -6.6      2.794      4.009
REMARK  Name = 
REMARK  6 active torsions:
REMARK  status: ('A' for Active; 'I' for Inactive)
REMARK    1  A    between atoms: C_1  and  O_2
REMARK    2  A    between atoms: O_2  and  C_3
REMARK    3  A    between atoms: C_7  and  C_8
REMARK    4  A    between atoms: C_8  and  N_9
REMARK    5  A    between atoms: C_21  and  O_22
REMARK    6  A    between atoms: O_22  and  C_23
REMARK                            x       y       z     vdW  Elec       q    Type
REMARK                         _______ _______ _______ _____ _____    ______ ____
ROOT
ATOM      1  N   UNL     1       1.740   9.042  18.364  0.00  0.00    +0.000 N 
ATOM      2  C   UNL     1       2.394   7.865  18.493  0.00  0.00    +0.000 A 
ATOM      3  N   UNL     1       2.158   6.906  19.361  0.00  0.00    +0.000 NA
ATOM      4  C   UNL     1       3.021   5.834  19.131  0.00  0.00    +0.000 A 
ATOM      5  N   UNL     1       2.911   4.744  19.933  0.00  0.00    +0.000 N 
ATOM      6  C   UNL     1       3.771   3.567  19.758  0.00  0.00    +0.000 C 
ATOM      7  C   UNL     1       2.928   2.342  19.368  0.00  0.00    +0.000 C 
ATOM      8  O   UNL     1       1.857   2.117  20.301  0.00  0.00    +0.000 OA
ATOM      9  C   UNL     1       0.996   3.269  20.356  0.00  0.00    +0.000 C 
ATOM     10  C   UNL     1       1.762   4.523  20.810  0.00  0.00    +0.000 C 
ATOM     11  N   UNL     1       3.915   5.950  18.147  0.00  0.00    +0.000 NA
ATOM     12  S   UNL     1       3.678   7.425  17.427  0.00  0.00    +0.000 S 
ATOM     13  H   UNL     1       2.123   9.720  17.714  0.00  0.00    +0.000 HD
ENDROOT
BRANCH   1  14
ATOM     14  C   UNL     1       1.080   9.652  19.507  0.00  0.00    +0.000 C 
BRANCH  14  19
ATOM     15  C   UNL     1      -2.036  11.910  19.306  0.00  0.00    +0.000 A 
ATOM     16  C   UNL     1      -2.558  11.489  18.074  0.00  0.00    +0.000 A 
ATOM     17  C   UNL     1      -1.951  10.460  17.361  0.00  0.00    +0.000 A 
ATOM     18  C   UNL     1      -0.791   9.877  17.853  0.00  0.00    +0.000 A 
ATOM     19  C   UNL     1      -0.195  10.337  19.042  0.00  0.00    +0.000 A 
ATOM     20  C   UNL     1      -0.816  11.377  19.774  0.00  0.00    +0.000 A 
BRANCH  15  22
ATOM     21  C   UNL     1      -4.116  12.655  20.154  0.00  0.00    +0.000 C 
ATOM     22  O   UNL     1      -2.703  12.846  20.056  0.00  0.00    +0.000 OA
ENDBRANCH  15  22
BRANCH  20  23
ATOM     23  O   UNL     1      -0.173  11.723  20.936  0.00  0.00    +0.000 OA
ATOM     24  C   UNL     1      -0.686  11.226  22.167  0.00  0.00    +0.000 C 
ENDBRANCH  20  23
ENDBRANCH  14  19
ENDBRANCH   1  14
TORSDOF 4
ENDMDL
MODEL 7
REMARK VINA RESULT:      -6.5      2.536      3.656
REMARK  Name = 
REMARK  6 active torsions:
REMARK  status: ('A' for Active; 'I' for Inactive)
REMARK    1  A    between atoms: C_1  and  O_2
REMARK    2  A    between atoms: O_2  and  C_3
REMARK    3  A    between atoms: C_7  and  C_8
REMARK    4  A    between atoms: C_8  and  N_9
REMARK    5  A    between atoms: C_21  and  O_22
REMARK    6  A    between atoms: O_22  and  C_23
REMARK                            x       y       z     vdW  Elec       q    Type
REMARK                         _______ _______ _______ _____ _____    ______ ____
ROOT
ATOM      1  N   UNL     1       1.673   8.790  18.961  0.00  0.00    +0.000 N 
ATOM      2  C   UNL     1       2.374   7.646  18.788  0.00  0.00    +0.000 A 
ATOM      3  N   UNL     1       2.216   6.505  19.420  0.00  0.00    +0.000 NA
ATOM      4  C   UNL     1       3.104   5.554  18.913  0.00  0.00    +0.000 A 
ATOM      5  N   UNL     1       3.074   4.305  19.445  0.00  0.00    +0.000 N 
ATOM      6  C   UNL     1       3.965   3.242  18.967  0.00  0.00    +0.000 C 
ATOM      7  C   UNL     1       3.147   2.101  18.339  0.00  0.00    +0.000 C 
ATOM      8  O   UNL     1       2.134   1.618  19.238  0.00  0.00    +0.000 OA
ATOM      9  C   UNL     1       1.236   2.686  19.593  0.00  0.00    +0.000 C 
ATOM     10  C   UNL     1       1.979   3.836  20.293  0.00  0.00    +0.000 C 
ATOM     11  N   UNL     1       3.943   5.935  17.947  0.00  0.00    +0.000 NA
ATOM     12  S   UNL     1       3.617   7.522  17.597  0.00  0.00    +0.000 S 
ATOM     13  H   UNL     1       1.998   9.616  18.471  0.00  0.00    +0.000 HD
ENDROOT
BRANCH   1  14
ATOM     14  C   UNL     1       1.051   9.091  20.241  0.00  0.00    +0.000 C 
BRANCH  14  19
ATOM     15  C   UNL     1      -1.339  12.047  20.872  0.00  0.00    +0.000 A 
ATOM     16  C   UNL     1      -1.838  12.233  19.574  0.00  0.00    +0.000 A 
ATOM     17  C   UNL     1      -1.457  11.385  18.539  0.00  0.00    +0.000 A 
ATOM     18  C   UNL     1      -0.538  10.374  18.785  0.00  0.00    +0.000 A 
ATOM     19  C   UNL     1       0.046  10.216  20.056  0.00  0.00    +0.000 A 
ATOM     20  C   UNL     1      -0.349  11.072  21.112  0.00  0.00    +0.000 A 
BRANCH  15  22
ATOM     21  C   UNL     1      -3.111  12.474  22.381  0.00  0.00    +0.000 C 
ATOM     22  O   UNL     1      -1.807  12.815  21.909  0.00  0.00    +0.000 OA
ENDBRANCH  15  22
BRANCH  20  23
ATOM     23  O   UNL     1       0.253  10.809  22.318  0.00  0.00    +0.000 OA
ATOM     24  C   UNL     1      -0.415   9.949  23.234  0.00  0.00    +0.000 C 
ENDBRANCH  20  23
ENDBRANCH  14  19
ENDBRANCH   1  14
TORSDOF 4
ENDMDL
MODEL 8
REMARK VINA RESULT:      -6.5      3.181      4.067
REMARK  Name = 
REMARK  6 active torsions:
REMARK  status: ('A' for Active; 'I' for Inactive)
REMARK    1  A    between atoms: C_1  and  O_2
REMARK    2  A    between atoms: O_2  and  C_3
REMARK    3  A    between atoms: C_7  and  C_8
REMARK    4  A    between atoms: C_8  and  N_9
REMARK    5  A    between atoms: C_21  and  O_22
REMARK    6  A    between atoms: O_22  and  C_23
REMARK                            x       y       z     vdW  Elec       q    Type
REMARK                         _______ _______ _______ _____ _____    ______ ____
ROOT
ATOM      1  N   UNL     1       1.975   8.863  18.305  0.00  0.00    +0.000 N 
ATOM      2  C   UNL     1       2.589   7.659  18.365  0.00  0.00    +0.000 A 
ATOM      3  N   UNL     1       2.242   6.617  19.087  0.00  0.00    +0.000 NA
ATOM      4  C   UNL     1       3.104   5.550  18.827  0.00  0.00    +0.000 A 
ATOM      5  N   UNL     1       2.888   4.381  19.482  0.00  0.00    +0.000 N 
ATOM      6  C   UNL     1       3.739   3.205  19.262  0.00  0.00    +0.000 C 
ATOM      7  C   UNL     1       2.919   2.059  18.648  0.00  0.00    +0.000 C 
ATOM      8  O   UNL     1       1.750   1.764  19.433  0.00  0.00    +0.000 OA
ATOM      9  C   UNL     1       0.910   2.929  19.530  0.00  0.00    +0.000 C 
ATOM     10  C   UNL     1       1.647   4.099  20.203  0.00  0.00    +0.000 C 
ATOM     11  N   UNL     1       4.100   5.748  17.961  0.00  0.00    +0.000 NA
ATOM     12  S   UNL     1       3.970   7.301  17.395  0.00  0.00    +0.000 S 
ATOM     13  H   UNL     1       2.438   9.597  17.781  0.00  0.00    +0.000 HD
ENDROOT
BRANCH   1  14
ATOM     14  C   UNL     1       1.209   9.361  19.436  0.00  0.00    +0.000 C 
BRANCH  14  19
ATOM     15  C   UNL     1      -0.586  12.615  18.415  0.00  0.00    +0.000 A 
ATOM     16  C   UNL     1      -1.831  12.092  18.035  0.00  0.00    +0.000 A 
ATOM     17  C   UNL     1      -2.101  10.734  18.165  0.00  0.00    +0.000 A 
ATOM     18  C   UNL     1      -1.110   9.881  18.633  0.00  0.00    +0.000 A 
ATOM     19  C   UNL     1       0.178  10.361  18.940  0.00  0.00    +0.000 A 
ATOM     20  C   UNL     1       0.449  11.745  18.817  0.00  0.00    +0.000 A 
BRANCH  15  22
ATOM     21  C   UNL     1      -0.578  14.644  19.632  0.00  0.00    +0.000 C 
ATOM     22  O   UNL     1      -0.368  13.969  18.390  0.00  0.00    +0.000 OA
ENDBRANCH  15  22
BRANCH  20  23
ATOM     23  O   UNL     1       1.723  12.113  19.177  0.00  0.00    +0.000 OA
ATOM     24  C   UNL     1       2.616  12.540  18.156  0.00  0.00    +0.000 C 
ENDBRANCH  20  23
ENDBRANCH  14  19
ENDBRANCH   1  14
TORSDOF 4
ENDMDL
MODEL 9
REMARK VINA RESULT:      -6.5      2.288      8.561
REMARK  Name = 
REMARK  6 active torsions:
REMARK  status: ('A' for Active; 'I' for Inactive)
REMARK    1  A    between atoms: C_1  and  O_2
REMARK    2  A    between atoms: O_2  and  C_3
REMARK    3  A    between atoms: C_7  and  C_8
REMARK    4  A    between atoms: C_8  and  N_9
REMARK    5  A    between atoms: C_21  and  O_22
REMARK    6  A    between atoms: O_22  and  C_23
REMARK                            x       y       z     vdW  Elec       q    Type
REMARK                         _______ _______ _______ _____ _____    ______ ____
ROOT
ATOM      1  N   UNL     1       2.095   7.493  19.746  0.00  0.00    +0.000 N 
ATOM      2  C   UNL     1       1.491   8.584  20.272  0.00  0.00    +0.000 A 
ATOM      3  N   UNL     1       0.838   9.527  19.630  0.00  0.00    +0.000 NA
ATOM      4  C   UNL     1       0.320  10.450  20.540  0.00  0.00    +0.000 A 
ATOM      5  N   UNL     1      -0.397  11.494  20.051  0.00  0.00    +0.000 N 
ATOM      6  C   UNL     1      -0.986  12.506  20.935  0.00  0.00    +0.000 C 
ATOM      7  C   UNL     1      -2.520  12.475  20.837  0.00  0.00    +0.000 C 
ATOM      8  O   UNL     1      -2.967  12.596  19.475  0.00  0.00    +0.000 OA
ATOM      9  C   UNL     1      -2.433  11.520  18.681  0.00  0.00    +0.000 C 
ATOM     10  C   UNL     1      -0.895  11.534  18.676  0.00  0.00    +0.000 C 
ATOM     11  N   UNL     1       0.575  10.261  21.836  0.00  0.00    +0.000 NA
ATOM     12  S   UNL     1       1.459   8.865  21.974  0.00  0.00    +0.000 S 
ATOM     13  H   UNL     1       2.653   6.922  20.370  0.00  0.00    +0.000 HD
ENDROOT
BRANCH   1  14
ATOM     14  C   UNL     1       2.597   7.510  18.382  0.00  0.00    +0.000 C 
BRANCH  14  19
ATOM     15  C   UNL     1       4.476   4.491  16.897  0.00  0.00    +0.000 A 
ATOM     16  C   UNL     1       3.610   3.457  17.283  0.00  0.00    +0.000 A 
ATOM     17  C   UNL     1       2.422   3.737  17.950  0.00  0.00    +0.000 A 
ATOM     18  C   UNL     1       2.114   5.051  18.277  0.00  0.00    +0.000 A 
ATOM     19  C   UNL     1       3.004   6.101  17.981  0.00  0.00    +0.000 A 
ATOM     20  C   UNL     1       4.208   5.818  17.293  0.00  0.00    +0.000 A 
BRANCH  15  22
ATOM     21  C   UNL     1       5.424   4.382  14.732  0.00  0.00    +0.000 C 
ATOM     22  O   UNL     1       5.588   4.215  16.141  0.00  0.00    +0.000 OA
ENDBRANCH  15  22
BRANCH  20  23
ATOM     23  O   UNL     1       4.985   6.917  17.021  0.00  0.00    +0.000 OA
ATOM     24  C   UNL     1       6.342   6.907  17.447  0.00  0.00    +0.000 C 
ENDBRANCH  20  23
ENDBRANCH  14  19
ENDBRANCH   1  14
TORSDOF 4
ENDMDL
