MODEL 1
REMARK VINA RESULT:      -7.5      0.000      0.000
REMARK  Name = 
REMARK  4 active torsions:
REMARK  status: ('A' for Active; 'I' for Inactive)
REMARK    1  A    between atoms: N_1  and  C_2
REMARK    2  A    between atoms: N_5  and  C_6
REMARK    3  A    between atoms: C_13  and  C_14
REMARK    4  A    between atoms: C_14  and  C_16
REMARK                            x       y       z     vdW  Elec       q    Type
REMARK                         _______ _______ _______ _____ _____    ______ ____
ROOT
ATOM      1  C   UNL     1       1.692   8.155  20.298  0.00  0.00    +0.000 A 
ATOM      2  N   UNL     1       1.007   9.302  20.014  0.00  0.00    +0.000 NA
ATOM      3  C   UNL     1       1.062   9.575  18.732  0.00  0.00    +0.000 A 
ATOM      4  N   UNL     1       0.453  10.619  18.117  0.00  0.00    +0.000 N 
ATOM      5  S   UNL     1       2.026   8.476  17.821  0.00  0.00    +0.000 S 
ATOM      6  C   UNL     1       2.257   7.498  19.226  0.00  0.00    +0.000 A 
ATOM      7  H   UNL     1       0.682  10.772  17.143  0.00  0.00    +0.000 HD
ENDROOT
BRANCH   4   8
ATOM      8  C   UNL     1      -0.718  11.278  18.547  0.00  0.00    +0.000 A 
ATOM      9  C   UNL     1      -2.006  10.903  18.162  0.00  0.00    +0.000 A 
ATOM     10  C   UNL     1      -3.099  11.599  18.655  0.00  0.00    +0.000 A 
ATOM     11  N   UNL     1      -3.005  12.631  19.517  0.00  0.00    +0.000 NA
ATOM     12  C   UNL     1      -1.758  12.966  19.908  0.00  0.00    +0.000 A 
ATOM     13  C   UNL     1      -0.606  12.329  19.465  0.00  0.00    +0.000 A 
ENDBRANCH   4   8
BRANCH   1  14
ATOM     14  N   UNL     1       1.713   7.826  21.595  0.00  0.00    +0.000 N 
ATOM     15  H   UNL     1       2.501   8.158  22.144  0.00  0.00    +0.000 HD
ATOM     16  H   UNL     1       0.923   7.521  22.145  0.00  0.00    +0.000 HD
ENDBRANCH   1  14
BRANCH   6  17
ATOM     17  C   UNL     1       2.981   6.248  19.096  0.00  0.00    +0.000 C 
ATOM     18  O   UNL     1       4.125   6.165  18.644  0.00  0.00    +0.000 OA
BRANCH  17  19
ATOM     19  C   UNL     1       2.369   4.971  19.540  0.00  0.00    +0.000 A 
ATOM     20  C   UNL     1       2.587   4.537  20.856  0.00  0.00    +0.000 A 
ATOM     21  C   UNL     1       1.968   3.375  21.323  0.00  0.00    +0.000 A 
ATOM     22  C   UNL     1       1.130   2.642  20.482  0.00  0.00    +0.000 A 
ATOM     23  C   UNL     1       0.950   3.043  19.159  0.00  0.00    +0.000 A 
ATOM     24  C   UNL     1       1.593   4.184  18.688  0.00  0.00    +0.000 A 
ATOM     25  F   UNL     1       1.433   4.513  17.398  0.00  0.00    +0.000 F 
ENDBRANCH  17  19
ENDBRANCH   6  17
TORSDOF 4
ENDMDL
MODEL 2
REMARK VINA RESULT:      -7.4      0.885      1.410
REMARK  Name = 
REMARK  4 active torsions:
REMARK  status: ('A' for Active; 'I' for Inactive)
REMARK    1  A    between atoms: N_1  and  C_2
REMARK    2  A    between atoms: N_5  and  C_6
REMARK    3  A    between atoms: C_13  and  C_14
REMARK    4  A    between atoms: C_14  and  C_16
REMARK                            x       y       z     vdW  Elec       q    Type
REMARK                         _______ _______ _______ _____ _____    ______ ____
ROOT
ATOM      1  C   UNL     1       1.736   7.888  20.271  0.00  0.00    +0.000 A 
ATOM      2  N   UNL     1       1.026   9.000  19.917  0.00  0.00    +0.000 NA
ATOM      3  C   UNL     1       1.168   9.258  18.639  0.00  0.00    +0.000 A 
ATOM      4  N   UNL     1       0.564  10.265  17.962  0.00  0.00    +0.000 N 
ATOM      5  S   UNL     1       2.245   8.189  17.822  0.00  0.00    +0.000 S 
ATOM      6  C   UNL     1       2.409   7.241  19.257  0.00  0.00    +0.000 A 
ATOM      7  H   UNL     1       0.861  10.415  17.005  0.00  0.00    +0.000 HD
ENDROOT
BRANCH   4   8
ATOM      8  C   UNL     1      -0.663  10.878  18.290  0.00  0.00    +0.000 A 
ATOM      9  C   UNL     1      -0.777  11.990  19.127  0.00  0.00    +0.000 A 
ATOM     10  C   UNL     1      -2.027  12.538  19.373  0.00  0.00    +0.000 A 
ATOM     11  N   UNL     1      -3.170  12.070  18.834  0.00  0.00    +0.000 NA
ATOM     12  C   UNL     1      -3.047  11.015  18.002  0.00  0.00    +0.000 A 
ATOM     13  C   UNL     1      -1.839  10.400  17.699  0.00  0.00    +0.000 A 
ENDBRANCH   4   8
BRANCH   1  14
ATOM     14  N   UNL     1       1.671   7.577  21.572  0.00  0.00    +0.000 N 
ATOM     15  H   UNL     1       0.896   7.965  22.102  0.00  0.00    +0.000 HD
ATOM     16  H   UNL     1       2.138   6.806  22.025  0.00  0.00    +0.000 HD
ENDBRANCH   1  14
BRANCH   6  17
ATOM     17  C   UNL     1       3.193   6.023  19.203  0.00  0.00    +0.000 C 
ATOM     18  O   UNL     1       4.422   5.997  19.293  0.00  0.00    +0.000 OA
BRANCH  17  19
ATOM     19  C   UNL     1       2.529   4.703  19.059  0.00  0.00    +0.000 A 
ATOM     20  C   UNL     1       1.689   4.252  20.088  0.00  0.00    +0.000 A 
ATOM     21  C   UNL     1       0.996   3.046  19.950  0.00  0.00    +0.000 A 
ATOM     22  C   UNL     1       1.138   2.286  18.788  0.00  0.00    +0.000 A 
ATOM     23  C   UNL     1       2.010   2.707  17.785  0.00  0.00    +0.000 A 
ATOM     24  C   UNL     1       2.723   3.893  17.939  0.00  0.00    +0.000 A 
ATOM     25  F   UNL     1       3.585   4.242  16.974  0.00  0.00    +0.000 F 
ENDBRANCH  17  19
ENDBRANCH   6  17
TORSDOF 4
ENDMDL
MODEL 3
REMARK VINA RESULT:      -7.4      2.924      3.727
REMARK  Name = 
REMARK  4 active torsions:
REMARK  status: ('A' for Active; 'I' for Inactive)
REMARK    1  A    between atoms: N_1  and  C_2
REMARK    2  A    between atoms: N_5  and  C_6
REMARK    3  A    between atoms: C_13  and  C_14
REMARK    4  A    between atoms: C_14  and  C_16
REMARK                            x       y       z     vdW  Elec       q    Type
REMARK                         _______ _______ _______ _____ _____    ______ ____
ROOT
ATOM      1  C   UNL     1       2.421   6.340  19.858  0.00  0.00    +0.000 A 
ATOM      2  N   UNL     1       1.938   7.613  19.747  0.00  0.00    +0.000 NA
ATOM      3  C   UNL     1       2.292   8.149  18.602  0.00  0.00    +0.000 A 
ATOM      4  N   UNL     1       1.943   9.383  18.164  0.00  0.00    +0.000 N 
ATOM      5  S   UNL     1       3.304   7.140  17.638  0.00  0.00    +0.000 S 
ATOM      6  C   UNL     1       3.125   5.854  18.777  0.00  0.00    +0.000 A 
ATOM      7  H   UNL     1       2.389   9.709  17.315  0.00  0.00    +0.000 HD
ENDROOT
BRANCH   4   8
ATOM      8  C   UNL     1       0.786  10.105  18.524  0.00  0.00    +0.000 A 
ATOM      9  C   UNL     1      -0.463   9.915  17.932  0.00  0.00    +0.000 A 
ATOM     10  C   UNL     1      -1.550  10.656  18.370  0.00  0.00    +0.000 A 
ATOM     11  N   UNL     1      -1.487  11.564  19.365  0.00  0.00    +0.000 NA
ATOM     12  C   UNL     1      -0.282  11.719  19.952  0.00  0.00    +0.000 A 
ATOM     13  C   UNL     1       0.860  11.022  19.580  0.00  0.00    +0.000 A 
ENDBRANCH   4   8
BRANCH   1  14
ATOM     14  N   UNL     1       2.131   5.735  21.017  0.00  0.00    +0.000 N 
ATOM     15  H   UNL     1       1.228   5.273  21.084  0.00  0.00    +0.000 HD
ATOM     16  H   UNL     1       2.793   5.458  21.726  0.00  0.00    +0.000 HD
ENDBRANCH   1  14
BRANCH   6  17
ATOM     17  C   UNL     1       3.721   4.567  18.477  0.00  0.00    +0.000 C 
ATOM     18  O   UNL     1       3.257   3.492  18.864  0.00  0.00    +0.000 OA
BRANCH  17  19
ATOM     19  C   UNL     1       4.943   4.478  17.639  0.00  0.00    +0.000 A 
ATOM     20  C   UNL     1       4.819   4.061  16.305  0.00  0.00    +0.000 A 
ATOM     21  C   UNL     1       5.941   4.034  15.472  0.00  0.00    +0.000 A 
ATOM     22  C   UNL     1       7.188   4.421  15.964  0.00  0.00    +0.000 A 
ATOM     23  C   UNL     1       7.323   4.788  17.303  0.00  0.00    +0.000 A 
ATOM     24  C   UNL     1       6.209   4.784  18.138  0.00  0.00    +0.000 A 
ATOM     25  F   UNL     1       6.386   5.099  19.429  0.00  0.00    +0.000 F 
ENDBRANCH  17  19
ENDBRANCH   6  17
TORSDOF 4
ENDMDL
MODEL 4
REMARK VINA RESULT:      -7.4      0.891      1.003
REMARK  Name = 
REMARK  4 active torsions:
REMARK  status: ('A' for Active; 'I' for Inactive)
REMARK    1  A    between atoms: N_1  and  C_2
REMARK    2  A    between atoms: N_5  and  C_6
REMARK    3  A    between atoms: C_13  and  C_14
REMARK    4  A    between atoms: C_14  and  C_16
REMARK                            x       y       z     vdW  Elec       q    Type
REMARK                         _______ _______ _______ _____ _____    ______ ____
ROOT
ATOM      1  C   UNL     1       1.768   7.842  20.263  0.00  0.00    +0.000 A 
ATOM      2  N   UNL     1       1.080   8.962  19.892  0.00  0.00    +0.000 NA
ATOM      3  C   UNL     1       1.259   9.221  18.619  0.00  0.00    +0.000 A 
ATOM      4  N   UNL     1       0.685  10.237  17.928  0.00  0.00    +0.000 N 
ATOM      5  S   UNL     1       2.347   8.143  17.829  0.00  0.00    +0.000 S 
ATOM      6  C   UNL     1       2.461   7.190  19.265  0.00  0.00    +0.000 A 
ATOM      7  H   UNL     1       1.009  10.386  16.981  0.00  0.00    +0.000 HD
ENDROOT
BRANCH   4   8
ATOM      8  C   UNL     1      -0.544  10.863  18.225  0.00  0.00    +0.000 A 
ATOM      9  C   UNL     1      -1.782  10.387  17.790  0.00  0.00    +0.000 A 
ATOM     10  C   UNL     1      -2.940  11.059  18.152  0.00  0.00    +0.000 A 
ATOM     11  N   UNL     1      -2.957  12.161  18.928  0.00  0.00    +0.000 NA
ATOM     12  C   UNL     1      -1.758  12.595  19.369  0.00  0.00    +0.000 A 
ATOM     13  C   UNL     1      -0.548  11.989  19.057  0.00  0.00    +0.000 A 
ENDBRANCH   4   8
BRANCH   1  14
ATOM     14  N   UNL     1       1.664   7.529  21.560  0.00  0.00    +0.000 N 
ATOM     15  H   UNL     1       1.001   6.801  21.809  0.00  0.00    +0.000 HD
ATOM     16  H   UNL     1       2.341   7.737  22.279  0.00  0.00    +0.000 HD
ENDBRANCH   1  14
BRANCH   6  17
ATOM     17  C   UNL     1       3.233   5.963  19.230  0.00  0.00    +0.000 C 
ATOM     18  O   UNL     1       4.461   5.925  19.338  0.00  0.00    +0.000 OA
BRANCH  17  19
ATOM     19  C   UNL     1       2.558   4.650  19.083  0.00  0.00    +0.000 A 
ATOM     20  C   UNL     1       1.720   4.200  20.114  0.00  0.00    +0.000 A 
ATOM     21  C   UNL     1       1.016   3.001  19.974  0.00  0.00    +0.000 A 
ATOM     22  C   UNL     1       1.145   2.246  18.807  0.00  0.00    +0.000 A 
ATOM     23  C   UNL     1       2.015   2.665  17.801  0.00  0.00    +0.000 A 
ATOM     24  C   UNL     1       2.738   3.845  17.958  0.00  0.00    +0.000 A 
ATOM     25  F   UNL     1       3.598   4.191  16.989  0.00  0.00    +0.000 F 
ENDBRANCH  17  19
ENDBRANCH   6  17
TORSDOF 4
ENDMDL
MODEL 5
REMARK VINA RESULT:      -7.4      2.916      3.851
REMARK  Name = 
REMARK  4 active torsions:
REMARK  status: ('A' for Active; 'I' for Inactive)
REMARK    1  A    between atoms: N_1  and  C_2
REMARK    2  A    between atoms: N_5  and  C_6
REMARK    3  A    between atoms: C_13  and  C_14
REMARK    4  A    between atoms: C_14  and  C_16
REMARK                            x       y       z     vdW  Elec       q    Type
REMARK                         _______ _______ _______ _____ _____    ______ ____
ROOT
ATOM      1  C   UNL     1       2.420   6.242  19.953  0.00  0.00    +0.000 A 
ATOM      2  N   UNL     1       1.922   7.512  19.877  0.00  0.00    +0.000 NA
ATOM      3  C   UNL     1       2.245   8.073  18.735  0.00  0.00    +0.000 A 
ATOM      4  N   UNL     1       1.874   9.311  18.328  0.00  0.00    +0.000 N 
ATOM      5  S   UNL     1       3.246   7.094  17.730  0.00  0.00    +0.000 S 
ATOM      6  C   UNL     1       3.106   5.785  18.849  0.00  0.00    +0.000 A 
ATOM      7  H   UNL     1       2.298   9.658  17.476  0.00  0.00    +0.000 HD
ENDROOT
BRANCH   4   8
ATOM      8  C   UNL     1       0.717  10.013  18.727  0.00  0.00    +0.000 A 
ATOM      9  C   UNL     1       0.669  10.869  19.828  0.00  0.00    +0.000 A 
ATOM     10  C   UNL     1      -0.510  11.535  20.128  0.00  0.00    +0.000 A 
ATOM     11  N   UNL     1      -1.640  11.422  19.403  0.00  0.00    +0.000 NA
ATOM     12  C   UNL     1      -1.576  10.617  18.323  0.00  0.00    +0.000 A 
ATOM     13  C   UNL     1      -0.441   9.911  17.946  0.00  0.00    +0.000 A 
ENDBRANCH   4   8
BRANCH   1  14
ATOM     14  N   UNL     1       2.162   5.613  21.106  0.00  0.00    +0.000 N 
ATOM     15  H   UNL     1       2.073   4.601  21.071  0.00  0.00    +0.000 HD
ATOM     16  H   UNL     1       2.304   5.985  22.033  0.00  0.00    +0.000 HD
ENDBRANCH   1  14
BRANCH   6  17
ATOM     17  C   UNL     1       3.709   4.510  18.511  0.00  0.00    +0.000 C 
ATOM     18  O   UNL     1       3.251   3.422  18.868  0.00  0.00    +0.000 OA
BRANCH  17  19
ATOM     19  C   UNL     1       4.930   4.452  17.670  0.00  0.00    +0.000 A 
ATOM     20  C   UNL     1       4.812   4.047  16.332  0.00  0.00    +0.000 A 
ATOM     21  C   UNL     1       5.933   4.049  15.496  0.00  0.00    +0.000 A 
ATOM     22  C   UNL     1       7.173   4.453  15.991  0.00  0.00    +0.000 A 
ATOM     23  C   UNL     1       7.304   4.808  17.333  0.00  0.00    +0.000 A 
ATOM     24  C   UNL     1       6.192   4.775  18.170  0.00  0.00    +0.000 A 
ATOM     25  F   UNL     1       6.366   5.079  19.464  0.00  0.00    +0.000 F 
ENDBRANCH  17  19
ENDBRANCH   6  17
TORSDOF 4
ENDMDL
MODEL 6
REMARK VINA RESULT:      -7.3      1.056      1.474
REMARK  Name = 
REMARK  4 active torsions:
REMARK  status: ('A' for Active; 'I' for Inactive)
REMARK    1  A    between atoms: N_1  and  C_2
REMARK    2  A    between atoms: N_5  and  C_6
REMARK    3  A    between atoms: C_13  and  C_14
REMARK    4  A    between atoms: C_14  and  C_16
REMARK                            x       y       z     vdW  Elec       q    Type
REMARK                         _______ _______ _______ _____ _____    ______ ____
ROOT
ATOM      1  C   UNL     1       1.699   7.993  20.348  0.00  0.00    +0.000 A 
ATOM      2  N   UNL     1       1.008   9.116  19.992  0.00  0.00    +0.000 NA
ATOM      3  C   UNL     1       1.130   9.352  18.707  0.00  0.00    +0.000 A 
ATOM      4  N   UNL     1       0.536  10.364  18.028  0.00  0.00    +0.000 N 
ATOM      5  S   UNL     1       2.165   8.247  17.885  0.00  0.00    +0.000 S 
ATOM      6  C   UNL     1       2.335   7.316  19.330  0.00  0.00    +0.000 A 
ATOM      7  H   UNL     1       0.817  10.493  17.063  0.00  0.00    +0.000 HD
ENDROOT
BRANCH   4   8
ATOM      8  C   UNL     1      -0.669  11.011  18.371  0.00  0.00    +0.000 A 
ATOM      9  C   UNL     1      -1.921  10.631  17.884  0.00  0.00    +0.000 A 
ATOM     10  C   UNL     1      -3.054  11.315  18.298  0.00  0.00    +0.000 A 
ATOM     11  N   UNL     1      -3.035  12.339  19.174  0.00  0.00    +0.000 NA
ATOM     12  C   UNL     1      -1.824  12.679  19.663  0.00  0.00    +0.000 A 
ATOM     13  C   UNL     1      -0.637  12.054  19.306  0.00  0.00    +0.000 A 
ENDBRANCH   4   8
BRANCH   1  14
ATOM     14  N   UNL     1       1.653   7.703  21.654  0.00  0.00    +0.000 N 
ATOM     15  H   UNL     1       2.313   7.011  21.998  0.00  0.00    +0.000 HD
ATOM     16  H   UNL     1       1.232   8.269  22.376  0.00  0.00    +0.000 HD
ENDBRANCH   1  14
BRANCH   6  17
ATOM     17  C   UNL     1       3.089   6.079  19.279  0.00  0.00    +0.000 C 
ATOM     18  O   UNL     1       4.321   6.030  19.243  0.00  0.00    +0.000 OA
BRANCH  17  19
ATOM     19  C   UNL     1       2.392   4.768  19.293  0.00  0.00    +0.000 A 
ATOM     20  C   UNL     1       1.995   4.199  18.074  0.00  0.00    +0.000 A 
ATOM     21  C   UNL     1       1.400   2.935  18.051  0.00  0.00    +0.000 A 
ATOM     22  C   UNL     1       1.199   2.234  19.241  0.00  0.00    +0.000 A 
ATOM     23  C   UNL     1       1.547   2.818  20.458  0.00  0.00    +0.000 A 
ATOM     24  C   UNL     1       2.111   4.090  20.480  0.00  0.00    +0.000 A 
ATOM     25  F   UNL     1       2.390   4.637  21.672  0.00  0.00    +0.000 F 
ENDBRANCH  17  19
ENDBRANCH   6  17
TORSDOF 4
ENDMDL
MODEL 7
REMARK VINA RESULT:      -7.3      1.084      1.791
REMARK  Name = 
REMARK  4 active torsions:
REMARK  status: ('A' for Active; 'I' for Inactive)
REMARK    1  A    between atoms: N_1  and  C_2
REMARK    2  A    between atoms: N_5  and  C_6
REMARK    3  A    between atoms: C_13  and  C_14
REMARK    4  A    between atoms: C_14  and  C_16
REMARK                            x       y       z     vdW  Elec       q    Type
REMARK                         _______ _______ _______ _____ _____    ______ ____
ROOT
ATOM      1  C   UNL     1       1.699   7.958  20.328  0.00  0.00    +0.000 A 
ATOM      2  N   UNL     1       0.999   9.078  19.979  0.00  0.00    +0.000 NA
ATOM      3  C   UNL     1       1.120   9.323  18.695  0.00  0.00    +0.000 A 
ATOM      4  N   UNL     1       0.519  10.335  18.022  0.00  0.00    +0.000 N 
ATOM      5  S   UNL     1       2.167   8.233  17.868  0.00  0.00    +0.000 S 
ATOM      6  C   UNL     1       2.343   7.294  19.307  0.00  0.00    +0.000 A 
ATOM      7  H   UNL     1       0.800  10.473  17.059  0.00  0.00    +0.000 HD
ENDROOT
BRANCH   4   8
ATOM      8  C   UNL     1      -0.693  10.968  18.368  0.00  0.00    +0.000 A 
ATOM      9  C   UNL     1      -0.774  12.098  19.182  0.00  0.00    +0.000 A 
ATOM     10  C   UNL     1      -2.012  12.665  19.448  0.00  0.00    +0.000 A 
ATOM     11  N   UNL     1      -3.173  12.198  18.950  0.00  0.00    +0.000 NA
ATOM     12  C   UNL     1      -3.083  11.124  18.139  0.00  0.00    +0.000 A 
ATOM     13  C   UNL     1      -1.889  10.489  17.818  0.00  0.00    +0.000 A 
ENDBRANCH   4   8
BRANCH   1  14
ATOM     14  N   UNL     1       1.654   7.659  21.632  0.00  0.00    +0.000 N 
ATOM     15  H   UNL     1       1.839   8.413  22.287  0.00  0.00    +0.000 HD
ATOM     16  H   UNL     1       1.205   6.854  22.044  0.00  0.00    +0.000 HD
ENDBRANCH   1  14
BRANCH   6  17
ATOM     17  C   UNL     1       3.109   6.064  19.248  0.00  0.00    +0.000 C 
ATOM     18  O   UNL     1       4.339   6.028  19.178  0.00  0.00    +0.000 OA
BRANCH  17  19
ATOM     19  C   UNL     1       2.427   4.747  19.298  0.00  0.00    +0.000 A 
ATOM     20  C   UNL     1       2.010   4.154  18.096  0.00  0.00    +0.000 A 
ATOM     21  C   UNL     1       1.429   2.883  18.105  0.00  0.00    +0.000 A 
ATOM     22  C   UNL     1       1.260   2.200  19.309  0.00  0.00    +0.000 A 
ATOM     23  C   UNL     1       1.627   2.806  20.510  0.00  0.00    +0.000 A 
ATOM     24  C   UNL     1       2.178   4.085  20.500  0.00  0.00    +0.000 A 
ATOM     25  F   UNL     1       2.476   4.653  21.677  0.00  0.00    +0.000 F 
ENDBRANCH  17  19
ENDBRANCH   6  17
TORSDOF 4
ENDMDL
MODEL 8
REMARK VINA RESULT:      -7.3      5.017      7.650
REMARK  Name = 
REMARK  4 active torsions:
REMARK  status: ('A' for Active; 'I' for Inactive)
REMARK    1  A    between atoms: N_1  and  C_2
REMARK    2  A    between atoms: N_5  and  C_6
REMARK    3  A    between atoms: C_13  and  C_14
REMARK    4  A    between atoms: C_14  and  C_16
REMARK                            x       y       z     vdW  Elec       q    Type
REMARK                         _______ _______ _______ _____ _____    ______ ____
ROOT
ATOM      1  C   UNL     1       4.148   6.756  17.214  0.00  0.00    +0.000 A 
ATOM      2  N   UNL     1       5.079   6.300  16.324  0.00  0.00    +0.000 NA
ATOM      3  C   UNL     1       5.520   5.115  16.675  0.00  0.00    +0.000 A 
ATOM      4  N   UNL     1       6.417   4.367  15.987  0.00  0.00    +0.000 N 
ATOM      5  S   UNL     1       4.867   4.535  18.161  0.00  0.00    +0.000 S 
ATOM      6  C   UNL     1       3.822   5.908  18.250  0.00  0.00    +0.000 A 
ATOM      7  H   UNL     1       6.753   3.526  16.440  0.00  0.00    +0.000 HD
ENDROOT
BRANCH   4   8
ATOM      8  C   UNL     1       6.655   4.411  14.598  0.00  0.00    +0.000 A 
ATOM      9  C   UNL     1       7.662   5.175  14.006  0.00  0.00    +0.000 A 
ATOM     10  C   UNL     1       7.834   5.135  12.630  0.00  0.00    +0.000 A 
ATOM     11  N   UNL     1       7.086   4.379  11.802  0.00  0.00    +0.000 NA
ATOM     12  C   UNL     1       6.135   3.621  12.386  0.00  0.00    +0.000 A 
ATOM     13  C   UNL     1       5.890   3.597  13.753  0.00  0.00    +0.000 A 
ENDBRANCH   4   8
BRANCH   1  14
ATOM     14  N   UNL     1       3.674   7.979  16.943  0.00  0.00    +0.000 N 
ATOM     15  H   UNL     1       3.768   8.683  17.670  0.00  0.00    +0.000 HD
ATOM     16  H   UNL     1       3.478   8.353  16.027  0.00  0.00    +0.000 HD
ENDBRANCH   1  14
BRANCH   6  17
ATOM     17  C   UNL     1       2.858   5.983  19.330  0.00  0.00    +0.000 C 
ATOM     18  O   UNL     1       2.457   7.043  19.815  0.00  0.00    +0.000 OA
BRANCH  17  19
ATOM     19  C   UNL     1       2.268   4.748  19.903  0.00  0.00    +0.000 A 
ATOM     20  C   UNL     1       2.612   4.378  21.212  0.00  0.00    +0.000 A 
ATOM     21  C   UNL     1       2.020   3.259  21.804  0.00  0.00    +0.000 A 
ATOM     22  C   UNL     1       1.084   2.506  21.094  0.00  0.00    +0.000 A 
ATOM     23  C   UNL     1       0.777   2.841  19.776  0.00  0.00    +0.000 A 
ATOM     24  C   UNL     1       1.392   3.938  19.179  0.00  0.00    +0.000 A 
ATOM     25  F   UNL     1       1.106   4.203  17.897  0.00  0.00    +0.000 F 
ENDBRANCH  17  19
ENDBRANCH   6  17
TORSDOF 4
ENDMDL
MODEL 9
REMARK VINA RESULT:      -7.1      2.611      3.305
REMARK  Name = 
REMARK  4 active torsions:
REMARK  status: ('A' for Active; 'I' for Inactive)
REMARK    1  A    between atoms: N_1  and  C_2
REMARK    2  A    between atoms: N_5  and  C_6
REMARK    3  A    between atoms: C_13  and  C_14
REMARK    4  A    between atoms: C_14  and  C_16
REMARK                            x       y       z     vdW  Elec       q    Type
REMARK                         _______ _______ _______ _____ _____    ______ ____
ROOT
ATOM      1  C   UNL     1       2.303   6.624  19.976  0.00  0.00    +0.000 A 
ATOM      2  N   UNL     1       1.772   7.870  19.803  0.00  0.00    +0.000 NA
ATOM      3  C   UNL     1       2.135   8.378  18.649  0.00  0.00    +0.000 A 
ATOM      4  N   UNL     1       1.747   9.579  18.154  0.00  0.00    +0.000 N 
ATOM      5  S   UNL     1       3.214   7.378  17.751  0.00  0.00    +0.000 S 
ATOM      6  C   UNL     1       3.057   6.129  18.933  0.00  0.00    +0.000 A 
ATOM      7  H   UNL     1       2.203   9.892  17.305  0.00  0.00    +0.000 HD
ENDROOT
BRANCH   4   8
ATOM      8  C   UNL     1       0.552  10.264  18.456  0.00  0.00    +0.000 A 
ATOM      9  C   UNL     1      -0.685   9.957  17.886  0.00  0.00    +0.000 A 
ATOM     10  C   UNL     1      -1.811  10.672  18.263  0.00  0.00    +0.000 A 
ATOM     11  N   UNL     1      -1.799  11.661  19.179  0.00  0.00    +0.000 NA
ATOM     12  C   UNL     1      -0.606  11.930  19.748  0.00  0.00    +0.000 A 
ATOM     13  C   UNL     1       0.573  11.268  19.432  0.00  0.00    +0.000 A 
ENDBRANCH   4   8
BRANCH   1  14
ATOM     14  N   UNL     1       2.006   6.051  21.149  0.00  0.00    +0.000 N 
ATOM     15  H   UNL     1       2.111   5.042  21.210  0.00  0.00    +0.000 HD
ATOM     16  H   UNL     1       1.948   6.517  22.042  0.00  0.00    +0.000 HD
ENDBRANCH   1  14
BRANCH   6  17
ATOM     17  C   UNL     1       3.714   4.858  18.698  0.00  0.00    +0.000 C 
ATOM     18  O   UNL     1       3.205   3.766  18.962  0.00  0.00    +0.000 OA
BRANCH  17  19
ATOM     19  C   UNL     1       5.064   4.808  18.083  0.00  0.00    +0.000 A 
ATOM     20  C   UNL     1       6.168   5.231  18.839  0.00  0.00    +0.000 A 
ATOM     21  C   UNL     1       7.459   5.130  18.313  0.00  0.00    +0.000 A 
ATOM     22  C   UNL     1       7.654   4.609  17.033  0.00  0.00    +0.000 A 
ATOM     23  C   UNL     1       6.555   4.234  16.261  0.00  0.00    +0.000 A 
ATOM     24  C   UNL     1       5.269   4.365  16.776  0.00  0.00    +0.000 A 
ATOM     25  F   UNL     1       4.235   4.037  15.987  0.00  0.00    +0.000 F 
ENDBRANCH  17  19
ENDBRANCH   6  17
TORSDOF 4
ENDMDL
