MODEL 1
REMARK VINA RESULT:      -9.9      0.000      0.000
REMARK  Name = 
REMARK  10 active torsions:
REMARK  status: ('A' for Active; 'I' for Inactive)
REMARK    1  A    between atoms: C_1  and  C_2
REMARK    2  A    between atoms: C_2  and  C_3
REMARK    3  A    between atoms: C_2  and  C_4
REMARK    4  A    between atoms: C_7  and  C_8
REMARK    5  A    between atoms: C_8  and  N_9
REMARK    6  A    between atoms: C_13  and  N_14
REMARK    7  A    between atoms: N_14  and  C_15
REMARK    8  A    between atoms: C_17  and  O_18
REMARK    9  A    between atoms: C_20  and  O_21
REMARK   10  A    between atoms: C_22  and  C_23
REMARK                            x       y       z     vdW  Elec       q    Type
REMARK                         _______ _______ _______ _____ _____    ______ ____
ROOT
ATOM      1  C   UNL     1       2.822   4.692  19.874  0.00  0.00    +0.000 A 
ATOM      2  C   UNL     1       2.196   4.306  21.089  0.00  0.00    +0.000 A 
ATOM      3  C   UNL     1       1.506   3.125  21.214  0.00  0.00    +0.000 A 
ATOM      4  C   UNL     1       1.433   2.267  20.144  0.00  0.00    +0.000 A 
ATOM      5  C   UNL     1       2.094   2.576  18.938  0.00  0.00    +0.000 A 
ATOM      6  C   UNL     1       2.794   3.784  18.773  0.00  0.00    +0.000 A 
ENDROOT
BRANCH   6   7
ATOM      7  C   UNL     1       3.727   4.054  17.628  0.00  0.00    +0.000 C 
ATOM      8  O   UNL     1       3.261   3.813  16.510  0.00  0.00    +0.000 OA
ATOM      9  N   UNL     1       5.001   4.610  17.721  0.00  0.00    +0.000 N 
ATOM     10  C   UNL     1       5.495   5.247  16.515  0.00  0.00    +0.000 C 
ATOM     11  C   UNL     1       6.505   6.192  17.071  0.00  0.00    +0.000 A 
ATOM     12  C   UNL     1       6.517   7.572  17.036  0.00  0.00    +0.000 A 
ATOM     13  C   UNL     1       7.426   8.251  17.852  0.00  0.00    +0.000 A 
ATOM     14  C   UNL     1       8.371   7.536  18.599  0.00  0.00    +0.000 A 
ATOM     15  C   UNL     1       8.244   6.153  18.737  0.00  0.00    +0.000 A 
ATOM     16  C   UNL     1       7.154   5.553  18.123  0.00  0.00    +0.000 A 
ATOM     17  C   UNL     1       6.009   4.768  18.807  0.00  0.00    +0.000 C 
ENDBRANCH   6   7
BRANCH   1  18
ATOM     18  N   UNL     1       3.383   6.005  19.817  0.00  0.00    +0.000 N 
ATOM     19  H   UNL     1       4.224   6.082  20.398  0.00  0.00    +0.000 HD
BRANCH  18  24
ATOM     20  N   UNL     1       1.809   7.906  19.870  0.00  0.00    +0.000 N 
ATOM     21  N   UNL     1       1.240   8.787  19.000  0.00  0.00    +0.000 NA
ATOM     22  C   UNL     1       1.842   8.536  17.839  0.00  0.00    +0.000 A 
ATOM     23  C   UNL     1       2.785   7.515  17.948  0.00  0.00    +0.000 A 
ATOM     24  C   UNL     1       2.711   7.060  19.251  0.00  0.00    +0.000 A 
BRANCH  20  25
ATOM     25  C   UNL     1       1.491   8.066  21.287  0.00  0.00    +0.000 C 
BRANCH  25  29
ATOM     26  C   UNL     1      -0.836  11.557  22.478  0.00  0.00    +0.000 A 
ATOM     27  C   UNL     1      -0.986  10.315  23.106  0.00  0.00    +0.000 A 
ATOM     28  C   UNL     1      -0.225   9.212  22.706  0.00  0.00    +0.000 A 
ATOM     29  C   UNL     1       0.701   9.307  21.655  0.00  0.00    +0.000 A 
ATOM     30  C   UNL     1       0.904  10.570  21.080  0.00  0.00    +0.000 A 
ATOM     31  C   UNL     1       0.137  11.676  21.477  0.00  0.00    +0.000 A 
BRANCH  26  33
ATOM     32  C   UNL     1      -2.090  13.624  21.688  0.00  0.00    +0.000 C 
ATOM     33  C   UNL     1      -1.749  12.711  22.866  0.00  0.00    +0.000 C 
ATOM     34  C   UNL     1      -3.026  12.198  23.539  0.00  0.00    +0.000 C 
ENDBRANCH  26  33
ENDBRANCH  25  29
ENDBRANCH  20  25
ENDBRANCH  18  24
ENDBRANCH   1  18
BRANCH   3  35
ATOM     35  O   UNL     1       0.917   2.777  22.392  0.00  0.00    +0.000 OA
ATOM     36  H   UNL     1       0.555   1.874  22.310  0.00  0.00    +0.000 HD
ENDBRANCH   3  35
BRANCH   5  37
ATOM     37  O   UNL     1       2.079   1.602  17.982  0.00  0.00    +0.000 OA
ATOM     38  H   UNL     1       2.620   1.879  17.221  0.00  0.00    +0.000 HD
ENDBRANCH   5  37
TORSDOF 8
ENDMDL
MODEL 2
REMARK VINA RESULT:      -8.9      5.083      8.922
REMARK  Name = 
REMARK  10 active torsions:
REMARK  status: ('A' for Active; 'I' for Inactive)
REMARK    1  A    between atoms: C_1  and  C_2
REMARK    2  A    between atoms: C_2  and  C_3
REMARK    3  A    between atoms: C_2  and  C_4
REMARK    4  A    between atoms: C_7  and  C_8
REMARK    5  A    between atoms: C_8  and  N_9
REMARK    6  A    between atoms: C_13  and  N_14
REMARK    7  A    between atoms: N_14  and  C_15
REMARK    8  A    between atoms: C_17  and  O_18
REMARK    9  A    between atoms: C_20  and  O_21
REMARK   10  A    between atoms: C_22  and  C_23
REMARK                            x       y       z     vdW  Elec       q    Type
REMARK                         _______ _______ _______ _____ _____    ______ ____
ROOT
ATOM      1  C   UNL     1      -1.599  13.075  20.207  0.00  0.00    +0.000 A 
ATOM      2  C   UNL     1      -2.263  12.355  21.234  0.00  0.00    +0.000 A 
ATOM      3  C   UNL     1      -1.800  12.329  22.526  0.00  0.00    +0.000 A 
ATOM      4  C   UNL     1      -0.673  13.041  22.856  0.00  0.00    +0.000 A 
ATOM      5  C   UNL     1      -0.016  13.823  21.885  0.00  0.00    +0.000 A 
ATOM      6  C   UNL     1      -0.455  13.857  20.550  0.00  0.00    +0.000 A 
ENDROOT
BRANCH   6   7
ATOM      7  C   UNL     1       0.028  14.859  19.542  0.00  0.00    +0.000 C 
ATOM      8  O   UNL     1      -0.788  15.742  19.254  0.00  0.00    +0.000 OA
ATOM      9  N   UNL     1       1.305  14.916  18.987  0.00  0.00    +0.000 N 
ATOM     10  C   UNL     1       1.704  16.210  18.468  0.00  0.00    +0.000 C 
ATOM     11  C   UNL     1       3.190  16.104  18.517  0.00  0.00    +0.000 A 
ATOM     12  C   UNL     1       4.091  16.840  19.260  0.00  0.00    +0.000 A 
ATOM     13  C   UNL     1       5.411  16.388  19.346  0.00  0.00    +0.000 A 
ATOM     14  C   UNL     1       5.822  15.275  18.601  0.00  0.00    +0.000 A 
ATOM     15  C   UNL     1       4.870  14.463  17.984  0.00  0.00    +0.000 A 
ATOM     16  C   UNL     1       3.537  14.805  18.157  0.00  0.00    +0.000 A 
ATOM     17  C   UNL     1       2.432  13.955  18.830  0.00  0.00    +0.000 C 
ENDBRANCH   6   7
BRANCH   1  18
ATOM     18  N   UNL     1      -2.086  12.910  18.872  0.00  0.00    +0.000 N 
ATOM     19  H   UNL     1      -2.553  13.757  18.535  0.00  0.00    +0.000 HD
BRANCH  18  24
ATOM     20  N   UNL     1      -1.056  10.867  17.946  0.00  0.00    +0.000 N 
ATOM     21  N   UNL     1      -1.431   9.760  17.245  0.00  0.00    +0.000 NA
ATOM     22  C   UNL     1      -2.757   9.849  17.177  0.00  0.00    +0.000 A 
ATOM     23  C   UNL     1      -3.240  10.988  17.822  0.00  0.00    +0.000 A 
ATOM     24  C   UNL     1      -2.127  11.682  18.259  0.00  0.00    +0.000 A 
BRANCH  20  25
ATOM     25  C   UNL     1       0.344  10.955  18.357  0.00  0.00    +0.000 C 
BRANCH  25  29
ATOM     26  C   UNL     1       2.289   7.217  19.481  0.00  0.00    +0.000 A 
ATOM     27  C   UNL     1       2.392   7.749  18.191  0.00  0.00    +0.000 A 
ATOM     28  C   UNL     1       1.760   8.952  17.857  0.00  0.00    +0.000 A 
ATOM     29  C   UNL     1       0.990   9.657  18.797  0.00  0.00    +0.000 A 
ATOM     30  C   UNL     1       0.953   9.162  20.108  0.00  0.00    +0.000 A 
ATOM     31  C   UNL     1       1.582   7.953  20.443  0.00  0.00    +0.000 A 
BRANCH  26  33
ATOM     32  C   UNL     1       2.014   4.989  20.677  0.00  0.00    +0.000 C 
ATOM     33  C   UNL     1       2.901   5.859  19.786  0.00  0.00    +0.000 C 
ATOM     34  C   UNL     1       3.260   5.116  18.495  0.00  0.00    +0.000 C 
ENDBRANCH  26  33
ENDBRANCH  25  29
ENDBRANCH  20  25
ENDBRANCH  18  24
ENDBRANCH   1  18
BRANCH   3  35
ATOM     35  O   UNL     1      -2.459  11.633  23.494  0.00  0.00    +0.000 OA
ATOM     36  H   UNL     1      -1.806  11.146  24.033  0.00  0.00    +0.000 HD
ENDBRANCH   3  35
BRANCH   5  37
ATOM     37  O   UNL     1       1.011  14.600  22.339  0.00  0.00    +0.000 OA
ATOM     38  H   UNL     1       1.606  14.067  22.895  0.00  0.00    +0.000 HD
ENDBRANCH   5  37
TORSDOF 8
ENDMDL
MODEL 3
REMARK VINA RESULT:      -8.7      4.436     10.665
REMARK  Name = 
REMARK  10 active torsions:
REMARK  status: ('A' for Active; 'I' for Inactive)
REMARK    1  A    between atoms: C_1  and  C_2
REMARK    2  A    between atoms: C_2  and  C_3
REMARK    3  A    between atoms: C_2  and  C_4
REMARK    4  A    between atoms: C_7  and  C_8
REMARK    5  A    between atoms: C_8  and  N_9
REMARK    6  A    between atoms: C_13  and  N_14
REMARK    7  A    between atoms: N_14  and  C_15
REMARK    8  A    between atoms: C_17  and  O_18
REMARK    9  A    between atoms: C_20  and  O_21
REMARK   10  A    between atoms: C_22  and  C_23
REMARK                            x       y       z     vdW  Elec       q    Type
REMARK                         _______ _______ _______ _____ _____    ______ ____
ROOT
ATOM      1  C   UNL     1       0.297  11.973  19.111  0.00  0.00    +0.000 A 
ATOM      2  C   UNL     1       1.599  12.216  18.601  0.00  0.00    +0.000 A 
ATOM      3  C   UNL     1       2.063  13.486  18.356  0.00  0.00    +0.000 A 
ATOM      4  C   UNL     1       1.262  14.566  18.634  0.00  0.00    +0.000 A 
ATOM      5  C   UNL     1      -0.014  14.377  19.203  0.00  0.00    +0.000 A 
ATOM      6  C   UNL     1      -0.524  13.090  19.450  0.00  0.00    +0.000 A 
ENDROOT
BRANCH   6   7
ATOM      7  C   UNL     1      -1.744  12.826  20.285  0.00  0.00    +0.000 C 
ATOM      8  O   UNL     1      -1.611  13.068  21.490  0.00  0.00    +0.000 OA
ATOM      9  N   UNL     1      -2.991  12.422  19.813  0.00  0.00    +0.000 N 
ATOM     10  C   UNL     1      -4.115  12.725  20.678  0.00  0.00    +0.000 C 
ATOM     11  C   UNL     1      -5.244  12.733  19.705  0.00  0.00    +0.000 A 
ATOM     12  C   UNL     1      -6.069  13.778  19.338  0.00  0.00    +0.000 A 
ATOM     13  C   UNL     1      -6.885  13.620  18.214  0.00  0.00    +0.000 A 
ATOM     14  C   UNL     1      -6.936  12.387  17.550  0.00  0.00    +0.000 A 
ATOM     15  C   UNL     1      -5.991  11.403  17.841  0.00  0.00    +0.000 A 
ATOM     16  C   UNL     1      -5.021  11.714  18.784  0.00  0.00    +0.000 A 
ATOM     17  C   UNL     1      -3.490  11.774  18.568  0.00  0.00    +0.000 C 
ENDBRANCH   6   7
BRANCH   1  18
ATOM     18  N   UNL     1      -0.131  10.611  19.187  0.00  0.00    +0.000 N 
ATOM     19  H   UNL     1      -1.090  10.498  18.845  0.00  0.00    +0.000 HD
BRANCH  18  24
ATOM     20  N   UNL     1       1.367   8.654  19.331  0.00  0.00    +0.000 N 
ATOM     21  N   UNL     1       1.861   7.812  20.282  0.00  0.00    +0.000 NA
ATOM     22  C   UNL     1       1.441   8.334  21.432  0.00  0.00    +0.000 A 
ATOM     23  C   UNL     1       0.690   9.494  21.238  0.00  0.00    +0.000 A 
ATOM     24  C   UNL     1       0.586   9.659  19.869  0.00  0.00    +0.000 A 
BRANCH  20  25
ATOM     25  C   UNL     1       1.825   8.452  17.957  0.00  0.00    +0.000 C 
BRANCH  25  29
ATOM     26  C   UNL     1       4.764   5.291  17.335  0.00  0.00    +0.000 A 
ATOM     27  C   UNL     1       5.088   6.646  17.194  0.00  0.00    +0.000 A 
ATOM     28  C   UNL     1       4.127   7.640  17.402  0.00  0.00    +0.000 A 
ATOM     29  C   UNL     1       2.804   7.315  17.743  0.00  0.00    +0.000 A 
ATOM     30  C   UNL     1       2.501   5.964  17.959  0.00  0.00    +0.000 A 
ATOM     31  C   UNL     1       3.464   4.965  17.746  0.00  0.00    +0.000 A 
BRANCH  26  33
ATOM     32  C   UNL     1       5.865   3.901  15.512  0.00  0.00    +0.000 C 
ATOM     33  C   UNL     1       5.803   4.231  17.004  0.00  0.00    +0.000 C 
ATOM     34  C   UNL     1       7.185   4.636  17.524  0.00  0.00    +0.000 C 
ENDBRANCH  26  33
ENDBRANCH  25  29
ENDBRANCH  20  25
ENDBRANCH  18  24
ENDBRANCH   1  18
BRANCH   3  35
ATOM     35  O   UNL     1       3.318  13.692  17.869  0.00  0.00    +0.000 OA
ATOM     36  H   UNL     1       3.515  13.008  17.200  0.00  0.00    +0.000 HD
ENDBRANCH   3  35
BRANCH   5  37
ATOM     37  O   UNL     1      -0.678  15.511  19.570  0.00  0.00    +0.000 OA
ATOM     38  H   UNL     1      -1.625  15.421  19.357  0.00  0.00    +0.000 HD
ENDBRANCH   5  37
TORSDOF 8
ENDMDL
MODEL 4
REMARK VINA RESULT:      -8.6      4.518     10.453
REMARK  Name = 
REMARK  10 active torsions:
REMARK  status: ('A' for Active; 'I' for Inactive)
REMARK    1  A    between atoms: C_1  and  C_2
REMARK    2  A    between atoms: C_2  and  C_3
REMARK    3  A    between atoms: C_2  and  C_4
REMARK    4  A    between atoms: C_7  and  C_8
REMARK    5  A    between atoms: C_8  and  N_9
REMARK    6  A    between atoms: C_13  and  N_14
REMARK    7  A    between atoms: N_14  and  C_15
REMARK    8  A    between atoms: C_17  and  O_18
REMARK    9  A    between atoms: C_20  and  O_21
REMARK   10  A    between atoms: C_22  and  C_23
REMARK                            x       y       z     vdW  Elec       q    Type
REMARK                         _______ _______ _______ _____ _____    ______ ____
ROOT
ATOM      1  C   UNL     1       0.131  11.953  19.327  0.00  0.00    +0.000 A 
ATOM      2  C   UNL     1       1.442  12.093  18.800  0.00  0.00    +0.000 A 
ATOM      3  C   UNL     1       1.911  13.289  18.313  0.00  0.00    +0.000 A 
ATOM      4  C   UNL     1       1.105  14.400  18.356  0.00  0.00    +0.000 A 
ATOM      5  C   UNL     1      -0.180  14.325  18.929  0.00  0.00    +0.000 A 
ATOM      6  C   UNL     1      -0.695  13.113  19.421  0.00  0.00    +0.000 A 
ENDROOT
BRANCH   6   7
ATOM      7  C   UNL     1      -1.929  13.018  20.272  0.00  0.00    +0.000 C 
ATOM      8  O   UNL     1      -1.801  13.450  21.422  0.00  0.00    +0.000 OA
ATOM      9  N   UNL     1      -3.181  12.572  19.855  0.00  0.00    +0.000 N 
ATOM     10  C   UNL     1      -4.305  13.039  20.644  0.00  0.00    +0.000 C 
ATOM     11  C   UNL     1      -5.425  12.915  19.667  0.00  0.00    +0.000 A 
ATOM     12  C   UNL     1      -6.219  13.905  19.124  0.00  0.00    +0.000 A 
ATOM     13  C   UNL     1      -7.028  13.585  18.031  0.00  0.00    +0.000 A 
ATOM     14  C   UNL     1      -7.105  12.262  17.576  0.00  0.00    +0.000 A 
ATOM     15  C   UNL     1      -6.188  11.316  18.036  0.00  0.00    +0.000 A 
ATOM     16  C   UNL     1      -5.220  11.754  18.928  0.00  0.00    +0.000 A 
ATOM     17  C   UNL     1      -3.685  11.742  18.726  0.00  0.00    +0.000 C 
ENDBRANCH   6   7
BRANCH   1  18
ATOM     18  N   UNL     1      -0.298  10.632  19.666  0.00  0.00    +0.000 N 
ATOM     19  H   UNL     1      -1.022  10.295  19.025  0.00  0.00    +0.000 HD
BRANCH  18  24
ATOM     20  N   UNL     1       1.039   9.086  21.050  0.00  0.00    +0.000 N 
ATOM     21  N   UNL     1       1.064   8.620  22.330  0.00  0.00    +0.000 NA
ATOM     22  C   UNL     1       0.129   9.332  22.956  0.00  0.00    +0.000 A 
ATOM     23  C   UNL     1      -0.491  10.246  22.104  0.00  0.00    +0.000 A 
ATOM     24  C   UNL     1       0.054  10.034  20.851  0.00  0.00    +0.000 A 
BRANCH  20  25
ATOM     25  C   UNL     1       2.098   8.628  20.152  0.00  0.00    +0.000 C 
BRANCH  25  29
ATOM     26  C   UNL     1       1.926   4.512  18.723  0.00  0.00    +0.000 A 
ATOM     27  C   UNL     1       2.332   5.567  17.899  0.00  0.00    +0.000 A 
ATOM     28  C   UNL     1       2.381   6.879  18.383  0.00  0.00    +0.000 A 
ATOM     29  C   UNL     1       2.011   7.183  19.704  0.00  0.00    +0.000 A 
ATOM     30  C   UNL     1       1.679   6.114  20.548  0.00  0.00    +0.000 A 
ATOM     31  C   UNL     1       1.625   4.799  20.062  0.00  0.00    +0.000 A 
BRANCH  26  33
ATOM     32  C   UNL     1       3.125   2.388  18.002  0.00  0.00    +0.000 C 
ATOM     33  C   UNL     1       1.786   3.114  18.140  0.00  0.00    +0.000 C 
ATOM     34  C   UNL     1       0.799   2.274  18.958  0.00  0.00    +0.000 C 
ENDBRANCH  26  33
ENDBRANCH  25  29
ENDBRANCH  20  25
ENDBRANCH  18  24
ENDBRANCH   1  18
BRANCH   3  35
ATOM     35  O   UNL     1       3.174  13.398  17.816  0.00  0.00    +0.000 OA
ATOM     36  H   UNL     1       3.397  12.578  17.334  0.00  0.00    +0.000 HD
ENDBRANCH   3  35
BRANCH   5  37
ATOM     37  O   UNL     1      -0.851  15.508  19.051  0.00  0.00    +0.000 OA
ATOM     38  H   UNL     1      -0.999  15.707  19.992  0.00  0.00    +0.000 HD
ENDBRANCH   5  37
TORSDOF 8
ENDMDL
MODEL 5
REMARK VINA RESULT:      -8.6      2.512      8.503
REMARK  Name = 
REMARK  10 active torsions:
REMARK  status: ('A' for Active; 'I' for Inactive)
REMARK    1  A    between atoms: C_1  and  C_2
REMARK    2  A    between atoms: C_2  and  C_3
REMARK    3  A    between atoms: C_2  and  C_4
REMARK    4  A    between atoms: C_7  and  C_8
REMARK    5  A    between atoms: C_8  and  N_9
REMARK    6  A    between atoms: C_13  and  N_14
REMARK    7  A    between atoms: N_14  and  C_15
REMARK    8  A    between atoms: C_17  and  O_18
REMARK    9  A    between atoms: C_20  and  O_21
REMARK   10  A    between atoms: C_22  and  C_23
REMARK                            x       y       z     vdW  Elec       q    Type
REMARK                         _______ _______ _______ _____ _____    ______ ____
ROOT
ATOM      1  C   UNL     1       3.971   4.907  18.931  0.00  0.00    +0.000 A 
ATOM      2  C   UNL     1       4.094   3.495  18.998  0.00  0.00    +0.000 A 
ATOM      3  C   UNL     1       3.123   2.652  18.515  0.00  0.00    +0.000 A 
ATOM      4  C   UNL     1       2.003   3.180  17.921  0.00  0.00    +0.000 A 
ATOM      5  C   UNL     1       1.866   4.574  17.773  0.00  0.00    +0.000 A 
ATOM      6  C   UNL     1       2.835   5.464  18.271  0.00  0.00    +0.000 A 
ENDROOT
BRANCH   6   7
ATOM      7  C   UNL     1       2.883   6.923  17.919  0.00  0.00    +0.000 C 
ATOM      8  O   UNL     1       3.489   7.185  16.874  0.00  0.00    +0.000 OA
ATOM      9  N   UNL     1       2.252   7.956  18.609  0.00  0.00    +0.000 N 
ATOM     10  C   UNL     1       1.998   9.158  17.838  0.00  0.00    +0.000 C 
ATOM     11  C   UNL     1       0.868   9.764  18.599  0.00  0.00    +0.000 A 
ATOM     12  C   UNL     1      -0.430   9.999  18.191  0.00  0.00    +0.000 A 
ATOM     13  C   UNL     1      -1.383  10.332  19.157  0.00  0.00    +0.000 A 
ATOM     14  C   UNL     1      -0.994  10.526  20.490  0.00  0.00    +0.000 A 
ATOM     15  C   UNL     1       0.280  10.139  20.905  0.00  0.00    +0.000 A 
ATOM     16  C   UNL     1       1.106   9.555  19.954  0.00  0.00    +0.000 A 
ATOM     17  C   UNL     1       1.702   8.128  19.982  0.00  0.00    +0.000 C 
ENDBRANCH   6   7
BRANCH   1  18
ATOM     18  N   UNL     1       4.972   5.682  19.596  0.00  0.00    +0.000 N 
ATOM     19  H   UNL     1       4.555   6.414  20.180  0.00  0.00    +0.000 HD
BRANCH  18  24
ATOM     20  N   UNL     1       6.874   5.797  18.028  0.00  0.00    +0.000 N 
ATOM     21  N   UNL     1       8.209   5.523  18.018  0.00  0.00    +0.000 NA
ATOM     22  C   UNL     1       8.488   5.206  19.280  0.00  0.00    +0.000 A 
ATOM     23  C   UNL     1       7.361   5.275  20.099  0.00  0.00    +0.000 A 
ATOM     24  C   UNL     1       6.302   5.590  19.269  0.00  0.00    +0.000 A 
BRANCH  20  25
ATOM     25  C   UNL     1       6.300   6.369  16.811  0.00  0.00    +0.000 C 
BRANCH  25  29
ATOM     26  C   UNL     1       5.950   3.651  13.419  0.00  0.00    +0.000 A 
ATOM     27  C   UNL     1       7.056   4.494  13.585  0.00  0.00    +0.000 A 
ATOM     28  C   UNL     1       7.144   5.354  14.684  0.00  0.00    +0.000 A 
ATOM     29  C   UNL     1       6.124   5.414  15.647  0.00  0.00    +0.000 A 
ATOM     30  C   UNL     1       5.057   4.515  15.520  0.00  0.00    +0.000 A 
ATOM     31  C   UNL     1       4.964   3.654  14.415  0.00  0.00    +0.000 A 
BRANCH  26  33
ATOM     32  C   UNL     1       4.578   3.109  11.347  0.00  0.00    +0.000 C 
ATOM     33  C   UNL     1       5.835   2.801  12.163  0.00  0.00    +0.000 C 
ATOM     34  C   UNL     1       7.088   2.934  11.292  0.00  0.00    +0.000 C 
ENDBRANCH  26  33
ENDBRANCH  25  29
ENDBRANCH  20  25
ENDBRANCH  18  24
ENDBRANCH   1  18
BRANCH   3  35
ATOM     35  O   UNL     1       3.267   1.300  18.589  0.00  0.00    +0.000 OA
ATOM     36  H   UNL     1       3.394   0.945  17.688  0.00  0.00    +0.000 HD
ENDBRANCH   3  35
BRANCH   5  37
ATOM     37  O   UNL     1       0.788   4.996  17.050  0.00  0.00    +0.000 OA
ATOM     38  H   UNL     1       0.913   4.769  16.111  0.00  0.00    +0.000 HD
ENDBRANCH   5  37
TORSDOF 8
ENDMDL
MODEL 6
REMARK VINA RESULT:      -8.6      3.314      5.607
REMARK  Name = 
REMARK  10 active torsions:
REMARK  status: ('A' for Active; 'I' for Inactive)
REMARK    1  A    between atoms: C_1  and  C_2
REMARK    2  A    between atoms: C_2  and  C_3
REMARK    3  A    between atoms: C_2  and  C_4
REMARK    4  A    between atoms: C_7  and  C_8
REMARK    5  A    between atoms: C_8  and  N_9
REMARK    6  A    between atoms: C_13  and  N_14
REMARK    7  A    between atoms: N_14  and  C_15
REMARK    8  A    between atoms: C_17  and  O_18
REMARK    9  A    between atoms: C_20  and  O_21
REMARK   10  A    between atoms: C_22  and  C_23
REMARK                            x       y       z     vdW  Elec       q    Type
REMARK                         _______ _______ _______ _____ _____    ______ ____
ROOT
ATOM      1  C   UNL     1       0.206  10.303  19.854  0.00  0.00    +0.000 A 
ATOM      2  C   UNL     1      -0.337  10.811  21.063  0.00  0.00    +0.000 A 
ATOM      3  C   UNL     1      -0.144  10.186  22.271  0.00  0.00    +0.000 A 
ATOM      4  C   UNL     1       0.621   9.047  22.330  0.00  0.00    +0.000 A 
ATOM      5  C   UNL     1       1.235   8.542  21.167  0.00  0.00    +0.000 A 
ATOM      6  C   UNL     1       1.043   9.148  19.913  0.00  0.00    +0.000 A 
ENDROOT
BRANCH   6   7
ATOM      7  C   UNL     1       1.867   8.826  18.699  0.00  0.00    +0.000 C 
ATOM      8  O   UNL     1       2.231   9.808  18.043  0.00  0.00    +0.000 OA
ATOM      9  N   UNL     1       2.303   7.560  18.315  0.00  0.00    +0.000 N 
ATOM     10  C   UNL     1       3.471   7.536  17.455  0.00  0.00    +0.000 C 
ATOM     11  C   UNL     1       4.002   6.167  17.716  0.00  0.00    +0.000 A 
ATOM     12  C   UNL     1       5.205   5.794  18.282  0.00  0.00    +0.000 A 
ATOM     13  C   UNL     1       5.375   4.463  18.669  0.00  0.00    +0.000 A 
ATOM     14  C   UNL     1       4.382   3.516  18.384  0.00  0.00    +0.000 A 
ATOM     15  C   UNL     1       3.124   3.938  17.954  0.00  0.00    +0.000 A 
ATOM     16  C   UNL     1       2.917   5.306  17.844  0.00  0.00    +0.000 A 
ATOM     17  C   UNL     1       1.887   6.162  18.618  0.00  0.00    +0.000 C 
ENDBRANCH   6   7
BRANCH   1  18
ATOM     18  N   UNL     1      -0.183  10.951  18.640  0.00  0.00    +0.000 N 
ATOM     19  H   UNL     1       0.529  11.616  18.323  0.00  0.00    +0.000 HD
BRANCH  18  24
ATOM     20  N   UNL     1      -2.557  11.612  18.496  0.00  0.00    +0.000 N 
ATOM     21  N   UNL     1      -3.700  11.192  17.884  0.00  0.00    +0.000 NA
ATOM     22  C   UNL     1      -3.301  10.205  17.085  0.00  0.00    +0.000 A 
ATOM     23  C   UNL     1      -1.926   9.986  17.170  0.00  0.00    +0.000 A 
ATOM     24  C   UNL     1      -1.457  10.854  18.139  0.00  0.00    +0.000 A 
BRANCH  20  25
ATOM     25  C   UNL     1      -2.638  12.829  19.302  0.00  0.00    +0.000 C 
BRANCH  25  29
ATOM     26  C   UNL     1      -5.598  12.687  22.502  0.00  0.00    +0.000 A 
ATOM     27  C   UNL     1      -5.941  12.469  21.162  0.00  0.00    +0.000 A 
ATOM     28  C   UNL     1      -4.971  12.518  20.155  0.00  0.00    +0.000 A 
ATOM     29  C   UNL     1      -3.627  12.801  20.450  0.00  0.00    +0.000 A 
ATOM     30  C   UNL     1      -3.274  12.942  21.799  0.00  0.00    +0.000 A 
ATOM     31  C   UNL     1      -4.247  12.898  22.809  0.00  0.00    +0.000 A 
BRANCH  26  33
ATOM     32  C   UNL     1      -7.091  14.151  23.949  0.00  0.00    +0.000 C 
ATOM     33  C   UNL     1      -6.689  12.728  23.560  0.00  0.00    +0.000 C 
ATOM     34  C   UNL     1      -7.915  11.924  23.116  0.00  0.00    +0.000 C 
ENDBRANCH  26  33
ENDBRANCH  25  29
ENDBRANCH  20  25
ENDBRANCH  18  24
ENDBRANCH   1  18
BRANCH   3  35
ATOM     35  O   UNL     1      -0.674  10.696  23.418  0.00  0.00    +0.000 OA
ATOM     36  H   UNL     1      -0.068  10.505  24.159  0.00  0.00    +0.000 HD
ENDBRANCH   3  35
BRANCH   5  37
ATOM     37  O   UNL     1       2.085   7.489  21.349  0.00  0.00    +0.000 OA
ATOM     38  H   UNL     1       2.064   7.207  22.281  0.00  0.00    +0.000 HD
ENDBRANCH   5  37
TORSDOF 8
ENDMDL
MODEL 7
REMARK VINA RESULT:      -8.6      7.345     10.520
REMARK  Name = 
REMARK  10 active torsions:
REMARK  status: ('A' for Active; 'I' for Inactive)
REMARK    1  A    between atoms: C_1  and  C_2
REMARK    2  A    between atoms: C_2  and  C_3
REMARK    3  A    between atoms: C_2  and  C_4
REMARK    4  A    between atoms: C_7  and  C_8
REMARK    5  A    between atoms: C_8  and  N_9
REMARK    6  A    between atoms: C_13  and  N_14
REMARK    7  A    between atoms: N_14  and  C_15
REMARK    8  A    between atoms: C_17  and  O_18
REMARK    9  A    between atoms: C_20  and  O_21
REMARK   10  A    between atoms: C_22  and  C_23
REMARK                            x       y       z     vdW  Elec       q    Type
REMARK                         _______ _______ _______ _____ _____    ______ ____
ROOT
ATOM      1  C   UNL     1      -5.388  11.808  18.996  0.00  0.00    +0.000 A 
ATOM      2  C   UNL     1      -6.045  10.604  18.631  0.00  0.00    +0.000 A 
ATOM      3  C   UNL     1      -7.021  10.037  19.414  0.00  0.00    +0.000 A 
ATOM      4  C   UNL     1      -7.402  10.659  20.578  0.00  0.00    +0.000 A 
ATOM      5  C   UNL     1      -6.824  11.890  20.948  0.00  0.00    +0.000 A 
ATOM      6  C   UNL     1      -5.811  12.487  20.177  0.00  0.00    +0.000 A 
ENDROOT
BRANCH   6   7
ATOM      7  C   UNL     1      -5.348  13.903  20.367  0.00  0.00    +0.000 C 
ATOM      8  O   UNL     1      -6.114  14.764  19.922  0.00  0.00    +0.000 OA
ATOM      9  N   UNL     1      -4.204  14.308  21.052  0.00  0.00    +0.000 N 
ATOM     10  C   UNL     1      -4.224  15.669  21.551  0.00  0.00    +0.000 C 
ATOM     11  C   UNL     1      -3.231  15.593  22.661  0.00  0.00    +0.000 A 
ATOM     12  C   UNL     1      -3.425  15.774  24.016  0.00  0.00    +0.000 A 
ATOM     13  C   UNL     1      -2.405  15.392  24.892  0.00  0.00    +0.000 A 
ATOM     14  C   UNL     1      -1.178  14.940  24.388  0.00  0.00    +0.000 A 
ATOM     15  C   UNL     1      -1.059  14.623  23.034  0.00  0.00    +0.000 A 
ATOM     16  C   UNL     1      -2.193  14.763  22.247  0.00  0.00    +0.000 A 
ATOM     17  C   UNL     1      -2.932  13.652  21.463  0.00  0.00    +0.000 C 
ENDBRANCH   6   7
BRANCH   1  18
ATOM     18  N   UNL     1      -4.289  12.225  18.181  0.00  0.00    +0.000 N 
ATOM     19  H   UNL     1      -4.139  13.237  18.239  0.00  0.00    +0.000 HD
BRANCH  18  24
ATOM     20  N   UNL     1      -2.557  10.636  17.428  0.00  0.00    +0.000 N 
ATOM     21  N   UNL     1      -2.187   9.992  16.285  0.00  0.00    +0.000 NA
ATOM     22  C   UNL     1      -3.150  10.289  15.415  0.00  0.00    +0.000 A 
ATOM     23  C   UNL     1      -4.130  11.108  15.977  0.00  0.00    +0.000 A 
ATOM     24  C   UNL     1      -3.705  11.388  17.263  0.00  0.00    +0.000 A 
BRANCH  20  25
ATOM     25  C   UNL     1      -1.790  10.343  18.637  0.00  0.00    +0.000 C 
BRANCH  25  29
ATOM     26  C   UNL     1       0.769  13.625  19.941  0.00  0.00    +0.000 A 
ATOM     27  C   UNL     1      -0.006  13.704  18.778  0.00  0.00    +0.000 A 
ATOM     28  C   UNL     1      -0.821  12.638  18.384  0.00  0.00    +0.000 A 
ATOM     29  C   UNL     1      -0.878  11.449  19.129  0.00  0.00    +0.000 A 
ATOM     30  C   UNL     1      -0.161  11.402  20.334  0.00  0.00    +0.000 A 
ATOM     31  C   UNL     1       0.660  12.470  20.728  0.00  0.00    +0.000 A 
BRANCH  26  33
ATOM     32  C   UNL     1       2.842  14.329  21.234  0.00  0.00    +0.000 C 
ATOM     33  C   UNL     1       1.720  14.759  20.289  0.00  0.00    +0.000 C 
ATOM     34  C   UNL     1       2.297  15.400  19.023  0.00  0.00    +0.000 C 
ENDBRANCH  26  33
ENDBRANCH  25  29
ENDBRANCH  20  25
ENDBRANCH  18  24
ENDBRANCH   1  18
BRANCH   3  35
ATOM     35  O   UNL     1      -7.638   8.882  19.040  0.00  0.00    +0.000 OA
ATOM     36  H   UNL     1      -7.909   8.956  18.104  0.00  0.00    +0.000 HD
ENDBRANCH   3  35
BRANCH   5  37
ATOM     37  O   UNL     1      -7.363  12.496  22.046  0.00  0.00    +0.000 OA
ATOM     38  H   UNL     1      -6.787  13.228  22.333  0.00  0.00    +0.000 HD
ENDBRANCH   5  37
TORSDOF 8
ENDMDL
MODEL 8
REMARK VINA RESULT:      -8.5      4.285      9.211
REMARK  Name = 
REMARK  10 active torsions:
REMARK  status: ('A' for Active; 'I' for Inactive)
REMARK    1  A    between atoms: C_1  and  C_2
REMARK    2  A    between atoms: C_2  and  C_3
REMARK    3  A    between atoms: C_2  and  C_4
REMARK    4  A    between atoms: C_7  and  C_8
REMARK    5  A    between atoms: C_8  and  N_9
REMARK    6  A    between atoms: C_13  and  N_14
REMARK    7  A    between atoms: N_14  and  C_15
REMARK    8  A    between atoms: C_17  and  O_18
REMARK    9  A    between atoms: C_20  and  O_21
REMARK   10  A    between atoms: C_22  and  C_23
REMARK                            x       y       z     vdW  Elec       q    Type
REMARK                         _______ _______ _______ _____ _____    ______ ____
ROOT
ATOM      1  C   UNL     1      -0.962  11.001  18.552  0.00  0.00    +0.000 A 
ATOM      2  C   UNL     1      -1.365  10.247  17.419  0.00  0.00    +0.000 A 
ATOM      3  C   UNL     1      -2.668  10.218  16.985  0.00  0.00    +0.000 A 
ATOM      4  C   UNL     1      -3.618  10.960  17.643  0.00  0.00    +0.000 A 
ATOM      5  C   UNL     1      -3.253  11.775  18.734  0.00  0.00    +0.000 A 
ATOM      6  C   UNL     1      -1.932  11.813  19.212  0.00  0.00    +0.000 A 
ENDROOT
BRANCH   6   7
ATOM      7  C   UNL     1      -1.429  12.843  20.182  0.00  0.00    +0.000 C 
ATOM      8  O   UNL     1      -1.774  12.665  21.356  0.00  0.00    +0.000 OA
ATOM      9  N   UNL     1      -0.569  13.899  19.886  0.00  0.00    +0.000 N 
ATOM     10  C   UNL     1       0.178  14.431  21.010  0.00  0.00    +0.000 C 
ATOM     11  C   UNL     1       1.345  15.054  20.323  0.00  0.00    +0.000 A 
ATOM     12  C   UNL     1       2.683  14.727  20.412  0.00  0.00    +0.000 A 
ATOM     13  C   UNL     1       3.566  15.273  19.475  0.00  0.00    +0.000 A 
ATOM     14  C   UNL     1       3.108  16.213  18.543  0.00  0.00    +0.000 A 
ATOM     15  C   UNL     1       1.738  16.411  18.373  0.00  0.00    +0.000 A 
ATOM     16  C   UNL     1       0.884  15.637  19.146  0.00  0.00    +0.000 A 
ATOM     17  C   UNL     1      -0.168  14.619  18.646  0.00  0.00    +0.000 C 
ENDBRANCH   6   7
BRANCH   1  18
ATOM     18  N   UNL     1       0.386  10.838  18.999  0.00  0.00    +0.000 N 
ATOM     19  H   UNL     1       1.044  11.360  18.411  0.00  0.00    +0.000 HD
BRANCH  18  24
ATOM     20  N   UNL     1       1.426   8.719  19.723  0.00  0.00    +0.000 N 
ATOM     21  N   UNL     1       1.517   7.958  20.849  0.00  0.00    +0.000 NA
ATOM     22  C   UNL     1       0.937   8.696  21.792  0.00  0.00    +0.000 A 
ATOM     23  C   UNL     1       0.478   9.916  21.295  0.00  0.00    +0.000 A 
ATOM     24  C   UNL     1       0.735   9.898  19.936  0.00  0.00    +0.000 A 
BRANCH  20  25
ATOM     25  C   UNL     1       2.153   8.257  18.543  0.00  0.00    +0.000 C 
BRANCH  25  29
ATOM     26  C   UNL     1       3.395   4.077  18.637  0.00  0.00    +0.000 A 
ATOM     27  C   UNL     1       4.118   5.082  19.290  0.00  0.00    +0.000 A 
ATOM     28  C   UNL     1       3.696   6.415  19.246  0.00  0.00    +0.000 A 
ATOM     29  C   UNL     1       2.545   6.793  18.535  0.00  0.00    +0.000 A 
ATOM     30  C   UNL     1       1.781   5.775  17.948  0.00  0.00    +0.000 A 
ATOM     31  C   UNL     1       2.206   4.438  17.988  0.00  0.00    +0.000 A 
BRANCH  26  33
ATOM     32  C   UNL     1       4.468   2.201  19.977  0.00  0.00    +0.000 C 
ATOM     33  C   UNL     1       3.933   2.655  18.619  0.00  0.00    +0.000 C 
ATOM     34  C   UNL     1       2.876   1.675  18.101  0.00  0.00    +0.000 C 
ENDBRANCH  26  33
ENDBRANCH  25  29
ENDBRANCH  20  25
ENDBRANCH  18  24
ENDBRANCH   1  18
BRANCH   3  35
ATOM     35  O   UNL     1      -3.028   9.489  15.892  0.00  0.00    +0.000 OA
ATOM     36  H   UNL     1      -2.387   8.762  15.772  0.00  0.00    +0.000 HD
ENDBRANCH   3  35
BRANCH   5  37
ATOM     37  O   UNL     1      -4.237  12.578  19.235  0.00  0.00    +0.000 OA
ATOM     38  H   UNL     1      -4.479  12.282  20.131  0.00  0.00    +0.000 HD
ENDBRANCH   5  37
TORSDOF 8
ENDMDL
MODEL 9
REMARK VINA RESULT:      -8.5      3.974     10.223
REMARK  Name = 
REMARK  10 active torsions:
REMARK  status: ('A' for Active; 'I' for Inactive)
REMARK    1  A    between atoms: C_1  and  C_2
REMARK    2  A    between atoms: C_2  and  C_3
REMARK    3  A    between atoms: C_2  and  C_4
REMARK    4  A    between atoms: C_7  and  C_8
REMARK    5  A    between atoms: C_8  and  N_9
REMARK    6  A    between atoms: C_13  and  N_14
REMARK    7  A    between atoms: N_14  and  C_15
REMARK    8  A    between atoms: C_17  and  O_18
REMARK    9  A    between atoms: C_20  and  O_21
REMARK   10  A    between atoms: C_22  and  C_23
REMARK                            x       y       z     vdW  Elec       q    Type
REMARK                         _______ _______ _______ _____ _____    ______ ____
ROOT
ATOM      1  C   UNL     1      -1.116  11.020  18.078  0.00  0.00    +0.000 A 
ATOM      2  C   UNL     1      -1.615  10.141  17.081  0.00  0.00    +0.000 A 
ATOM      3  C   UNL     1      -2.952  10.065  16.774  0.00  0.00    +0.000 A 
ATOM      4  C   UNL     1      -3.844  10.881  17.427  0.00  0.00    +0.000 A 
ATOM      5  C   UNL     1      -3.388  11.816  18.378  0.00  0.00    +0.000 A 
ATOM      6  C   UNL     1      -2.029  11.906  18.726  0.00  0.00    +0.000 A 
ENDROOT
BRANCH   6   7
ATOM      7  C   UNL     1      -1.447  13.040  19.520  0.00  0.00    +0.000 C 
ATOM      8  O   UNL     1      -0.601  13.714  18.922  0.00  0.00    +0.000 OA
ATOM      9  N   UNL     1      -1.832  13.427  20.802  0.00  0.00    +0.000 N 
ATOM     10  C   UNL     1      -1.534  14.802  21.156  0.00  0.00    +0.000 C 
ATOM     11  C   UNL     1      -2.532  15.053  22.235  0.00  0.00    +0.000 A 
ATOM     12  C   UNL     1      -3.582  15.949  22.257  0.00  0.00    +0.000 A 
ATOM     13  C   UNL     1      -4.544  15.823  23.264  0.00  0.00    +0.000 A 
ATOM     14  C   UNL     1      -4.375  14.876  24.283  0.00  0.00    +0.000 A 
ATOM     15  C   UNL     1      -3.397  13.890  24.158  0.00  0.00    +0.000 A 
ATOM     16  C   UNL     1      -2.637  13.893  22.997  0.00  0.00    +0.000 A 
ATOM     17  C   UNL     1      -2.548  12.773  21.932  0.00  0.00    +0.000 C 
ENDBRANCH   6   7
BRANCH   1  18
ATOM     18  N   UNL     1       0.269  10.907  18.415  0.00  0.00    +0.000 N 
ATOM     19  H   UNL     1       0.862  11.398  17.739  0.00  0.00    +0.000 HD
BRANCH  18  24
ATOM     20  N   UNL     1       1.509   8.919  19.190  0.00  0.00    +0.000 N 
ATOM     21  N   UNL     1       1.686   8.208  20.340  0.00  0.00    +0.000 NA
ATOM     22  C   UNL     1       1.053   8.922  21.267  0.00  0.00    +0.000 A 
ATOM     23  C   UNL     1       0.477  10.077  20.738  0.00  0.00    +0.000 A 
ATOM     24  C   UNL     1       0.715  10.035  19.377  0.00  0.00    +0.000 A 
BRANCH  20  25
ATOM     25  C   UNL     1       2.260   8.485  18.014  0.00  0.00    +0.000 C 
BRANCH  25  29
ATOM     26  C   UNL     1       3.600   4.336  18.119  0.00  0.00    +0.000 A 
ATOM     27  C   UNL     1       2.282   4.699  18.419  0.00  0.00    +0.000 A 
ATOM     28  C   UNL     1       1.877   6.037  18.375  0.00  0.00    +0.000 A 
ATOM     29  C   UNL     1       2.780   7.061  18.045  0.00  0.00    +0.000 A 
ATOM     30  C   UNL     1       4.078   6.688  17.670  0.00  0.00    +0.000 A 
ATOM     31  C   UNL     1       4.486   5.346  17.719  0.00  0.00    +0.000 A 
BRANCH  26  33
ATOM     32  C   UNL     1       4.339   2.506  19.723  0.00  0.00    +0.000 C 
ATOM     33  C   UNL     1       4.035   2.887  18.274  0.00  0.00    +0.000 C 
ATOM     34  C   UNL     1       2.997   1.935  17.672  0.00  0.00    +0.000 C 
ENDBRANCH  26  33
ENDBRANCH  25  29
ENDBRANCH  20  25
ENDBRANCH  18  24
ENDBRANCH   1  18
BRANCH   3  35
ATOM     35  O   UNL     1      -3.404   9.215  15.811  0.00  0.00    +0.000 OA
ATOM     36  H   UNL     1      -4.261   8.842  16.095  0.00  0.00    +0.000 HD
ENDBRANCH   3  35
BRANCH   5  37
ATOM     37  O   UNL     1      -4.328  12.674  18.871  0.00  0.00    +0.000 OA
ATOM     38  H   UNL     1      -4.533  13.355  18.206  0.00  0.00    +0.000 HD
ENDBRANCH   5  37
TORSDOF 8
ENDMDL
