MODEL 1
REMARK VINA RESULT:      -8.3      0.000      0.000
REMARK  Name = 
REMARK  6 active torsions:
REMARK  status: ('A' for Active; 'I' for Inactive)
REMARK    1  A    between atoms: C_1  and  C_2
REMARK    2  A    between atoms: C_5  and  C_6
REMARK    3  A    between atoms: C_6  and  N_7
REMARK    4  A    between atoms: C_10  and  C_11
REMARK    5  A    between atoms: C_11  and  O_12
REMARK    6  A    between atoms: O_12  and  C_13
REMARK                            x       y       z     vdW  Elec       q    Type
REMARK                         _______ _______ _______ _____ _____    ______ ____
ROOT
ATOM      1  O   UNL     1       1.237   6.431  20.802  0.00  0.00    +0.000 OA
ENDROOT
BRANCH   1   2
ATOM      2  C   UNL     1       1.665   7.367  19.880  0.00  0.00    +0.000 A 
ATOM      3  C   UNL     1       2.607   7.068  18.888  0.00  0.00    +0.000 A 
ATOM      4  C   UNL     1       2.930   8.015  17.924  0.00  0.00    +0.000 A 
ATOM      5  C   UNL     1       2.307   9.259  17.943  0.00  0.00    +0.000 A 
ATOM      6  C   UNL     1       1.375   9.597  18.913  0.00  0.00    +0.000 A 
ATOM      7  N   UNL     1       0.842  10.820  18.839  0.00  0.00    +0.000 NA
ATOM      8  C   UNL     1      -0.032  11.164  19.781  0.00  0.00    +0.000 A 
ATOM      9  N   UNL     1      -0.572  12.431  19.707  0.00  0.00    +0.000 N 
ATOM     10  N   UNL     1      -0.445  10.368  20.764  0.00  0.00    +0.000 NA
ATOM     11  C   UNL     1       0.095   9.142  20.821  0.00  0.00    +0.000 A 
ATOM     12  N   UNL     1      -0.293   8.401  21.940  0.00  0.00    +0.000 N 
ATOM     13  C   UNL     1       1.045   8.660  19.902  0.00  0.00    +0.000 A 
ATOM     14  H   UNL     1      -0.523  12.774  18.759  0.00  0.00    +0.000 HD
ATOM     15  H   UNL     1      -1.469  12.455  20.170  0.00  0.00    +0.000 HD
ATOM     16  H   UNL     1      -1.066   8.874  22.395  0.00  0.00    +0.000 HD
ATOM     17  H   UNL     1      -0.470   7.430  21.699  0.00  0.00    +0.000 HD
ENDBRANCH   1   2
BRANCH   1  18
ATOM     18  C   UNL     1       2.184   5.415  21.157  0.00  0.00    +0.000 C 
BRANCH  18  22
ATOM     19  N   UNL     1       3.103   2.965  18.575  0.00  0.00    +0.000 NA
ATOM     20  C   UNL     1       3.685   2.927  19.921  0.00  0.00    +0.000 C 
ATOM     21  C   UNL     1       2.624   2.877  21.021  0.00  0.00    +0.000 C 
ATOM     22  C   UNL     1       1.604   4.011  20.888  0.00  0.00    +0.000 C 
ATOM     23  C   UNL     1       0.993   3.935  19.483  0.00  0.00    +0.000 C 
ATOM     24  C   UNL     1       2.063   3.975  18.385  0.00  0.00    +0.000 C 
BRANCH  19  25
ATOM     25  C   UNL     1       4.125   2.985  17.510  0.00  0.00    +0.000 C 
BRANCH  25  30
ATOM     26  C   UNL     1       7.564   7.711  17.301  0.00  0.00    +0.000 C 
ATOM     27  C   UNL     1       6.702   6.483  17.333  0.00  0.00    +0.000 A 
ATOM     28  C   UNL     1       5.816   6.198  16.290  0.00  0.00    +0.000 A 
ATOM     29  C   UNL     1       4.996   5.067  16.347  0.00  0.00    +0.000 A 
ATOM     30  C   UNL     1       5.043   4.193  17.445  0.00  0.00    +0.000 A 
ATOM     31  C   UNL     1       5.937   4.483  18.485  0.00  0.00    +0.000 A 
ATOM     32  C   UNL     1       6.757   5.614  18.430  0.00  0.00    +0.000 A 
ENDBRANCH  25  30
ENDBRANCH  19  25
ENDBRANCH  18  22
ENDBRANCH   1  18
TORSDOF 5
ENDMDL
MODEL 2
REMARK VINA RESULT:      -8.1      0.571      1.025
REMARK  Name = 
REMARK  6 active torsions:
REMARK  status: ('A' for Active; 'I' for Inactive)
REMARK    1  A    between atoms: C_1  and  C_2
REMARK    2  A    between atoms: C_5  and  C_6
REMARK    3  A    between atoms: C_6  and  N_7
REMARK    4  A    between atoms: C_10  and  C_11
REMARK    5  A    between atoms: C_11  and  O_12
REMARK    6  A    between atoms: O_12  and  C_13
REMARK                            x       y       z     vdW  Elec       q    Type
REMARK                         _______ _______ _______ _____ _____    ______ ____
ROOT
ATOM      1  O   UNL     1       1.149   6.651  20.585  0.00  0.00    +0.000 OA
ENDROOT
BRANCH   1   2
ATOM      2  C   UNL     1       1.508   7.693  19.751  0.00  0.00    +0.000 A 
ATOM      3  C   UNL     1       2.396   7.528  18.682  0.00  0.00    +0.000 A 
ATOM      4  C   UNL     1       2.648   8.583  17.813  0.00  0.00    +0.000 A 
ATOM      5  C   UNL     1       2.007   9.802  18.006  0.00  0.00    +0.000 A 
ATOM      6  C   UNL     1       1.127  10.010  19.057  0.00  0.00    +0.000 A 
ATOM      7  N   UNL     1       0.570  11.221  19.151  0.00  0.00    +0.000 NA
ATOM      8  C   UNL     1      -0.254  11.439  20.172  0.00  0.00    +0.000 A 
ATOM      9  N   UNL     1      -0.818  12.694  20.270  0.00  0.00    +0.000 N 
ATOM     10  N   UNL     1      -0.597  10.529  21.081  0.00  0.00    +0.000 NA
ATOM     11  C   UNL     1      -0.035   9.317  20.971  0.00  0.00    +0.000 A 
ATOM     12  N   UNL     1      -0.346   8.448  22.019  0.00  0.00    +0.000 N 
ATOM     13  C   UNL     1       0.869   8.962  19.952  0.00  0.00    +0.000 A 
ATOM     14  H   UNL     1      -0.829  13.141  19.365  0.00  0.00    +0.000 HD
ATOM     15  H   UNL     1      -1.687  12.645  20.782  0.00  0.00    +0.000 HD
ATOM     16  H   UNL     1      -1.099   8.849  22.566  0.00  0.00    +0.000 HD
ATOM     17  H   UNL     1      -0.520   7.505  21.681  0.00  0.00    +0.000 HD
ENDBRANCH   1   2
BRANCH   1  18
ATOM     18  C   UNL     1       2.177   5.699  20.884  0.00  0.00    +0.000 C 
BRANCH  18  22
ATOM     19  N   UNL     1       3.436   3.340  18.361  0.00  0.00    +0.000 NA
ATOM     20  C   UNL     1       3.915   3.319  19.747  0.00  0.00    +0.000 C 
ATOM     21  C   UNL     1       2.777   3.193  20.762  0.00  0.00    +0.000 C 
ATOM     22  C   UNL     1       1.705   4.267  20.560  0.00  0.00    +0.000 C 
ATOM     23  C   UNL     1       1.208   4.172  19.111  0.00  0.00    +0.000 C 
ATOM     24  C   UNL     1       2.354   4.288  18.099  0.00  0.00    +0.000 C 
BRANCH  19  25
ATOM     25  C   UNL     1       4.533   3.434  17.378  0.00  0.00    +0.000 C 
BRANCH  25  30
ATOM     26  C   UNL     1       8.036   8.114  17.523  0.00  0.00    +0.000 C 
ATOM     27  C   UNL     1       7.127   6.920  17.517  0.00  0.00    +0.000 A 
ATOM     28  C   UNL     1       7.487   5.738  18.171  0.00  0.00    +0.000 A 
ATOM     29  C   UNL     1       6.645   4.622  18.132  0.00  0.00    +0.000 A 
ATOM     30  C   UNL     1       5.424   4.661  17.440  0.00  0.00    +0.000 A 
ATOM     31  C   UNL     1       5.067   5.852  16.791  0.00  0.00    +0.000 A 
ATOM     32  C   UNL     1       5.909   6.968  16.829  0.00  0.00    +0.000 A 
ENDBRANCH  25  30
ENDBRANCH  19  25
ENDBRANCH  18  22
ENDBRANCH   1  18
TORSDOF 5
ENDMDL
MODEL 3
REMARK VINA RESULT:      -8.0      1.364      2.230
REMARK  Name = 
REMARK  6 active torsions:
REMARK  status: ('A' for Active; 'I' for Inactive)
REMARK    1  A    between atoms: C_1  and  C_2
REMARK    2  A    between atoms: C_5  and  C_6
REMARK    3  A    between atoms: C_6  and  N_7
REMARK    4  A    between atoms: C_10  and  C_11
REMARK    5  A    between atoms: C_11  and  O_12
REMARK    6  A    between atoms: O_12  and  C_13
REMARK                            x       y       z     vdW  Elec       q    Type
REMARK                         _______ _______ _______ _____ _____    ______ ____
ROOT
ATOM      1  O   UNL     1       1.694   6.695  19.803  0.00  0.00    +0.000 OA
ENDROOT
BRANCH   1   2
ATOM      2  C   UNL     1       1.230   7.886  20.330  0.00  0.00    +0.000 A 
ATOM      3  C   UNL     1       0.630   7.966  21.591  0.00  0.00    +0.000 A 
ATOM      4  C   UNL     1       0.271   9.202  22.116  0.00  0.00    +0.000 A 
ATOM      5  C   UNL     1       0.519  10.360  21.385  0.00  0.00    +0.000 A 
ATOM      6  C   UNL     1       1.104  10.323  20.128  0.00  0.00    +0.000 A 
ATOM      7  N   UNL     1       1.292  11.493  19.513  0.00  0.00    +0.000 NA
ATOM      8  C   UNL     1       1.827  11.466  18.295  0.00  0.00    +0.000 A 
ATOM      9  N   UNL     1       2.009  12.677  17.660  0.00  0.00    +0.000 N 
ATOM     10  N   UNL     1       2.226  10.365  17.664  0.00  0.00    +0.000 NA
ATOM     11  C   UNL     1       2.035   9.198  18.296  0.00  0.00    +0.000 A 
ATOM     12  N   UNL     1       2.368   8.076  17.533  0.00  0.00    +0.000 N 
ATOM     13  C   UNL     1       1.462   9.085  19.576  0.00  0.00    +0.000 A 
ATOM     14  H   UNL     1       2.067  13.420  18.340  0.00  0.00    +0.000 HD
ATOM     15  H   UNL     1       2.751  12.603  16.979  0.00  0.00    +0.000 HD
ATOM     16  H   UNL     1       2.874   8.378  16.708  0.00  0.00    +0.000 HD
ATOM     17  H   UNL     1       2.845   7.375  18.092  0.00  0.00    +0.000 HD
ENDBRANCH   1   2
BRANCH   1  18
ATOM     18  C   UNL     1       2.200   5.743  20.747  0.00  0.00    +0.000 C 
BRANCH  18  22
ATOM     19  N   UNL     1       3.519   3.405  18.236  0.00  0.00    +0.000 NA
ATOM     20  C   UNL     1       3.955   3.364  19.636  0.00  0.00    +0.000 C 
ATOM     21  C   UNL     1       2.786   3.234  20.613  0.00  0.00    +0.000 C 
ATOM     22  C   UNL     1       1.728   4.318  20.392  0.00  0.00    +0.000 C 
ATOM     23  C   UNL     1       1.275   4.244  18.927  0.00  0.00    +0.000 C 
ATOM     24  C   UNL     1       2.453   4.365  17.953  0.00  0.00    +0.000 C 
BRANCH  19  25
ATOM     25  C   UNL     1       4.647   3.502  17.289  0.00  0.00    +0.000 C 
BRANCH  25  30
ATOM     26  C   UNL     1       8.020   8.254  17.777  0.00  0.00    +0.000 C 
ATOM     27  C   UNL     1       7.165   7.031  17.620  0.00  0.00    +0.000 A 
ATOM     28  C   UNL     1       5.948   7.087  16.935  0.00  0.00    +0.000 A 
ATOM     29  C   UNL     1       5.146   5.948  16.822  0.00  0.00    +0.000 A 
ATOM     30  C   UNL     1       5.541   4.725  17.390  0.00  0.00    +0.000 A 
ATOM     31  C   UNL     1       6.765   4.676  18.071  0.00  0.00    +0.000 A 
ATOM     32  C   UNL     1       7.568   5.816  18.185  0.00  0.00    +0.000 A 
ENDBRANCH  25  30
ENDBRANCH  19  25
ENDBRANCH  18  22
ENDBRANCH   1  18
TORSDOF 5
ENDMDL
MODEL 4
REMARK VINA RESULT:      -8.0      2.804      7.325
REMARK  Name = 
REMARK  6 active torsions:
REMARK  status: ('A' for Active; 'I' for Inactive)
REMARK    1  A    between atoms: C_1  and  C_2
REMARK    2  A    between atoms: C_5  and  C_6
REMARK    3  A    between atoms: C_6  and  N_7
REMARK    4  A    between atoms: C_10  and  C_11
REMARK    5  A    between atoms: C_11  and  O_12
REMARK    6  A    between atoms: O_12  and  C_13
REMARK                            x       y       z     vdW  Elec       q    Type
REMARK                         _______ _______ _______ _____ _____    ______ ____
ROOT
ATOM      1  O   UNL     1       4.149   3.319  17.898  0.00  0.00    +0.000 OA
ENDROOT
BRANCH   1   2
ATOM      2  C   UNL     1       5.196   4.218  17.967  0.00  0.00    +0.000 A 
ATOM      3  C   UNL     1       5.656   4.745  19.179  0.00  0.00    +0.000 A 
ATOM      4  C   UNL     1       6.775   5.569  19.203  0.00  0.00    +0.000 A 
ATOM      5  C   UNL     1       7.442   5.861  18.017  0.00  0.00    +0.000 A 
ATOM      6  C   UNL     1       7.014   5.366  16.794  0.00  0.00    +0.000 A 
ATOM      7  N   UNL     1       7.726   5.712  15.718  0.00  0.00    +0.000 NA
ATOM      8  C   UNL     1       7.307   5.265  14.537  0.00  0.00    +0.000 A 
ATOM      9  N   UNL     1       8.039   5.634  13.428  0.00  0.00    +0.000 N 
ATOM     10  N   UNL     1       6.259   4.466  14.354  0.00  0.00    +0.000 NA
ATOM     11  C   UNL     1       5.558   4.123  15.443  0.00  0.00    +0.000 A 
ATOM     12  N   UNL     1       4.406   3.380  15.169  0.00  0.00    +0.000 N 
ATOM     13  C   UNL     1       5.879   4.543  16.747  0.00  0.00    +0.000 A 
ATOM     14  H   UNL     1       8.984   5.867  13.698  0.00  0.00    +0.000 HD
ATOM     15  H   UNL     1       7.914   4.959  12.688  0.00  0.00    +0.000 HD
ATOM     16  H   UNL     1       4.431   3.082  14.200  0.00  0.00    +0.000 HD
ATOM     17  H   UNL     1       4.279   2.630  15.843  0.00  0.00    +0.000 HD
ENDBRANCH   1   2
BRANCH   1  18
ATOM     18  C   UNL     1       3.487   3.027  19.135  0.00  0.00    +0.000 C 
BRANCH  18  22
ATOM     19  N   UNL     1       1.744   6.238  19.538  0.00  0.00    +0.000 NA
ATOM     20  C   UNL     1       2.155   5.740  18.221  0.00  0.00    +0.000 C 
ATOM     21  C   UNL     1       1.621   4.337  17.928  0.00  0.00    +0.000 C 
ATOM     22  C   UNL     1       1.980   3.343  19.035  0.00  0.00    +0.000 C 
ATOM     23  C   UNL     1       1.452   3.903  20.363  0.00  0.00    +0.000 C 
ATOM     24  C   UNL     1       1.982   5.314  20.646  0.00  0.00    +0.000 C 
BRANCH  19  25
ATOM     25  C   UNL     1       2.233   7.603  19.812  0.00  0.00    +0.000 C 
BRANCH  25  30
ATOM     26  C   UNL     1      -1.237  11.286  22.743  0.00  0.00    +0.000 C 
ATOM     27  C   UNL     1      -0.369  10.317  21.997  0.00  0.00    +0.000 A 
ATOM     28  C   UNL     1       0.452   9.414  22.679  0.00  0.00    +0.000 A 
ATOM     29  C   UNL     1       1.280   8.536  21.973  0.00  0.00    +0.000 A 
ATOM     30  C   UNL     1       1.307   8.539  20.569  0.00  0.00    +0.000 A 
ATOM     31  C   UNL     1       0.477   9.444  19.892  0.00  0.00    +0.000 A 
ATOM     32  C   UNL     1      -0.350  10.322  20.597  0.00  0.00    +0.000 A 
ENDBRANCH  25  30
ENDBRANCH  19  25
ENDBRANCH  18  22
ENDBRANCH   1  18
TORSDOF 5
ENDMDL
MODEL 5
REMARK VINA RESULT:      -7.9      2.640      7.403
REMARK  Name = 
REMARK  6 active torsions:
REMARK  status: ('A' for Active; 'I' for Inactive)
REMARK    1  A    between atoms: C_1  and  C_2
REMARK    2  A    between atoms: C_5  and  C_6
REMARK    3  A    between atoms: C_6  and  N_7
REMARK    4  A    between atoms: C_10  and  C_11
REMARK    5  A    between atoms: C_11  and  O_12
REMARK    6  A    between atoms: O_12  and  C_13
REMARK                            x       y       z     vdW  Elec       q    Type
REMARK                         _______ _______ _______ _____ _____    ______ ____
ROOT
ATOM      1  O   UNL     1       5.270   3.609  18.954  0.00  0.00    +0.000 OA
ENDROOT
BRANCH   1   2
ATOM      2  C   UNL     1       6.044   4.629  18.436  0.00  0.00    +0.000 A 
ATOM      3  C   UNL     1       6.645   5.601  19.243  0.00  0.00    +0.000 A 
ATOM      4  C   UNL     1       7.494   6.548  18.683  0.00  0.00    +0.000 A 
ATOM      5  C   UNL     1       7.751   6.520  17.316  0.00  0.00    +0.000 A 
ATOM      6  C   UNL     1       7.169   5.579  16.479  0.00  0.00    +0.000 A 
ATOM      7  N   UNL     1       7.482   5.646  15.182  0.00  0.00    +0.000 NA
ATOM      8  C   UNL     1       6.907   4.766  14.367  0.00  0.00    +0.000 A 
ATOM      9  N   UNL     1       7.224   4.845  13.027  0.00  0.00    +0.000 N 
ATOM     10  N   UNL     1       6.078   3.799  14.754  0.00  0.00    +0.000 NA
ATOM     11  C   UNL     1       5.778   3.741  16.060  0.00  0.00    +0.000 A 
ATOM     12  N   UNL     1       4.817   2.779  16.381  0.00  0.00    +0.000 N 
ATOM     13  C   UNL     1       6.299   4.624  17.023  0.00  0.00    +0.000 A 
ATOM     14  H   UNL     1       8.118   5.300  12.910  0.00  0.00    +0.000 HD
ATOM     15  H   UNL     1       7.090   3.949  12.584  0.00  0.00    +0.000 HD
ATOM     16  H   UNL     1       4.672   2.178  15.577  0.00  0.00    +0.000 HD
ATOM     17  H   UNL     1       5.051   2.293  17.241  0.00  0.00    +0.000 HD
ENDBRANCH   1   2
BRANCH   1  18
ATOM     18  C   UNL     1       4.178   4.008  19.792  0.00  0.00    +0.000 C 
BRANCH  18  22
ATOM     19  N   UNL     1       1.781   6.785  20.019  0.00  0.00    +0.000 NA
ATOM     20  C   UNL     1       2.917   6.817  19.092  0.00  0.00    +0.000 C 
ATOM     21  C   UNL     1       2.958   5.599  18.168  0.00  0.00    +0.000 C 
ATOM     22  C   UNL     1       2.916   4.283  18.950  0.00  0.00    +0.000 C 
ATOM     23  C   UNL     1       1.663   4.301  19.837  0.00  0.00    +0.000 C 
ATOM     24  C   UNL     1       1.622   5.530  20.753  0.00  0.00    +0.000 C 
BRANCH  19  25
ATOM     25  C   UNL     1       1.721   7.973  20.893  0.00  0.00    +0.000 C 
BRANCH  25  30
ATOM     26  C   UNL     1      -1.808  12.306  19.170  0.00  0.00    +0.000 C 
ATOM     27  C   UNL     1      -0.877  11.215  19.607  0.00  0.00    +0.000 A 
ATOM     28  C   UNL     1      -0.153  10.468  18.672  0.00  0.00    +0.000 A 
ATOM     29  C   UNL     1       0.688   9.433  19.091  0.00  0.00    +0.000 A 
ATOM     30  C   UNL     1       0.829   9.120  20.452  0.00  0.00    +0.000 A 
ATOM     31  C   UNL     1       0.104   9.876  21.384  0.00  0.00    +0.000 A 
ATOM     32  C   UNL     1      -0.739  10.910  20.967  0.00  0.00    +0.000 A 
ENDBRANCH  25  30
ENDBRANCH  19  25
ENDBRANCH  18  22
ENDBRANCH   1  18
TORSDOF 5
ENDMDL
MODEL 6
REMARK VINA RESULT:      -7.9      2.608      7.282
REMARK  Name = 
REMARK  6 active torsions:
REMARK  status: ('A' for Active; 'I' for Inactive)
REMARK    1  A    between atoms: C_1  and  C_2
REMARK    2  A    between atoms: C_5  and  C_6
REMARK    3  A    between atoms: C_6  and  N_7
REMARK    4  A    between atoms: C_10  and  C_11
REMARK    5  A    between atoms: C_11  and  O_12
REMARK    6  A    between atoms: O_12  and  C_13
REMARK                            x       y       z     vdW  Elec       q    Type
REMARK                         _______ _______ _______ _____ _____    ______ ____
ROOT
ATOM      1  O   UNL     1       4.484   3.456  18.658  0.00  0.00    +0.000 OA
ENDROOT
BRANCH   1   2
ATOM      2  C   UNL     1       5.490   4.381  18.452  0.00  0.00    +0.000 A 
ATOM      3  C   UNL     1       6.111   5.063  19.504  0.00  0.00    +0.000 A 
ATOM      4  C   UNL     1       7.185   5.909  19.252  0.00  0.00    +0.000 A 
ATOM      5  C   UNL     1       7.645   6.069  17.949  0.00  0.00    +0.000 A 
ATOM      6  C   UNL     1       7.053   5.417  16.877  0.00  0.00    +0.000 A 
ATOM      7  N   UNL     1       7.572   5.645  15.667  0.00  0.00    +0.000 NA
ATOM      8  C   UNL     1       6.993   5.048  14.630  0.00  0.00    +0.000 A 
ATOM      9  N   UNL     1       7.527   5.294  13.382  0.00  0.00    +0.000 N 
ATOM     10  N   UNL     1       5.964   4.208  14.712  0.00  0.00    +0.000 NA
ATOM     11  C   UNL     1       5.457   3.985  15.932  0.00  0.00    +0.000 A 
ATOM     12  N   UNL     1       4.309   3.188  15.935  0.00  0.00    +0.000 N 
ATOM     13  C   UNL     1       5.960   4.570  17.109  0.00  0.00    +0.000 A 
ATOM     14  H   UNL     1       8.492   5.580  13.467  0.00  0.00    +0.000 HD
ATOM     15  H   UNL     1       7.316   4.531  12.756  0.00  0.00    +0.000 HD
ATOM     16  H   UNL     1       4.194   2.775  15.017  0.00  0.00    +0.000 HD
ATOM     17  H   UNL     1       4.320   2.524  16.704  0.00  0.00    +0.000 HD
ENDBRANCH   1   2
BRANCH   1  18
ATOM     18  C   UNL     1       3.680   3.650  19.828  0.00  0.00    +0.000 C 
BRANCH  18  22
ATOM     19  N   UNL     1       1.779   6.745  19.264  0.00  0.00    +0.000 NA
ATOM     20  C   UNL     1       2.407   6.010  18.161  0.00  0.00    +0.000 C 
ATOM     21  C   UNL     1       1.977   4.544  18.109  0.00  0.00    +0.000 C 
ATOM     22  C   UNL     1       2.197   3.832  19.447  0.00  0.00    +0.000 C 
ATOM     23  C   UNL     1       1.449   4.622  20.530  0.00  0.00    +0.000 C 
ATOM     24  C   UNL     1       1.877   6.094  20.570  0.00  0.00    +0.000 C 
BRANCH  19  25
ATOM     25  C   UNL     1       2.170   8.168  19.300  0.00  0.00    +0.000 C 
BRANCH  25  30
ATOM     26  C   UNL     1      -2.016  12.208  19.894  0.00  0.00    +0.000 C 
ATOM     27  C   UNL     1      -0.966  11.147  19.746  0.00  0.00    +0.000 A 
ATOM     28  C   UNL     1      -0.427  10.507  20.866  0.00  0.00    +0.000 A 
ATOM     29  C   UNL     1       0.574   9.542  20.718  0.00  0.00    +0.000 A 
ATOM     30  C   UNL     1       1.060   9.194  19.447  0.00  0.00    +0.000 A 
ATOM     31  C   UNL     1       0.512   9.837  18.329  0.00  0.00    +0.000 A 
ATOM     32  C   UNL     1      -0.489  10.802  18.476  0.00  0.00    +0.000 A 
ENDBRANCH  25  30
ENDBRANCH  19  25
ENDBRANCH  18  22
ENDBRANCH   1  18
TORSDOF 5
ENDMDL
MODEL 7
REMARK VINA RESULT:      -7.9      3.143      6.060
REMARK  Name = 
REMARK  6 active torsions:
REMARK  status: ('A' for Active; 'I' for Inactive)
REMARK    1  A    between atoms: C_1  and  C_2
REMARK    2  A    between atoms: C_5  and  C_6
REMARK    3  A    between atoms: C_6  and  N_7
REMARK    4  A    between atoms: C_10  and  C_11
REMARK    5  A    between atoms: C_11  and  O_12
REMARK    6  A    between atoms: O_12  and  C_13
REMARK                            x       y       z     vdW  Elec       q    Type
REMARK                         _______ _______ _______ _____ _____    ______ ____
ROOT
ATOM      1  O   UNL     1       4.451   2.984  17.447  0.00  0.00    +0.000 OA
ENDROOT
BRANCH   1   2
ATOM      2  C   UNL     1       5.186   3.788  16.597  0.00  0.00    +0.000 A 
ATOM      3  C   UNL     1       5.069   3.714  15.205  0.00  0.00    +0.000 A 
ATOM      4  C   UNL     1       5.757   4.612  14.397  0.00  0.00    +0.000 A 
ATOM      5  C   UNL     1       6.557   5.590  14.979  0.00  0.00    +0.000 A 
ATOM      6  C   UNL     1       6.707   5.692  16.355  0.00  0.00    +0.000 A 
ATOM      7  N   UNL     1       7.502   6.665  16.807  0.00  0.00    +0.000 NA
ATOM      8  C   UNL     1       7.674   6.754  18.122  0.00  0.00    +0.000 A 
ATOM      9  N   UNL     1       8.505   7.754  18.584  0.00  0.00    +0.000 N 
ATOM     10  N   UNL     1       7.081   5.972  19.022  0.00  0.00    +0.000 NA
ATOM     11  C   UNL     1       6.282   5.004  18.554  0.00  0.00    +0.000 A 
ATOM     12  N   UNL     1       5.784   4.149  19.541  0.00  0.00    +0.000 N 
ATOM     13  C   UNL     1       6.031   4.787  17.186  0.00  0.00    +0.000 A 
ATOM     14  H   UNL     1       8.560   8.499  17.905  0.00  0.00    +0.000 HD
ATOM     15  H   UNL     1       8.261   7.998  19.532  0.00  0.00    +0.000 HD
ATOM     16  H   UNL     1       5.977   4.551  20.451  0.00  0.00    +0.000 HD
ATOM     17  H   UNL     1       4.809   3.918  19.374  0.00  0.00    +0.000 HD
ENDBRANCH   1   2
BRANCH   1  18
ATOM     18  C   UNL     1       3.072   2.796  17.102  0.00  0.00    +0.000 C 
BRANCH  18  22
ATOM     19  N   UNL     1       1.966   3.843  20.448  0.00  0.00    +0.000 NA
ATOM     20  C   UNL     1       1.070   3.885  19.288  0.00  0.00    +0.000 C 
ATOM     21  C   UNL     1       0.968   2.537  18.572  0.00  0.00    +0.000 C 
ATOM     22  C   UNL     1       2.343   1.983  18.191  0.00  0.00    +0.000 C 
ATOM     23  C   UNL     1       3.190   1.903  19.469  0.00  0.00    +0.000 C 
ATOM     24  C   UNL     1       3.280   3.255  20.188  0.00  0.00    +0.000 C 
BRANCH  19  25
ATOM     25  C   UNL     1       2.046   5.134  21.158  0.00  0.00    +0.000 C 
BRANCH  25  30
ATOM     26  C   UNL     1       1.858  10.051  17.998  0.00  0.00    +0.000 C 
ATOM     27  C   UNL     1       1.875   8.783  18.798  0.00  0.00    +0.000 A 
ATOM     28  C   UNL     1       1.230   8.705  20.037  0.00  0.00    +0.000 A 
ATOM     29  C   UNL     1       1.280   7.526  20.788  0.00  0.00    +0.000 A 
ATOM     30  C   UNL     1       1.972   6.398  20.319  0.00  0.00    +0.000 A 
ATOM     31  C   UNL     1       2.612   6.482  19.074  0.00  0.00    +0.000 A 
ATOM     32  C   UNL     1       2.564   7.661  18.323  0.00  0.00    +0.000 A 
ENDBRANCH  25  30
ENDBRANCH  19  25
ENDBRANCH  18  22
ENDBRANCH   1  18
TORSDOF 5
ENDMDL
MODEL 8
REMARK VINA RESULT:      -7.7      1.660      2.723
REMARK  Name = 
REMARK  6 active torsions:
REMARK  status: ('A' for Active; 'I' for Inactive)
REMARK    1  A    between atoms: C_1  and  C_2
REMARK    2  A    between atoms: C_5  and  C_6
REMARK    3  A    between atoms: C_6  and  N_7
REMARK    4  A    between atoms: C_10  and  C_11
REMARK    5  A    between atoms: C_11  and  O_12
REMARK    6  A    between atoms: O_12  and  C_13
REMARK                            x       y       z     vdW  Elec       q    Type
REMARK                         _______ _______ _______ _____ _____    ______ ____
ROOT
ATOM      1  O   UNL     1       1.775   8.044  19.710  0.00  0.00    +0.000 OA
ENDROOT
BRANCH   1   2
ATOM      2  C   UNL     1       1.048   8.785  20.623  0.00  0.00    +0.000 A 
ATOM      3  C   UNL     1       1.047   8.497  21.993  0.00  0.00    +0.000 A 
ATOM      4  C   UNL     1       0.380   9.332  22.881  0.00  0.00    +0.000 A 
ATOM      5  C   UNL     1      -0.281  10.460  22.404  0.00  0.00    +0.000 A 
ATOM      6  C   UNL     1      -0.310  10.776  21.054  0.00  0.00    +0.000 A 
ATOM      7  N   UNL     1      -0.977  11.880  20.705  0.00  0.00    +0.000 NA
ATOM      8  C   UNL     1      -1.035  12.176  19.410  0.00  0.00    +0.000 A 
ATOM      9  N   UNL     1      -1.733  13.312  19.053  0.00  0.00    +0.000 N 
ATOM     10  N   UNL     1      -0.444  11.479  18.442  0.00  0.00    +0.000 NA
ATOM     11  C   UNL     1       0.225  10.377  18.808  0.00  0.00    +0.000 A 
ATOM     12  N   UNL     1       0.722   9.631  17.737  0.00  0.00    +0.000 N 
ATOM     13  C   UNL     1       0.346   9.939  20.140  0.00  0.00    +0.000 A 
ATOM     14  H   UNL     1      -1.775  13.952  19.833  0.00  0.00    +0.000 HD
ATOM     15  H   UNL     1      -1.393  13.666  18.171  0.00  0.00    +0.000 HD
ATOM     16  H   UNL     1       0.639  10.179  16.888  0.00  0.00    +0.000 HD
ATOM     17  H   UNL     1       1.657   9.281  17.929  0.00  0.00    +0.000 HD
ENDBRANCH   1   2
BRANCH   1  18
ATOM     18  C   UNL     1       2.515   6.938  20.241  0.00  0.00    +0.000 C 
BRANCH  18  22
ATOM     19  N   UNL     1       4.322   4.522  18.142  0.00  0.00    +0.000 NA
ATOM     20  C   UNL     1       4.237   4.370  19.598  0.00  0.00    +0.000 C 
ATOM     21  C   UNL     1       2.795   4.377  20.108  0.00  0.00    +0.000 C 
ATOM     22  C   UNL     1       2.022   5.609  19.632  0.00  0.00    +0.000 C 
ATOM     23  C   UNL     1       2.099   5.652  18.100  0.00  0.00    +0.000 C 
ATOM     24  C   UNL     1       3.547   5.634  17.594  0.00  0.00    +0.000 C 
BRANCH  19  25
ATOM     25  C   UNL     1       5.710   4.488  17.643  0.00  0.00    +0.000 C 
BRANCH  25  30
ATOM     26  C   UNL     1       8.840   9.370  18.396  0.00  0.00    +0.000 C 
ATOM     27  C   UNL     1       8.056   8.111  18.175  0.00  0.00    +0.000 A 
ATOM     28  C   UNL     1       7.046   8.052  17.210  0.00  0.00    +0.000 A 
ATOM     29  C   UNL     1       6.300   6.882  17.036  0.00  0.00    +0.000 A 
ATOM     30  C   UNL     1       6.547   5.743  17.819  0.00  0.00    +0.000 A 
ATOM     31  C   UNL     1       7.565   5.808  18.781  0.00  0.00    +0.000 A 
ATOM     32  C   UNL     1       8.310   6.978  18.957  0.00  0.00    +0.000 A 
ENDBRANCH  25  30
ENDBRANCH  19  25
ENDBRANCH  18  22
ENDBRANCH   1  18
TORSDOF 5
ENDMDL
MODEL 9
REMARK VINA RESULT:      -7.7      1.433      2.343
REMARK  Name = 
REMARK  6 active torsions:
REMARK  status: ('A' for Active; 'I' for Inactive)
REMARK    1  A    between atoms: C_1  and  C_2
REMARK    2  A    between atoms: C_5  and  C_6
REMARK    3  A    between atoms: C_6  and  N_7
REMARK    4  A    between atoms: C_10  and  C_11
REMARK    5  A    between atoms: C_11  and  O_12
REMARK    6  A    between atoms: O_12  and  C_13
REMARK                            x       y       z     vdW  Elec       q    Type
REMARK                         _______ _______ _______ _____ _____    ______ ____
ROOT
ATOM      1  O   UNL     1       2.380   7.328  19.181  0.00  0.00    +0.000 OA
ENDROOT
BRANCH   1   2
ATOM      2  C   UNL     1       1.888   8.613  19.049  0.00  0.00    +0.000 A 
ATOM      3  C   UNL     1       2.048   9.362  17.878  0.00  0.00    +0.000 A 
ATOM      4  C   UNL     1       1.449  10.611  17.760  0.00  0.00    +0.000 A 
ATOM      5  C   UNL     1       0.683  11.110  18.809  0.00  0.00    +0.000 A 
ATOM      6  C   UNL     1       0.506  10.403  19.989  0.00  0.00    +0.000 A 
ATOM      7  N   UNL     1      -0.245  10.977  20.932  0.00  0.00    +0.000 NA
ATOM      8  C   UNL     1      -0.397  10.320  22.079  0.00  0.00    +0.000 A 
ATOM      9  N   UNL     1      -1.166  10.921  23.054  0.00  0.00    +0.000 N 
ATOM     10  N   UNL     1       0.108   9.116  22.339  0.00  0.00    +0.000 NA
ATOM     11  C   UNL     1       0.856   8.550  21.381  0.00  0.00    +0.000 A 
ATOM     12  N   UNL     1       1.450   7.344  21.760  0.00  0.00    +0.000 N 
ATOM     13  C   UNL     1       1.113   9.147  20.132  0.00  0.00    +0.000 A 
ATOM     14  H   UNL     1      -1.805  11.580  22.634  0.00  0.00    +0.000 HD
ATOM     15  H   UNL     1      -1.550  10.223  23.673  0.00  0.00    +0.000 HD
ATOM     16  H   UNL     1       1.039   7.036  22.634  0.00  0.00    +0.000 HD
ATOM     17  H   UNL     1       1.416   6.661  21.009  0.00  0.00    +0.000 HD
ENDBRANCH   1   2
BRANCH   1  18
ATOM     18  C   UNL     1       2.058   6.418  18.121  0.00  0.00    +0.000 C 
BRANCH  18  22
ATOM     19  N   UNL     1       4.875   4.058  18.206  0.00  0.00    +0.000 NA
ATOM     20  C   UNL     1       4.526   4.888  19.363  0.00  0.00    +0.000 C 
ATOM     21  C   UNL     1       3.065   4.725  19.787  0.00  0.00    +0.000 C 
ATOM     22  C   UNL     1       2.099   4.960  18.623  0.00  0.00    +0.000 C 
ATOM     23  C   UNL     1       2.487   4.004  17.487  0.00  0.00    +0.000 C 
ATOM     24  C   UNL     1       3.956   4.165  17.074  0.00  0.00    +0.000 C 
BRANCH  19  25
ATOM     25  C   UNL     1       6.290   4.191  17.811  0.00  0.00    +0.000 C 
BRANCH  25  30
ATOM     26  C   UNL     1       8.582   9.557  18.204  0.00  0.00    +0.000 C 
ATOM     27  C   UNL     1       8.015   8.174  18.078  0.00  0.00    +0.000 A 
ATOM     28  C   UNL     1       7.077   7.869  17.087  0.00  0.00    +0.000 A 
ATOM     29  C   UNL     1       6.532   6.584  16.999  0.00  0.00    +0.000 A 
ATOM     30  C   UNL     1       6.912   5.574  17.897  0.00  0.00    +0.000 A 
ATOM     31  C   UNL     1       7.857   5.886  18.884  0.00  0.00    +0.000 A 
ATOM     32  C   UNL     1       8.401   7.171  18.974  0.00  0.00    +0.000 A 
ENDBRANCH  25  30
ENDBRANCH  19  25
ENDBRANCH  18  22
ENDBRANCH   1  18
TORSDOF 5
ENDMDL
