MODEL 1
REMARK VINA RESULT:      -4.7      0.000      0.000
REMARK  Name = 
REMARK  6 active torsions:
REMARK  status: ('A' for Active; 'I' for Inactive)
REMARK    1  A    between atoms: C_1  and  O_2
REMARK    2  A    between atoms: O_2  and  C_3
REMARK    3  A    between atoms: C_3  and  C_4
REMARK    4  A    between atoms: C_4  and  C_5
REMARK    5  A    between atoms: C_5  and  N_6
REMARK    6  A    between atoms: C_10  and  S_11
REMARK                            x       y       z     vdW  Elec       q    Type
REMARK                         _______ _______ _______ _____ _____    ______ ____
ROOT
ATOM      1  N   UNL     1       5.784   4.863  17.194  0.00  0.00    +0.000 N 
ATOM      2  C   UNL     1       6.434   4.896  18.393  0.00  0.00    +0.000 A 
ATOM      3  N   UNL     1       7.701   4.596  18.216  0.00  0.00    +0.000 NA
ATOM      4  N   UNL     1       7.889   4.355  16.873  0.00  0.00    +0.000 NA
ATOM      5  C   UNL     1       6.730   4.516  16.277  0.00  0.00    +0.000 A 
ENDROOT
BRANCH   5   6
ATOM      6  S   UNL     1       6.443   4.334  14.589  0.00  0.00    +0.000 S 
ATOM      7  H   UNL     1       5.256   4.957  14.573  0.00  0.00    +0.000 HD
ENDBRANCH   5   6
BRANCH   1   8
ATOM      8  C   UNL     1       4.377   5.135  16.999  0.00  0.00    +0.000 C 
BRANCH   8   9
ATOM      9  C   UNL     1       3.513   3.898  17.229  0.00  0.00    +0.000 C 
BRANCH   9  10
ATOM     10  C   UNL     1       2.337   4.206  18.147  0.00  0.00    +0.000 C 
BRANCH  10  12
ATOM     11  C   UNL     1       0.847   2.502  18.801  0.00  0.00    +0.000 C 
ATOM     12  O   UNL     1       1.234   3.391  17.761  0.00  0.00    +0.000 OA
ENDBRANCH  10  12
ENDBRANCH   9  10
ENDBRANCH   8   9
ENDBRANCH   1   8
TORSDOF 5
ENDMDL
MODEL 2
REMARK VINA RESULT:      -4.6      3.372      4.334
REMARK  Name = 
REMARK  6 active torsions:
REMARK  status: ('A' for Active; 'I' for Inactive)
REMARK    1  A    between atoms: C_1  and  O_2
REMARK    2  A    between atoms: O_2  and  C_3
REMARK    3  A    between atoms: C_3  and  C_4
REMARK    4  A    between atoms: C_4  and  C_5
REMARK    5  A    between atoms: C_5  and  N_6
REMARK    6  A    between atoms: C_10  and  S_11
REMARK                            x       y       z     vdW  Elec       q    Type
REMARK                         _______ _______ _______ _____ _____    ______ ____
ROOT
ATOM      1  N   UNL     1       6.328   4.706  17.749  0.00  0.00    +0.000 N 
ATOM      2  C   UNL     1       7.687   4.688  17.882  0.00  0.00    +0.000 A 
ATOM      3  N   UNL     1       8.014   5.044  19.104  0.00  0.00    +0.000 NA
ATOM      4  N   UNL     1       6.848   5.306  19.789  0.00  0.00    +0.000 NA
ATOM      5  C   UNL     1       5.849   5.101  18.962  0.00  0.00    +0.000 A 
ENDROOT
BRANCH   5   6
ATOM      6  S   UNL     1       4.181   5.287  19.346  0.00  0.00    +0.000 S 
ATOM      7  H   UNL     1       3.828   4.019  19.090  0.00  0.00    +0.000 HD
ENDBRANCH   5   6
BRANCH   1   8
ATOM      8  C   UNL     1       5.604   4.375  16.542  0.00  0.00    +0.000 C 
BRANCH   8   9
ATOM      9  C   UNL     1       5.912   5.343  15.402  0.00  0.00    +0.000 C 
BRANCH   9  10
ATOM     10  C   UNL     1       6.613   4.635  14.250  0.00  0.00    +0.000 C 
BRANCH  10  12
ATOM     11  C   UNL     1       6.180   3.335  12.332  0.00  0.00    +0.000 C 
ATOM     12  O   UNL     1       5.655   3.845  13.552  0.00  0.00    +0.000 OA
ENDBRANCH  10  12
ENDBRANCH   9  10
ENDBRANCH   8   9
ENDBRANCH   1   8
TORSDOF 5
ENDMDL
MODEL 3
REMARK VINA RESULT:      -4.6      1.260      1.343
REMARK  Name = 
REMARK  6 active torsions:
REMARK  status: ('A' for Active; 'I' for Inactive)
REMARK    1  A    between atoms: C_1  and  O_2
REMARK    2  A    between atoms: O_2  and  C_3
REMARK    3  A    between atoms: C_3  and  C_4
REMARK    4  A    between atoms: C_4  and  C_5
REMARK    5  A    between atoms: C_5  and  N_6
REMARK    6  A    between atoms: C_10  and  S_11
REMARK                            x       y       z     vdW  Elec       q    Type
REMARK                         _______ _______ _______ _____ _____    ______ ____
ROOT
ATOM      1  N   UNL     1       6.046   5.335  17.245  0.00  0.00    +0.000 N 
ATOM      2  C   UNL     1       6.659   5.292  18.464  0.00  0.00    +0.000 A 
ATOM      3  N   UNL     1       7.811   4.669  18.356  0.00  0.00    +0.000 NA
ATOM      4  N   UNL     1       7.959   4.289  17.040  0.00  0.00    +0.000 NA
ATOM      5  C   UNL     1       6.892   4.693  16.391  0.00  0.00    +0.000 A 
ENDROOT
BRANCH   5   6
ATOM      6  S   UNL     1       6.601   4.464  14.709  0.00  0.00    +0.000 S 
ATOM      7  H   UNL     1       5.267   4.361  14.802  0.00  0.00    +0.000 HD
ENDBRANCH   5   6
BRANCH   1   8
ATOM      8  C   UNL     1       4.759   5.938  16.979  0.00  0.00    +0.000 C 
BRANCH   8   9
ATOM      9  C   UNL     1       3.649   5.328  17.831  0.00  0.00    +0.000 C 
BRANCH   9  10
ATOM     10  C   UNL     1       3.324   3.909  17.383  0.00  0.00    +0.000 C 
BRANCH  10  12
ATOM     11  C   UNL     1       3.265   1.719  18.254  0.00  0.00    +0.000 C 
ATOM     12  O   UNL     1       3.889   2.996  18.321  0.00  0.00    +0.000 OA
ENDBRANCH  10  12
ENDBRANCH   9  10
ENDBRANCH   8   9
ENDBRANCH   1   8
TORSDOF 5
ENDMDL
MODEL 4
REMARK VINA RESULT:      -4.5      1.155      1.170
REMARK  Name = 
REMARK  6 active torsions:
REMARK  status: ('A' for Active; 'I' for Inactive)
REMARK    1  A    between atoms: C_1  and  O_2
REMARK    2  A    between atoms: O_2  and  C_3
REMARK    3  A    between atoms: C_3  and  C_4
REMARK    4  A    between atoms: C_4  and  C_5
REMARK    5  A    between atoms: C_5  and  N_6
REMARK    6  A    between atoms: C_10  and  S_11
REMARK                            x       y       z     vdW  Elec       q    Type
REMARK                         _______ _______ _______ _____ _____    ______ ____
ROOT
ATOM      1  N   UNL     1       5.766   4.789  17.239  0.00  0.00    +0.000 N 
ATOM      2  C   UNL     1       6.420   4.849  18.435  0.00  0.00    +0.000 A 
ATOM      3  N   UNL     1       7.702   4.631  18.248  0.00  0.00    +0.000 NA
ATOM      4  N   UNL     1       7.897   4.418  16.901  0.00  0.00    +0.000 NA
ATOM      5  C   UNL     1       6.727   4.513  16.313  0.00  0.00    +0.000 A 
ENDROOT
BRANCH   5   6
ATOM      6  S   UNL     1       6.442   4.332  14.624  0.00  0.00    +0.000 S 
ATOM      7  H   UNL     1       7.258   3.282  14.449  0.00  0.00    +0.000 HD
ENDBRANCH   5   6
BRANCH   1   8
ATOM      8  C   UNL     1       4.344   4.975  17.054  0.00  0.00    +0.000 C 
BRANCH   8   9
ATOM      9  C   UNL     1       3.575   3.658  17.140  0.00  0.00    +0.000 C 
BRANCH   9  10
ATOM     10  C   UNL     1       2.521   3.703  18.238  0.00  0.00    +0.000 C 
BRANCH  10  12
ATOM     11  C   UNL     1       3.066   2.915  20.391  0.00  0.00    +0.000 C 
ATOM     12  O   UNL     1       3.166   3.998  19.474  0.00  0.00    +0.000 OA
ENDBRANCH  10  12
ENDBRANCH   9  10
ENDBRANCH   8   9
ENDBRANCH   1   8
TORSDOF 5
ENDMDL
MODEL 5
REMARK VINA RESULT:      -4.5      1.339      1.482
REMARK  Name = 
REMARK  6 active torsions:
REMARK  status: ('A' for Active; 'I' for Inactive)
REMARK    1  A    between atoms: C_1  and  O_2
REMARK    2  A    between atoms: O_2  and  C_3
REMARK    3  A    between atoms: C_3  and  C_4
REMARK    4  A    between atoms: C_4  and  C_5
REMARK    5  A    between atoms: C_5  and  N_6
REMARK    6  A    between atoms: C_10  and  S_11
REMARK                            x       y       z     vdW  Elec       q    Type
REMARK                         _______ _______ _______ _____ _____    ______ ____
ROOT
ATOM      1  N   UNL     1       5.310   5.010  17.991  0.00  0.00    +0.000 N 
ATOM      2  C   UNL     1       5.485   5.177  19.334  0.00  0.00    +0.000 A 
ATOM      3  N   UNL     1       6.763   5.089  19.626  0.00  0.00    +0.000 NA
ATOM      4  N   UNL     1       7.445   4.853  18.453  0.00  0.00    +0.000 NA
ATOM      5  C   UNL     1       6.559   4.806  17.485  0.00  0.00    +0.000 A 
ENDROOT
BRANCH   5   6
ATOM      6  S   UNL     1       6.913   4.541  15.820  0.00  0.00    +0.000 S 
ATOM      7  H   UNL     1       5.892   5.262  15.336  0.00  0.00    +0.000 HD
ENDBRANCH   5   6
BRANCH   1   8
ATOM      8  C   UNL     1       4.038   5.040  17.305  0.00  0.00    +0.000 C 
BRANCH   8   9
ATOM      9  C   UNL     1       3.444   3.644  17.132  0.00  0.00    +0.000 C 
BRANCH   9  10
ATOM     10  C   UNL     1       2.166   3.482  17.945  0.00  0.00    +0.000 C 
BRANCH  10  12
ATOM     11  C   UNL     1       3.463   1.580  18.452  0.00  0.00    +0.000 C 
ATOM     12  O   UNL     1       2.300   2.332  18.776  0.00  0.00    +0.000 OA
ENDBRANCH  10  12
ENDBRANCH   9  10
ENDBRANCH   8   9
ENDBRANCH   1   8
TORSDOF 5
ENDMDL
MODEL 6
REMARK VINA RESULT:      -4.4      2.983      3.486
REMARK  Name = 
REMARK  6 active torsions:
REMARK  status: ('A' for Active; 'I' for Inactive)
REMARK    1  A    between atoms: C_1  and  O_2
REMARK    2  A    between atoms: O_2  and  C_3
REMARK    3  A    between atoms: C_3  and  C_4
REMARK    4  A    between atoms: C_4  and  C_5
REMARK    5  A    between atoms: C_5  and  N_6
REMARK    6  A    between atoms: C_10  and  S_11
REMARK                            x       y       z     vdW  Elec       q    Type
REMARK                         _______ _______ _______ _____ _____    ______ ____
ROOT
ATOM      1  N   UNL     1       3.328   4.146  18.359  0.00  0.00    +0.000 N 
ATOM      2  C   UNL     1       4.379   3.322  18.641  0.00  0.00    +0.000 A 
ATOM      3  N   UNL     1       5.329   4.008  19.236  0.00  0.00    +0.000 NA
ATOM      4  N   UNL     1       4.898   5.312  19.344  0.00  0.00    +0.000 NA
ATOM      5  C   UNL     1       3.700   5.377  18.811  0.00  0.00    +0.000 A 
ENDROOT
BRANCH   5   6
ATOM      6  S   UNL     1       2.730   6.796  18.708  0.00  0.00    +0.000 S 
ATOM      7  H   UNL     1       1.982   6.543  19.792  0.00  0.00    +0.000 HD
ENDBRANCH   5   6
BRANCH   1   8
ATOM      8  C   UNL     1       2.104   3.744  17.703  0.00  0.00    +0.000 C 
BRANCH   8   9
ATOM      9  C   UNL     1       1.354   2.671  18.490  0.00  0.00    +0.000 C 
BRANCH   9  10
ATOM     10  C   UNL     1       0.801   3.229  19.795  0.00  0.00    +0.000 C 
BRANCH  10  12
ATOM     11  C   UNL     1       2.175   3.395  21.703  0.00  0.00    +0.000 C 
ATOM     12  O   UNL     1       1.404   2.528  20.879  0.00  0.00    +0.000 OA
ENDBRANCH  10  12
ENDBRANCH   9  10
ENDBRANCH   8   9
ENDBRANCH   1   8
TORSDOF 5
ENDMDL
MODEL 7
REMARK VINA RESULT:      -4.4      1.738      2.174
REMARK  Name = 
REMARK  6 active torsions:
REMARK  status: ('A' for Active; 'I' for Inactive)
REMARK    1  A    between atoms: C_1  and  O_2
REMARK    2  A    between atoms: O_2  and  C_3
REMARK    3  A    between atoms: C_3  and  C_4
REMARK    4  A    between atoms: C_4  and  C_5
REMARK    5  A    between atoms: C_5  and  N_6
REMARK    6  A    between atoms: C_10  and  S_11
REMARK                            x       y       z     vdW  Elec       q    Type
REMARK                         _______ _______ _______ _____ _____    ______ ____
ROOT
ATOM      1  N   UNL     1       5.678   4.454  16.115  0.00  0.00    +0.000 N 
ATOM      2  C   UNL     1       5.634   4.634  14.763  0.00  0.00    +0.000 A 
ATOM      3  N   UNL     1       6.751   5.194  14.356  0.00  0.00    +0.000 NA
ATOM      4  N   UNL     1       7.546   5.392  15.463  0.00  0.00    +0.000 NA
ATOM      5  C   UNL     1       6.887   4.946  16.507  0.00  0.00    +0.000 A 
ENDROOT
BRANCH   5   6
ATOM      6  S   UNL     1       7.461   4.962  18.131  0.00  0.00    +0.000 S 
ATOM      7  H   UNL     1       7.652   6.288  18.206  0.00  0.00    +0.000 HD
ENDBRANCH   5   6
BRANCH   1   8
ATOM      8  C   UNL     1       4.625   3.868  16.914  0.00  0.00    +0.000 C 
BRANCH   8   9
ATOM      9  C   UNL     1       3.580   4.900  17.335  0.00  0.00    +0.000 C 
BRANCH   9  10
ATOM     10  C   UNL     1       2.608   4.318  18.353  0.00  0.00    +0.000 C 
BRANCH  10  12
ATOM     11  C   UNL     1       1.059   2.557  18.589  0.00  0.00    +0.000 C 
ATOM     12  O   UNL     1       1.728   3.423  17.679  0.00  0.00    +0.000 OA
ENDBRANCH  10  12
ENDBRANCH   9  10
ENDBRANCH   8   9
ENDBRANCH   1   8
TORSDOF 5
ENDMDL
MODEL 8
REMARK VINA RESULT:      -4.4      1.970      2.004
REMARK  Name = 
REMARK  6 active torsions:
REMARK  status: ('A' for Active; 'I' for Inactive)
REMARK    1  A    between atoms: C_1  and  O_2
REMARK    2  A    between atoms: O_2  and  C_3
REMARK    3  A    between atoms: C_3  and  C_4
REMARK    4  A    between atoms: C_4  and  C_5
REMARK    5  A    between atoms: C_5  and  N_6
REMARK    6  A    between atoms: C_10  and  S_11
REMARK                            x       y       z     vdW  Elec       q    Type
REMARK                         _______ _______ _______ _____ _____    ______ ____
ROOT
ATOM      1  N   UNL     1       5.650   5.550  16.604  0.00  0.00    +0.000 N 
ATOM      2  C   UNL     1       6.374   6.462  17.316  0.00  0.00    +0.000 A 
ATOM      3  N   UNL     1       7.528   6.670  16.722  0.00  0.00    +0.000 NA
ATOM      4  N   UNL     1       7.567   5.874  15.598  0.00  0.00    +0.000 NA
ATOM      5  C   UNL     1       6.437   5.209  15.545  0.00  0.00    +0.000 A 
ENDROOT
BRANCH   5   6
ATOM      6  S   UNL     1       5.998   4.083  14.318  0.00  0.00    +0.000 S 
ATOM      7  H   UNL     1       4.686   4.067  14.595  0.00  0.00    +0.000 HD
ENDBRANCH   5   6
BRANCH   1   8
ATOM      8  C   UNL     1       4.332   5.072  16.957  0.00  0.00    +0.000 C 
BRANCH   8   9
ATOM      9  C   UNL     1       4.362   3.645  17.500  0.00  0.00    +0.000 C 
BRANCH   9  10
ATOM     10  C   UNL     1       4.632   3.629  18.999  0.00  0.00    +0.000 C 
BRANCH  10  12
ATOM     11  C   UNL     1       3.498   1.614  18.541  0.00  0.00    +0.000 C 
ATOM     12  O   UNL     1       4.147   2.400  19.533  0.00  0.00    +0.000 OA
ENDBRANCH  10  12
ENDBRANCH   9  10
ENDBRANCH   8   9
ENDBRANCH   1   8
TORSDOF 5
ENDMDL
MODEL 9
REMARK VINA RESULT:      -4.4      1.875      2.118
REMARK  Name = 
REMARK  6 active torsions:
REMARK  status: ('A' for Active; 'I' for Inactive)
REMARK    1  A    between atoms: C_1  and  O_2
REMARK    2  A    between atoms: O_2  and  C_3
REMARK    3  A    between atoms: C_3  and  C_4
REMARK    4  A    between atoms: C_4  and  C_5
REMARK    5  A    between atoms: C_5  and  N_6
REMARK    6  A    between atoms: C_10  and  S_11
REMARK                            x       y       z     vdW  Elec       q    Type
REMARK                         _______ _______ _______ _____ _____    ______ ____
ROOT
ATOM      1  N   UNL     1       5.621   4.756  17.567  0.00  0.00    +0.000 N 
ATOM      2  C   UNL     1       5.488   4.170  16.341  0.00  0.00    +0.000 A 
ATOM      3  N   UNL     1       6.666   4.083  15.765  0.00  0.00    +0.000 NA
ATOM      4  N   UNL     1       7.594   4.626  16.626  0.00  0.00    +0.000 NA
ATOM      5  C   UNL     1       6.951   5.027  17.697  0.00  0.00    +0.000 A 
ENDROOT
BRANCH   5   6
ATOM      6  S   UNL     1       7.671   5.770  19.074  0.00  0.00    +0.000 S 
ATOM      7  H   UNL     1       8.397   4.708  19.452  0.00  0.00    +0.000 HD
ENDBRANCH   5   6
BRANCH   1   8
ATOM      8  C   UNL     1       4.538   5.021  18.487  0.00  0.00    +0.000 C 
BRANCH   8   9
ATOM      9  C   UNL     1       3.257   5.433  17.766  0.00  0.00    +0.000 C 
BRANCH   9  10
ATOM     10  C   UNL     1       2.103   4.502  18.113  0.00  0.00    +0.000 C 
BRANCH  10  12
ATOM     11  C   UNL     1       2.453   2.199  17.755  0.00  0.00    +0.000 C 
ATOM     12  O   UNL     1       2.077   3.438  17.166  0.00  0.00    +0.000 OA
ENDBRANCH  10  12
ENDBRANCH   9  10
ENDBRANCH   8   9
ENDBRANCH   1   8
TORSDOF 5
ENDMDL
