MODEL 1
REMARK VINA RESULT:      -6.4      0.000      0.000
REMARK  Name = 
REMARK  4 active torsions:
REMARK  status: ('A' for Active; 'I' for Inactive)
REMARK    1  A    between atoms: O_1  and  C_2
REMARK    2  A    between atoms: C_21  and  O_22
REMARK    3  A    between atoms: N_25  and  C_26
REMARK    4  A    between atoms: C_26  and  C_27
REMARK                            x       y       z     vdW  Elec       q    Type
REMARK                         _______ _______ _______ _____ _____    ______ ____
ROOT
ATOM      1  C   UNL     1      11.134  11.850  18.377  0.00  0.00    +0.000 A 
ATOM      2  C   UNL     1       9.973  11.365  17.770  0.00  0.00    +0.000 A 
ATOM      3  C   UNL     1       8.832  12.109  17.977  0.00  0.00    +0.000 A 
ATOM      4  C   UNL     1       9.026  13.399  18.542  0.00  0.00    +0.000 A 
ATOM      5  C   UNL     1      10.222  13.883  19.069  0.00  0.00    +0.000 A 
ATOM      6  C   UNL     1      11.011  12.858  19.420  0.00  0.00    +0.000 A 
ATOM      7  O   UNL     1      10.506  12.587  20.685  0.00  0.00    +0.000 OA
ATOM      8  C   UNL     1       9.786  13.705  21.266  0.00  0.00    +0.000 C 
ATOM      9  C   UNL     1       8.552  13.644  22.239  0.00  0.00    +0.000 A 
ATOM     10  N   UNL     1       8.848  13.396  23.511  0.00  0.00    +0.000 NA
ATOM     11  C   UNL     1       7.905  13.024  24.374  0.00  0.00    +0.000 A 
ATOM     12  C   UNL     1       8.252  12.865  25.691  0.00  0.00    +0.000 A 
ATOM     13  C   UNL     1       7.431  12.103  26.500  0.00  0.00    +0.000 A 
ATOM     14  C   UNL     1       6.289  11.490  25.955  0.00  0.00    +0.000 A 
ATOM     15  C   UNL     1       5.846  11.833  24.670  0.00  0.00    +0.000 A 
ATOM     16  C   UNL     1       6.625  12.685  23.906  0.00  0.00    +0.000 A 
ATOM     17  C   UNL     1       6.181  13.291  22.729  0.00  0.00    +0.000 A 
ATOM     18  C   UNL     1       7.119  13.996  21.985  0.00  0.00    +0.000 A 
ATOM     19  C   UNL     1       6.629  15.073  20.863  0.00  0.00    +0.000 C 
ATOM     20  C   UNL     1       8.121  15.385  19.683  0.00  0.00    +0.000 C 
ATOM     21  C   UNL     1       8.188  16.186  20.293  0.00  0.00    +0.000 C 
ATOM     22  C   UNL     1       7.855  14.202  19.111  0.00  0.00    +0.000 C 
ATOM     23  N   UNL     1       8.709  16.283  21.797  0.00  0.00    +0.000 NA
ATOM     24  C   UNL     1      10.123  16.700  21.873  0.00  0.00    +0.000 C 
ATOM     25  C   UNL     1      10.911  15.643  21.156  0.00  0.00    +0.000 C 
ATOM     26  C   UNL     1       9.887  14.831  20.238  0.00  0.00    +0.000 C 
ENDROOT
BRANCH   1  27
ATOM     27  O   UNL     1      12.333  11.581  17.814  0.00  0.00    +0.000 OA
ATOM     28  H   UNL     1      12.606  12.069  17.015  0.00  0.00    +0.000 HD
ENDBRANCH   1  27
BRANCH  20  29
ATOM     29  O   UNL     1       8.102  16.317  18.419  0.00  0.00    +0.000 OA
ATOM     30  H   UNL     1       9.030  16.585  18.179  0.00  0.00    +0.000 HD
ENDBRANCH  20  29
BRANCH  23  31
ATOM     31  C   UNL     1       7.888  17.086  22.784  0.00  0.00    +0.000 C 
BRANCH  31  32
ATOM     32  C   UNL     1       8.096  16.790  24.290  0.00  0.00    +0.000 C 
ATOM     33  F   UNL     1       7.000  16.097  24.778  0.00  0.00    +0.000 F 
ENDBRANCH  31  32
ENDBRANCH  23  31
TORSDOF 4
ENDMDL
MODEL 2
REMARK VINA RESULT:      -6.4     10.774     13.122
REMARK  Name = 
REMARK  4 active torsions:
REMARK  status: ('A' for Active; 'I' for Inactive)
REMARK    1  A    between atoms: O_1  and  C_2
REMARK    2  A    between atoms: C_21  and  O_22
REMARK    3  A    between atoms: N_25  and  C_26
REMARK    4  A    between atoms: C_26  and  C_27
REMARK                            x       y       z     vdW  Elec       q    Type
REMARK                         _______ _______ _______ _____ _____    ______ ____
ROOT
ATOM      1  C   UNL     1      -7.173  12.701  19.317  0.00  0.00    +0.000 A 
ATOM      2  C   UNL     1      -7.696  11.729  20.172  0.00  0.00    +0.000 A 
ATOM      3  C   UNL     1      -7.243  11.768  21.473  0.00  0.00    +0.000 A 
ATOM      4  C   UNL     1      -6.525  12.935  21.845  0.00  0.00    +0.000 A 
ATOM      5  C   UNL     1      -6.084  13.930  20.974  0.00  0.00    +0.000 A 
ATOM      6  C   UNL     1      -5.987  13.435  19.732  0.00  0.00    +0.000 A 
ATOM      7  O   UNL     1      -4.722  12.864  19.799  0.00  0.00    +0.000 OA
ATOM      8  C   UNL     1      -3.900  13.415  20.859  0.00  0.00    +0.000 C 
ATOM      9  C   UNL     1      -2.801  12.669  21.701  0.00  0.00    +0.000 A 
ATOM     10  N   UNL     1      -1.626  12.527  21.097  0.00  0.00    +0.000 NA
ATOM     11  C   UNL     1      -0.717  11.670  21.558  0.00  0.00    +0.000 A 
ATOM     12  C   UNL     1       0.509  11.629  20.946  0.00  0.00    +0.000 A 
ATOM     13  C   UNL     1       1.293  10.504  21.119  0.00  0.00    +0.000 A 
ATOM     14  C   UNL     1       0.809   9.428  21.885  0.00  0.00    +0.000 A 
ATOM     15  C   UNL     1      -0.346   9.576  22.663  0.00  0.00    +0.000 A 
ATOM     16  C   UNL     1      -1.068  10.754  22.562  0.00  0.00    +0.000 A 
ATOM     17  C   UNL     1      -2.080  11.119  23.452  0.00  0.00    +0.000 A 
ATOM     18  C   UNL     1      -2.822  12.250  23.139  0.00  0.00    +0.000 A 
ATOM     19  C   UNL     1      -3.705  12.992  24.292  0.00  0.00    +0.000 C 
ATOM     20  C   UNL     1      -5.002  14.099  23.392  0.00  0.00    +0.000 C 
ATOM     21  C   UNL     1      -4.294  14.781  23.622  0.00  0.00    +0.000 C 
ATOM     22  C   UNL     1      -5.704  12.987  23.136  0.00  0.00    +0.000 C 
ATOM     23  N   UNL     1      -2.868  15.037  22.956  0.00  0.00    +0.000 NA
ATOM     24  C   UNL     1      -2.907  16.113  21.948  0.00  0.00    +0.000 C 
ATOM     25  C   UNL     1      -3.863  15.658  20.884  0.00  0.00    +0.000 C 
ATOM     26  C   UNL     1      -4.756  14.496  21.517  0.00  0.00    +0.000 C 
ENDROOT
BRANCH   1  27
ATOM     27  O   UNL     1      -7.913  13.122  18.267  0.00  0.00    +0.000 OA
ATOM     28  H   UNL     1      -7.593  13.865  17.723  0.00  0.00    +0.000 HD
ENDBRANCH   1  27
BRANCH  20  29
ATOM     29  O   UNL     1      -6.103  14.968  24.099  0.00  0.00    +0.000 OA
ATOM     30  H   UNL     1      -6.503  15.607  23.450  0.00  0.00    +0.000 HD
ENDBRANCH  20  29
BRANCH  23  31
ATOM     31  C   UNL     1      -1.680  15.240  23.873  0.00  0.00    +0.000 C 
BRANCH  31  32
ATOM     32  C   UNL     1      -1.897  16.105  25.138  0.00  0.00    +0.000 C 
ATOM     33  F   UNL     1      -2.278  15.290  26.192  0.00  0.00    +0.000 F 
ENDBRANCH  31  32
ENDBRANCH  23  31
TORSDOF 4
ENDMDL
MODEL 3
REMARK VINA RESULT:      -6.2      8.053     10.517
REMARK  Name = 
REMARK  4 active torsions:
REMARK  status: ('A' for Active; 'I' for Inactive)
REMARK    1  A    between atoms: O_1  and  C_2
REMARK    2  A    between atoms: C_21  and  O_22
REMARK    3  A    between atoms: N_25  and  C_26
REMARK    4  A    between atoms: C_26  and  C_27
REMARK                            x       y       z     vdW  Elec       q    Type
REMARK                         _______ _______ _______ _____ _____    ______ ____
ROOT
ATOM      1  C   UNL     1      -2.027  10.018  17.623  0.00  0.00    +0.000 A 
ATOM      2  C   UNL     1      -0.759   9.459  17.447  0.00  0.00    +0.000 A 
ATOM      3  C   UNL     1       0.215   9.895  18.320  0.00  0.00    +0.000 A 
ATOM      4  C   UNL     1      -0.244  10.636  19.442  0.00  0.00    +0.000 A 
ATOM      5  C   UNL     1      -1.541  11.112  19.625  0.00  0.00    +0.000 A 
ATOM      6  C   UNL     1      -2.158  11.215  18.440  0.00  0.00    +0.000 A 
ATOM      7  O   UNL     1      -1.703  12.465  18.038  0.00  0.00    +0.000 OA
ATOM      8  C   UNL     1      -1.236  13.285  19.139  0.00  0.00    +0.000 C 
ATOM      9  C   UNL     1      -0.082  14.353  19.112  0.00  0.00    +0.000 A 
ATOM     10  N   UNL     1      -0.417  15.533  18.600  0.00  0.00    +0.000 NA
ATOM     11  C   UNL     1       0.514  16.415  18.242  0.00  0.00    +0.000 A 
ATOM     12  C   UNL     1       0.109  17.648  17.801  0.00  0.00    +0.000 A 
ATOM     13  C   UNL     1       0.993  18.402  17.053  0.00  0.00    +0.000 A 
ATOM     14  C   UNL     1       2.261  17.883  16.740  0.00  0.00    +0.000 A 
ATOM     15  C   UNL     1       2.725  16.720  17.370  0.00  0.00    +0.000 A 
ATOM     16  C   UNL     1       1.863  16.028  18.204  0.00  0.00    +0.000 A 
ATOM     17  C   UNL     1       2.274  15.013  19.070  0.00  0.00    +0.000 A 
ATOM     18  C   UNL     1       1.281  14.303  19.731  0.00  0.00    +0.000 A 
ATOM     19  C   UNL     1       1.650  13.422  21.052  0.00  0.00    +0.000 C 
ATOM     20  C   UNL     1       0.212  12.165  21.318  0.00  0.00    +0.000 C 
ATOM     21  C   UNL     1      -0.039  12.885  21.979  0.00  0.00    +0.000 C 
ATOM     22  C   UNL     1       0.723  11.440  20.313  0.00  0.00    +0.000 C 
ATOM     23  N   UNL     1      -0.673  14.326  21.726  0.00  0.00    +0.000 NA
ATOM     24  C   UNL     1      -2.140  14.327  21.887  0.00  0.00    +0.000 C 
ATOM     25  C   UNL     1      -2.676  13.376  20.857  0.00  0.00    +0.000 C 
ATOM     26  C   UNL     1      -1.462  12.446  20.396  0.00  0.00    +0.000 C 
ENDROOT
BRANCH   1  27
ATOM     27  O   UNL     1      -3.117   9.303  17.265  0.00  0.00    +0.000 OA
ATOM     28  H   UNL     1      -3.124   8.839  16.408  0.00  0.00    +0.000 HD
ENDBRANCH   1  27
BRANCH  20  29
ATOM     29  O   UNL     1       0.154  11.074  22.448  0.00  0.00    +0.000 OA
ATOM     30  H   UNL     1      -0.092  10.193  22.059  0.00  0.00    +0.000 HD
ENDBRANCH  20  29
BRANCH  23  31
ATOM     31  C   UNL     1      -0.078  15.506  22.466  0.00  0.00    +0.000 C 
BRANCH  31  32
ATOM     32  C   UNL     1      -0.334  16.916  21.881  0.00  0.00    +0.000 C 
ATOM     33  F   UNL     1       0.829  17.387  21.294  0.00  0.00    +0.000 F 
ENDBRANCH  31  32
ENDBRANCH  23  31
TORSDOF 4
ENDMDL
MODEL 4
REMARK VINA RESULT:      -6.2      8.724     11.122
REMARK  Name = 
REMARK  4 active torsions:
REMARK  status: ('A' for Active; 'I' for Inactive)
REMARK    1  A    between atoms: O_1  and  C_2
REMARK    2  A    between atoms: C_21  and  O_22
REMARK    3  A    between atoms: N_25  and  C_26
REMARK    4  A    between atoms: C_26  and  C_27
REMARK                            x       y       z     vdW  Elec       q    Type
REMARK                         _______ _______ _______ _____ _____    ______ ____
ROOT
ATOM      1  C   UNL     1       0.657  17.528  18.951  0.00  0.00    +0.000 A 
ATOM      2  C   UNL     1      -0.568  18.098  19.305  0.00  0.00    +0.000 A 
ATOM      3  C   UNL     1      -1.345  17.361  20.172  0.00  0.00    +0.000 A 
ATOM      4  C   UNL     1      -0.700  16.264  20.803  0.00  0.00    +0.000 A 
ATOM      5  C   UNL     1       0.562  15.767  20.478  0.00  0.00    +0.000 A 
ATOM      6  C   UNL     1       0.877  16.115  19.223  0.00  0.00    +0.000 A 
ATOM      7  O   UNL     1       0.242  15.097  18.523  0.00  0.00    +0.000 OA
ATOM      8  C   UNL     1      -0.022  13.923  19.334  0.00  0.00    +0.000 C 
ATOM      9  C   UNL     1      -1.234  12.928  19.207  0.00  0.00    +0.000 A 
ATOM     10  N   UNL     1      -1.123  12.024  18.240  0.00  0.00    +0.000 NA
ATOM     11  C   UNL     1      -2.179  11.326  17.828  0.00  0.00    +0.000 A 
ATOM     12  C   UNL     1      -1.988  10.347  16.888  0.00  0.00    +0.000 A 
ATOM     13  C   UNL     1      -3.080   9.912  16.160  0.00  0.00    +0.000 A 
ATOM     14  C   UNL     1      -4.340  10.497  16.376  0.00  0.00    +0.000 A 
ATOM     15  C   UNL     1      -4.550  11.341  17.476  0.00  0.00    +0.000 A 
ATOM     16  C   UNL     1      -3.465  11.686  18.264  0.00  0.00    +0.000 A 
ATOM     17  C   UNL     1      -3.580  12.305  19.510  0.00  0.00    +0.000 A 
ATOM     18  C   UNL     1      -2.407  12.732  20.117  0.00  0.00    +0.000 A 
ATOM     19  C   UNL     1      -2.387  13.060  21.714  0.00  0.00    +0.000 C 
ATOM     20  C   UNL     1      -0.830  14.146  22.054  0.00  0.00    +0.000 C 
ATOM     21  C   UNL     1      -0.492  13.235  22.328  0.00  0.00    +0.000 C 
ATOM     22  C   UNL     1      -1.500  15.185  21.535  0.00  0.00    +0.000 C 
ATOM     23  N   UNL     1      -0.052  11.996  21.425  0.00  0.00    +0.000 NA
ATOM     24  C   UNL     1       1.406  11.951  21.210  0.00  0.00    +0.000 C 
ATOM     25  C   UNL     1       1.764  13.221  20.494  0.00  0.00    +0.000 C 
ATOM     26  C   UNL     1       0.556  14.242  20.711  0.00  0.00    +0.000 C 
ENDROOT
BRANCH   1  27
ATOM     27  O   UNL     1       1.688  18.336  18.619  0.00  0.00    +0.000 OA
ATOM     28  H   UNL     1       2.555  18.204  19.045  0.00  0.00    +0.000 HD
ENDBRANCH   1  27
BRANCH  20  29
ATOM     29  O   UNL     1      -0.424  14.743  23.448  0.00  0.00    +0.000 OA
ATOM     30  H   UNL     1      -0.074  14.023  24.039  0.00  0.00    +0.000 HD
ENDBRANCH  20  29
BRANCH  23  31
ATOM     31  C   UNL     1      -0.552  10.620  21.813  0.00  0.00    +0.000 C 
BRANCH  31  32
ATOM     32  C   UNL     1      -0.213   9.446  20.863  0.00  0.00    +0.000 C 
ATOM     33  F   UNL     1      -0.532   8.247  21.482  0.00  0.00    +0.000 F 
ENDBRANCH  31  32
ENDBRANCH  23  31
TORSDOF 4
ENDMDL
MODEL 5
REMARK VINA RESULT:      -6.1      2.553      6.082
REMARK  Name = 
REMARK  4 active torsions:
REMARK  status: ('A' for Active; 'I' for Inactive)
REMARK    1  A    between atoms: O_1  and  C_2
REMARK    2  A    between atoms: C_21  and  O_22
REMARK    3  A    between atoms: N_25  and  C_26
REMARK    4  A    between atoms: C_26  and  C_27
REMARK                            x       y       z     vdW  Elec       q    Type
REMARK                         _______ _______ _______ _____ _____    ______ ____
ROOT
ATOM      1  C   UNL     1       6.251  12.094  25.244  0.00  0.00    +0.000 A 
ATOM      2  C   UNL     1       7.421  12.195  26.000  0.00  0.00    +0.000 A 
ATOM      3  C   UNL     1       8.265  13.233  25.666  0.00  0.00    +0.000 A 
ATOM      4  C   UNL     1       7.723  14.216  24.795  0.00  0.00    +0.000 A 
ATOM      5  C   UNL     1       6.510  14.119  24.115  0.00  0.00    +0.000 A 
ATOM      6  C   UNL     1       6.160  12.831  23.992  0.00  0.00    +0.000 A 
ATOM      7  O   UNL     1       6.882  12.493  22.855  0.00  0.00    +0.000 OA
ATOM      8  C   UNL     1       7.254  13.640  22.049  0.00  0.00    +0.000 C 
ATOM      9  C   UNL     1       8.549  13.814  21.175  0.00  0.00    +0.000 A 
ATOM     10  N   UNL     1       8.517  13.210  19.991  0.00  0.00    +0.000 NA
ATOM     11  C   UNL     1       9.630  13.021  19.286  0.00  0.00    +0.000 A 
ATOM     12  C   UNL     1       9.525  12.470  18.035  0.00  0.00    +0.000 A 
ATOM     13  C   UNL     1      10.648  11.894  17.474  0.00  0.00    +0.000 A 
ATOM     14  C   UNL     1      11.852  11.859  18.201  0.00  0.00    +0.000 A 
ATOM     15  C   UNL     1      11.989  12.604  19.380  0.00  0.00    +0.000 A 
ATOM     16  C   UNL     1      10.880  13.267  19.878  0.00  0.00    +0.000 A 
ATOM     17  C   UNL     1      10.943  14.229  20.889  0.00  0.00    +0.000 A 
ATOM     18  C   UNL     1       9.739  14.697  21.395  0.00  0.00    +0.000 A 
ATOM     19  C   UNL     1       9.695  16.091  22.239  0.00  0.00    +0.000 C 
ATOM     20  C   UNL     1       8.048  16.099  23.242  0.00  0.00    +0.000 C 
ATOM     21  C   UNL     1       7.794  16.674  22.452  0.00  0.00    +0.000 C 
ATOM     22  C   UNL     1       8.620  15.240  24.097  0.00  0.00    +0.000 C 
ATOM     23  N   UNL     1       7.464  16.255  20.949  0.00  0.00    +0.000 NA
ATOM     24  C   UNL     1       6.015  16.116  20.713  0.00  0.00    +0.000 C 
ATOM     25  C   UNL     1       5.542  15.029  21.632  0.00  0.00    +0.000 C 
ATOM     26  C   UNL     1       6.654  14.849  22.764  0.00  0.00    +0.000 C 
ENDROOT
BRANCH   1  27
ATOM     27  O   UNL     1       5.151  11.545  25.804  0.00  0.00    +0.000 OA
ATOM     28  H   UNL     1       4.558  10.998  25.256  0.00  0.00    +0.000 HD
ENDBRANCH   1  27
BRANCH  20  29
ATOM     29  O   UNL     1       7.595  17.226  24.238  0.00  0.00    +0.000 OA
ATOM     30  H   UNL     1       8.090  17.142  25.096  0.00  0.00    +0.000 HD
ENDBRANCH  20  29
BRANCH  23  31
ATOM     31  C   UNL     1       8.088  17.064  19.831  0.00  0.00    +0.000 C 
BRANCH  31  32
ATOM     32  C   UNL     1       8.184  16.397  18.437  0.00  0.00    +0.000 C 
ATOM     33  F   UNL     1       9.517  16.178  18.124  0.00  0.00    +0.000 F 
ENDBRANCH  31  32
ENDBRANCH  23  31
TORSDOF 4
ENDMDL
MODEL 6
REMARK VINA RESULT:      -6.1      8.094     10.845
REMARK  Name = 
REMARK  4 active torsions:
REMARK  status: ('A' for Active; 'I' for Inactive)
REMARK    1  A    between atoms: O_1  and  C_2
REMARK    2  A    between atoms: C_21  and  O_22
REMARK    3  A    between atoms: N_25  and  C_26
REMARK    4  A    between atoms: C_26  and  C_27
REMARK                            x       y       z     vdW  Elec       q    Type
REMARK                         _______ _______ _______ _____ _____    ______ ____
ROOT
ATOM      1  C   UNL     1      -3.463  13.509  23.881  0.00  0.00    +0.000 A 
ATOM      2  C   UNL     1      -4.041  14.525  23.117  0.00  0.00    +0.000 A 
ATOM      3  C   UNL     1      -3.714  14.529  21.778  0.00  0.00    +0.000 A 
ATOM      4  C   UNL     1      -3.062  13.363  21.295  0.00  0.00    +0.000 A 
ATOM      5  C   UNL     1      -2.565  12.326  22.082  0.00  0.00    +0.000 A 
ATOM      6  C   UNL     1      -2.339  12.768  23.327  0.00  0.00    +0.000 A 
ATOM      7  O   UNL     1      -1.073  13.316  23.162  0.00  0.00    +0.000 OA
ATOM      8  C   UNL     1      -0.368  12.791  22.008  0.00  0.00    +0.000 C 
ATOM      9  C   UNL     1       0.664  13.549  21.094  0.00  0.00    +0.000 A 
ATOM     10  N   UNL     1       1.894  13.643  21.588  0.00  0.00    +0.000 NA
ATOM     11  C   UNL     1       2.776  14.499  21.076  0.00  0.00    +0.000 A 
ATOM     12  C   UNL     1       4.055  14.491  21.569  0.00  0.00    +0.000 A 
ATOM     13  C   UNL     1       4.845  15.606  21.365  0.00  0.00    +0.000 A 
ATOM     14  C   UNL     1       4.317  16.721  20.690  0.00  0.00    +0.000 A 
ATOM     15  C   UNL     1       3.090  16.627  20.020  0.00  0.00    +0.000 A 
ATOM     16  C   UNL     1       2.353  15.461  20.145  0.00  0.00    +0.000 A 
ATOM     17  C   UNL     1       1.253  15.152  19.342  0.00  0.00    +0.000 A 
ATOM     18  C   UNL     1       0.518  14.025  19.681  0.00  0.00    +0.000 A 
ATOM     19  C   UNL     1      -0.488  13.348  18.591  0.00  0.00    +0.000 C 
ATOM     20  C   UNL     1      -1.720  12.232  19.567  0.00  0.00    +0.000 C 
ATOM     21  C   UNL     1      -1.054  11.545  19.245  0.00  0.00    +0.000 C 
ATOM     22  C   UNL     1      -2.368  13.347  19.931  0.00  0.00    +0.000 C 
ATOM     23  N   UNL     1       0.422  11.235  19.762  0.00  0.00    +0.000 NA
ATOM     24  C   UNL     1       0.454  10.120  20.728  0.00  0.00    +0.000 C 
ATOM     25  C   UNL     1      -0.387  10.551  21.894  0.00  0.00    +0.000 C 
ATOM     26  C   UNL     1      -1.308  11.756  21.394  0.00  0.00    +0.000 C 
ENDROOT
BRANCH   1  27
ATOM     27  O   UNL     1      -4.110  13.061  24.980  0.00  0.00    +0.000 OA
ATOM     28  H   UNL     1      -3.714  13.204  25.859  0.00  0.00    +0.000 HD
ENDBRANCH   1  27
BRANCH  20  29
ATOM     29  O   UNL     1      -2.903  11.415  18.936  0.00  0.00    +0.000 OA
ATOM     30  H   UNL     1      -2.828  11.415  17.944  0.00  0.00    +0.000 HD
ENDBRANCH  20  29
BRANCH  23  31
ATOM     31  C   UNL     1       1.514  11.045  18.729  0.00  0.00    +0.000 C 
BRANCH  31  32
ATOM     32  C   UNL     1       1.633   9.650  18.068  0.00  0.00    +0.000 C 
ATOM     33  F   UNL     1       0.427   9.322  17.469  0.00  0.00    +0.000 F 
ENDBRANCH  31  32
ENDBRANCH  23  31
TORSDOF 4
ENDMDL
MODEL 7
REMARK VINA RESULT:      -6.1      2.539      4.191
REMARK  Name = 
REMARK  4 active torsions:
REMARK  status: ('A' for Active; 'I' for Inactive)
REMARK    1  A    between atoms: O_1  and  C_2
REMARK    2  A    between atoms: C_21  and  O_22
REMARK    3  A    between atoms: N_25  and  C_26
REMARK    4  A    between atoms: C_26  and  C_27
REMARK                            x       y       z     vdW  Elec       q    Type
REMARK                         _______ _______ _______ _____ _____    ______ ____
ROOT
ATOM      1  C   UNL     1      11.301  12.618  17.683  0.00  0.00    +0.000 A 
ATOM      2  C   UNL     1      11.418  13.539  16.639  0.00  0.00    +0.000 A 
ATOM      3  C   UNL     1      11.141  14.850  16.961  0.00  0.00    +0.000 A 
ATOM      4  C   UNL     1      11.041  15.140  18.348  0.00  0.00    +0.000 A 
ATOM      5  C   UNL     1      11.006  14.197  19.374  0.00  0.00    +0.000 A 
ATOM      6  C   UNL     1      10.596  13.015  18.892  0.00  0.00    +0.000 A 
ATOM      7  O   UNL     1       9.220  13.197  18.946  0.00  0.00    +0.000 OA
ATOM      8  C   UNL     1       8.816  14.237  19.874  0.00  0.00    +0.000 C 
ATOM      9  C   UNL     1       7.579  15.199  19.750  0.00  0.00    +0.000 A 
ATOM     10  N   UNL     1       6.413  14.669  20.103  0.00  0.00    +0.000 NA
ATOM     11  C   UNL     1       5.263  15.254  19.771  0.00  0.00    +0.000 A 
ATOM     12  C   UNL     1       4.095  14.708  20.237  0.00  0.00    +0.000 A 
ATOM     13  C   UNL     1       2.917  15.027  19.590  0.00  0.00    +0.000 A 
ATOM     14  C   UNL     1       2.945  15.871  18.465  0.00  0.00    +0.000 A 
ATOM     15  C   UNL     1       4.111  16.575  18.138  0.00  0.00    +0.000 A 
ATOM     16  C   UNL     1       5.263  16.325  18.864  0.00  0.00    +0.000 A 
ATOM     17  C   UNL     1       6.406  17.126  18.802  0.00  0.00    +0.000 A 
ATOM     18  C   UNL     1       7.537  16.669  19.463  0.00  0.00    +0.000 A 
ATOM     19  C   UNL     1       8.751  17.700  19.812  0.00  0.00    +0.000 C 
ATOM     20  C   UNL     1      10.319  16.636  20.167  0.00  0.00    +0.000 C 
ATOM     21  C   UNL     1      10.004  16.831  21.106  0.00  0.00    +0.000 C 
ATOM     22  C   UNL     1      10.439  16.456  18.844  0.00  0.00    +0.000 C 
ATOM     23  N   UNL     1       8.781  16.212  21.921  0.00  0.00    +0.000 NA
ATOM     24  C   UNL     1       9.200  15.102  22.799  0.00  0.00    +0.000 C 
ATOM     25  C   UNL     1       9.766  14.044  21.898  0.00  0.00    +0.000 C 
ATOM     26  C   UNL     1      10.111  14.744  20.505  0.00  0.00    +0.000 C 
ENDROOT
BRANCH   1  27
ATOM     27  O   UNL     1      12.058  11.498  17.660  0.00  0.00    +0.000 OA
ATOM     28  H   UNL     1      11.924  10.844  16.950  0.00  0.00    +0.000 HD
ENDBRANCH   1  27
BRANCH  20  29
ATOM     29  O   UNL     1      11.746  17.201  20.503  0.00  0.00    +0.000 OA
ATOM     30  H   UNL     1      11.934  17.097  21.474  0.00  0.00    +0.000 HD
ENDBRANCH  20  29
BRANCH  23  31
ATOM     31  C   UNL     1       7.885  17.159  22.690  0.00  0.00    +0.000 C 
BRANCH  31  32
ATOM     32  C   UNL     1       6.466  16.659  23.055  0.00  0.00    +0.000 C 
ATOM     33  F   UNL     1       5.534  17.299  22.254  0.00  0.00    +0.000 F 
ENDBRANCH  31  32
ENDBRANCH  23  31
TORSDOF 4
ENDMDL
MODEL 8
REMARK VINA RESULT:      -5.9      5.295      7.182
REMARK  Name = 
REMARK  4 active torsions:
REMARK  status: ('A' for Active; 'I' for Inactive)
REMARK    1  A    between atoms: O_1  and  C_2
REMARK    2  A    between atoms: C_21  and  O_22
REMARK    3  A    between atoms: N_25  and  C_26
REMARK    4  A    between atoms: C_26  and  C_27
REMARK                            x       y       z     vdW  Elec       q    Type
REMARK                         _______ _______ _______ _____ _____    ______ ____
ROOT
ATOM      1  C   UNL     1       6.519  14.550  23.399  0.00  0.00    +0.000 A 
ATOM      2  C   UNL     1       7.398  14.005  22.460  0.00  0.00    +0.000 A 
ATOM      3  C   UNL     1       7.077  14.227  21.138  0.00  0.00    +0.000 A 
ATOM      4  C   UNL     1       6.066  15.195  20.899  0.00  0.00    +0.000 A 
ATOM      5  C   UNL     1       5.257  15.781  21.871  0.00  0.00    +0.000 A 
ATOM      6  C   UNL     1       5.206  14.994  22.955  0.00  0.00    +0.000 A 
ATOM      7  O   UNL     1       4.196  14.120  22.570  0.00  0.00    +0.000 OA
ATOM      8  C   UNL     1       3.344  14.654  21.525  0.00  0.00    +0.000 C 
ATOM      9  C   UNL     1       2.618  13.852  20.383  0.00  0.00    +0.000 A 
ATOM     10  N   UNL     1       1.497  13.240  20.748  0.00  0.00    +0.000 NA
ATOM     11  C   UNL     1       0.949  12.298  19.982  0.00  0.00    +0.000 A 
ATOM     12  C   UNL     1      -0.253  11.762  20.367  0.00  0.00    +0.000 A 
ATOM     13  C   UNL     1      -0.624  10.538  19.845  0.00  0.00    +0.000 A 
ATOM     14  C   UNL     1       0.241   9.863  18.966  0.00  0.00    +0.000 A 
ATOM     15  C   UNL     1       1.359  10.518  18.430  0.00  0.00    +0.000 A 
ATOM     16  C   UNL     1       1.661  11.791  18.884  0.00  0.00    +0.000 A 
ATOM     17  C   UNL     1       2.584  12.634  18.261  0.00  0.00    +0.000 A 
ATOM     18  C   UNL     1       2.901  13.818  18.913  0.00  0.00    +0.000 A 
ATOM     19  C   UNL     1       3.609  15.037  18.092  0.00  0.00    +0.000 C 
ATOM     20  C   UNL     1       4.403  16.216  19.395  0.00  0.00    +0.000 C 
ATOM     21  C   UNL     1       3.541  16.703  19.197  0.00  0.00    +0.000 C 
ATOM     22  C   UNL     1       5.393  15.321  19.531  0.00  0.00    +0.000 C 
ATOM     23  N   UNL     1       2.053  16.372  19.662  0.00  0.00    +0.000 NA
ATOM     24  C   UNL     1       1.658  17.137  20.860  0.00  0.00    +0.000 C 
ATOM     25  C   UNL     1       2.606  16.729  21.949  0.00  0.00    +0.000 C 
ATOM     26  C   UNL     1       3.874  16.059  21.247  0.00  0.00    +0.000 C 
ENDROOT
BRANCH   1  27
ATOM     27  O   UNL     1       6.989  14.897  24.617  0.00  0.00    +0.000 OA
ATOM     28  H   UNL     1       7.685  15.576  24.686  0.00  0.00    +0.000 HD
ENDBRANCH   1  27
BRANCH  20  29
ATOM     29  O   UNL     1       5.236  17.506  19.067  0.00  0.00    +0.000 OA
ATOM     30  H   UNL     1       5.829  17.340  18.285  0.00  0.00    +0.000 HD
ENDBRANCH  20  29
BRANCH  23  31
ATOM     31  C   UNL     1       0.951  16.444  18.626  0.00  0.00    +0.000 C 
BRANCH  31  32
ATOM     32  C   UNL     1      -0.369  15.696  18.937  0.00  0.00    +0.000 C 
ATOM     33  F   UNL     1      -0.418  14.524  18.197  0.00  0.00    +0.000 F 
ENDBRANCH  31  32
ENDBRANCH  23  31
TORSDOF 4
ENDMDL
MODEL 9
REMARK VINA RESULT:      -5.9      7.182      9.195
REMARK  Name = 
REMARK  4 active torsions:
REMARK  status: ('A' for Active; 'I' for Inactive)
REMARK    1  A    between atoms: O_1  and  C_2
REMARK    2  A    between atoms: C_21  and  O_22
REMARK    3  A    between atoms: N_25  and  C_26
REMARK    4  A    between atoms: C_26  and  C_27
REMARK                            x       y       z     vdW  Elec       q    Type
REMARK                         _______ _______ _______ _____ _____    ______ ____
ROOT
ATOM      1  C   UNL     1       3.971  15.923  21.255  0.00  0.00    +0.000 A 
ATOM      2  C   UNL     1       4.369  15.947  19.916  0.00  0.00    +0.000 A 
ATOM      3  C   UNL     1       3.421  15.544  19.000  0.00  0.00    +0.000 A 
ATOM      4  C   UNL     1       2.095  15.419  19.495  0.00  0.00    +0.000 A 
ATOM      5  C   UNL     1       1.719  15.480  20.836  0.00  0.00    +0.000 A 
ATOM      6  C   UNL     1       2.769  15.185  21.615  0.00  0.00    +0.000 A 
ATOM      7  O   UNL     1       2.694  13.798  21.606  0.00  0.00    +0.000 OA
ATOM      8  C   UNL     1       1.381  13.298  21.250  0.00  0.00    +0.000 C 
ATOM      9  C   UNL     1       1.042  11.972  20.474  0.00  0.00    +0.000 A 
ATOM     10  N   UNL     1       1.077  10.864  21.208  0.00  0.00    +0.000 NA
ATOM     11  C   UNL     1       1.109   9.662  20.634  0.00  0.00    +0.000 A 
ATOM     12  C   UNL     1       1.057   8.554  21.440  0.00  0.00    +0.000 A 
ATOM     13  C   UNL     1       1.496   7.349  20.928  0.00  0.00    +0.000 A 
ATOM     14  C   UNL     1       2.009   7.291  19.619  0.00  0.00    +0.000 A 
ATOM     15  C   UNL     1       1.860   8.383  18.753  0.00  0.00    +0.000 A 
ATOM     16  C   UNL     1       1.318   9.556  19.250  0.00  0.00    +0.000 A 
ATOM     17  C   UNL     1       0.895  10.614  18.444  0.00  0.00    +0.000 A 
ATOM     18  C   UNL     1       0.517  11.787  19.084  0.00  0.00    +0.000 A 
ATOM     19  C   UNL     1      -0.380  12.895  18.293  0.00  0.00    +0.000 C 
ATOM     20  C   UNL     1      -0.201  14.561  19.249  0.00  0.00    +0.000 C 
ATOM     21  C   UNL     1      -1.086  14.230  19.605  0.00  0.00    +0.000 C 
ATOM     22  C   UNL     1       1.012  14.694  18.693  0.00  0.00    +0.000 C 
ATOM     23  N   UNL     1      -1.394  13.076  20.661  0.00  0.00    +0.000 NA
ATOM     24  C   UNL     1      -1.578  13.603  22.027  0.00  0.00    +0.000 C 
ATOM     25  C   UNL     1      -0.285  14.267  22.399  0.00  0.00    +0.000 C 
ATOM     26  C   UNL     1       0.515  14.539  21.044  0.00  0.00    +0.000 C 
ENDROOT
BRANCH   1  27
ATOM     27  O   UNL     1       4.540  16.784  22.127  0.00  0.00    +0.000 OA
ATOM     28  H   UNL     1       4.506  17.742  21.944  0.00  0.00    +0.000 HD
ENDBRANCH   1  27
BRANCH  20  29
ATOM     29  O   UNL     1      -0.852  15.926  18.828  0.00  0.00    +0.000 OA
ATOM     30  H   UNL     1      -0.408  16.678  19.305  0.00  0.00    +0.000 HD
ENDBRANCH  20  29
BRANCH  23  31
ATOM     31  C   UNL     1      -2.501  12.094  20.340  0.00  0.00    +0.000 C 
BRANCH  31  32
ATOM     32  C   UNL     1      -3.935  12.660  20.196  0.00  0.00    +0.000 C 
ATOM     33  F   UNL     1      -4.639  12.430  21.367  0.00  0.00    +0.000 F 
ENDBRANCH  31  32
ENDBRANCH  23  31
TORSDOF 4
ENDMDL
