MODEL 1
REMARK VINA RESULT:      -6.2      0.000      0.000
REMARK  Name = 
REMARK  15 active torsions:
REMARK  status: ('A' for Active; 'I' for Inactive)
REMARK    1  A    between atoms: N_1  and  C_2
REMARK    2  A    between atoms: C_2  and  C_3
REMARK    3  A    between atoms: C_3  and  C_4
REMARK    4  A    between atoms: C_4  and  C_5
REMARK    5  A    between atoms: C_5  and  C_6
REMARK    6  A    between atoms: C_6  and  C_7
REMARK    7  A    between atoms: C_7  and  N_8
REMARK    8  A    between atoms: N_8  and  C_9
REMARK    9  A    between atoms: N_8  and  C_16
REMARK   10  A    between atoms: C_9  and  C_10
REMARK   11  A    between atoms: C_10  and  C_11
REMARK   12  A    between atoms: C_11  and  C_12
REMARK   13  A    between atoms: C_12  and  C_13
REMARK   14  A    between atoms: C_13  and  C_14
REMARK   15  A    between atoms: C_14  and  N_15
REMARK                            x       y       z     vdW  Elec       q    Type
REMARK                         _______ _______ _______ _____ _____    ______ ____
ROOT
ATOM      1  N   UNL     1       3.406   5.710  17.937  0.00  0.00    +0.000 NA
ENDROOT
BRANCH   1   2
ATOM      2  C   UNL     1       3.759   5.175  19.296  0.00  0.00    +0.000 C 
ATOM      3  C   UNL     1       2.652   5.081  20.365  0.00  0.00    +0.000 C 
ATOM      4  S   UNL     1       1.293   3.940  19.940  0.00  0.00    +0.000 S 
ATOM      5  C   UNL     1       2.288   2.440  19.651  0.00  0.00    +0.000 C 
ATOM      6  C   UNL     1       3.401   2.684  18.653  0.00  0.00    +0.000 C 
ATOM      7  C   UNL     1       4.332   3.760  19.165  0.00  0.00    +0.000 C 
ATOM      8  O   UNL     1       5.508   3.508  19.449  0.00  0.00    +0.000 OA
ENDBRANCH   1   2
BRANCH   1   9
ATOM      9  C   UNL     1       3.374   7.194  17.931  0.00  0.00    +0.000 C 
BRANCH   9  10
ATOM     10  C   UNL     1       2.015   7.796  18.327  0.00  0.00    +0.000 C 
BRANCH  10  11
ATOM     11  C   UNL     1       1.879   9.274  17.931  0.00  0.00    +0.000 C 
BRANCH  11  12
ATOM     12  C   UNL     1       0.784   9.940  18.771  0.00  0.00    +0.000 C 
BRANCH  12  13
ATOM     13  C   UNL     1      -0.510  10.160  17.987  0.00  0.00    +0.000 C 
BRANCH  13  14
ATOM     14  C   UNL     1      -1.159  11.487  18.389  0.00  0.00    +0.000 C 
BRANCH  14  15
ATOM     15  N   UNL     1      -1.651  12.195  17.215  0.00  0.00    +0.000 NA
ATOM     16  H   UNL     1      -1.973  13.123  17.494  0.00  0.00    +0.000 HD
ATOM     17  H   UNL     1      -2.466  11.714  16.838  0.00  0.00    +0.000 HD
ENDBRANCH  14  15
ENDBRANCH  13  14
ENDBRANCH  12  13
ENDBRANCH  11  12
ENDBRANCH  10  11
ENDBRANCH   9  10
ENDBRANCH   1   9
BRANCH   1  18
ATOM     18  C   UNL     1       4.302   5.150  16.885  0.00  0.00    +0.000 C 
BRANCH  18  19
ATOM     19  C   UNL     1       5.291   6.163  16.304  0.00  0.00    +0.000 C 
BRANCH  19  20
ATOM     20  C   UNL     1       6.747   5.955  16.711  0.00  0.00    +0.000 C 
BRANCH  20  21
ATOM     21  C   UNL     1       7.232   7.264  17.347  0.00  0.00    +0.000 C 
BRANCH  21  22
ATOM     22  C   UNL     1       8.096   7.058  18.583  0.00  0.00    +0.000 C 
BRANCH  22  23
ATOM     23  C   UNL     1       8.066   5.587  19.002  0.00  0.00    +0.000 C 
BRANCH  23  24
ATOM     24  N   UNL     1       7.878   5.472  20.441  0.00  0.00    +0.000 NA
ATOM     25  H   UNL     1       7.073   4.877  20.632  0.00  0.00    +0.000 HD
ATOM     26  H   UNL     1       7.655   6.384  20.825  0.00  0.00    +0.000 HD
ENDBRANCH  23  24
ENDBRANCH  22  23
ENDBRANCH  21  22
ENDBRANCH  20  21
ENDBRANCH  19  20
ENDBRANCH  18  19
ENDBRANCH   1  18
TORSDOF 15
ENDMDL
MODEL 2
REMARK VINA RESULT:      -6.1      2.029      5.963
REMARK  Name = 
REMARK  15 active torsions:
REMARK  status: ('A' for Active; 'I' for Inactive)
REMARK    1  A    between atoms: N_1  and  C_2
REMARK    2  A    between atoms: C_2  and  C_3
REMARK    3  A    between atoms: C_3  and  C_4
REMARK    4  A    between atoms: C_4  and  C_5
REMARK    5  A    between atoms: C_5  and  C_6
REMARK    6  A    between atoms: C_6  and  C_7
REMARK    7  A    between atoms: C_7  and  N_8
REMARK    8  A    between atoms: N_8  and  C_9
REMARK    9  A    between atoms: N_8  and  C_16
REMARK   10  A    between atoms: C_9  and  C_10
REMARK   11  A    between atoms: C_10  and  C_11
REMARK   12  A    between atoms: C_11  and  C_12
REMARK   13  A    between atoms: C_12  and  C_13
REMARK   14  A    between atoms: C_13  and  C_14
REMARK   15  A    between atoms: C_14  and  N_15
REMARK                            x       y       z     vdW  Elec       q    Type
REMARK                         _______ _______ _______ _____ _____    ______ ____
ROOT
ATOM      1  N   UNL     1       4.041   4.544  18.494  0.00  0.00    +0.000 NA
ENDROOT
BRANCH   1   2
ATOM      2  C   UNL     1       3.128   3.359  18.356  0.00  0.00    +0.000 C 
ATOM      3  C   UNL     1       3.284   2.185  19.343  0.00  0.00    +0.000 C 
ATOM      4  S   UNL     1       2.947   2.618  21.084  0.00  0.00    +0.000 S 
ATOM      5  C   UNL     1       1.268   3.295  20.867  0.00  0.00    +0.000 C 
ATOM      6  C   UNL     1       1.227   4.374  19.805  0.00  0.00    +0.000 C 
ATOM      7  C   UNL     1       1.669   3.810  18.474  0.00  0.00    +0.000 C 
ATOM      8  O   UNL     1       0.887   3.735  17.519  0.00  0.00    +0.000 OA
ENDBRANCH   1   2
BRANCH   1   9
ATOM      9  C   UNL     1       5.447   4.122  18.714  0.00  0.00    +0.000 C 
BRANCH   9  10
ATOM     10  C   UNL     1       6.465   4.821  17.797  0.00  0.00    +0.000 C 
BRANCH  10  11
ATOM     11  C   UNL     1       7.818   5.062  18.481  0.00  0.00    +0.000 C 
BRANCH  11  12
ATOM     12  C   UNL     1       8.015   6.560  18.737  0.00  0.00    +0.000 C 
BRANCH  12  13
ATOM     13  C   UNL     1       7.521   7.426  17.578  0.00  0.00    +0.000 C 
BRANCH  13  14
ATOM     14  C   UNL     1       8.007   8.869  17.745  0.00  0.00    +0.000 C 
BRANCH  14  15
ATOM     15  N   UNL     1       8.805   9.005  18.957  0.00  0.00    +0.000 NA
ATOM     16  H   UNL     1       9.705   9.425  18.719  0.00  0.00    +0.000 HD
ATOM     17  H   UNL     1       9.013   8.085  19.339  0.00  0.00    +0.000 HD
ENDBRANCH  14  15
ENDBRANCH  13  14
ENDBRANCH  12  13
ENDBRANCH  11  12
ENDBRANCH  10  11
ENDBRANCH   9  10
ENDBRANCH   1   9
BRANCH   1  18
ATOM     18  C   UNL     1       3.895   5.478  17.341  0.00  0.00    +0.000 C 
BRANCH  18  19
ATOM     19  C   UNL     1       3.794   6.951  17.742  0.00  0.00    +0.000 C 
BRANCH  19  20
ATOM     20  C   UNL     1       2.387   7.436  18.084  0.00  0.00    +0.000 C 
BRANCH  20  21
ATOM     21  C   UNL     1       2.300   8.908  17.661  0.00  0.00    +0.000 C 
BRANCH  21  22
ATOM     22  C   UNL     1       1.018   9.595  18.110  0.00  0.00    +0.000 C 
BRANCH  22  23
ATOM     23  C   UNL     1       1.348  10.915  18.808  0.00  0.00    +0.000 C 
BRANCH  23  24
ATOM     24  N   UNL     1       1.927  11.859  17.863  0.00  0.00    +0.000 NA
ATOM     25  H   UNL     1       2.677  12.377  18.317  0.00  0.00    +0.000 HD
ATOM     26  H   UNL     1       1.226  12.544  17.602  0.00  0.00    +0.000 HD
ENDBRANCH  23  24
ENDBRANCH  22  23
ENDBRANCH  21  22
ENDBRANCH  20  21
ENDBRANCH  19  20
ENDBRANCH  18  19
ENDBRANCH   1  18
TORSDOF 15
ENDMDL
MODEL 3
REMARK VINA RESULT:      -6.0      3.563      5.702
REMARK  Name = 
REMARK  15 active torsions:
REMARK  status: ('A' for Active; 'I' for Inactive)
REMARK    1  A    between atoms: N_1  and  C_2
REMARK    2  A    between atoms: C_2  and  C_3
REMARK    3  A    between atoms: C_3  and  C_4
REMARK    4  A    between atoms: C_4  and  C_5
REMARK    5  A    between atoms: C_5  and  C_6
REMARK    6  A    between atoms: C_6  and  C_7
REMARK    7  A    between atoms: C_7  and  N_8
REMARK    8  A    between atoms: N_8  and  C_9
REMARK    9  A    between atoms: N_8  and  C_16
REMARK   10  A    between atoms: C_9  and  C_10
REMARK   11  A    between atoms: C_10  and  C_11
REMARK   12  A    between atoms: C_11  and  C_12
REMARK   13  A    between atoms: C_12  and  C_13
REMARK   14  A    between atoms: C_13  and  C_14
REMARK   15  A    between atoms: C_14  and  N_15
REMARK                            x       y       z     vdW  Elec       q    Type
REMARK                         _______ _______ _______ _____ _____    ______ ____
ROOT
ATOM      1  N   UNL     1       4.405   4.821  18.327  0.00  0.00    +0.000 NA
ENDROOT
BRANCH   1   2
ATOM      2  C   UNL     1       3.016   5.377  18.190  0.00  0.00    +0.000 C 
ATOM      3  C   UNL     1       1.895   4.452  17.675  0.00  0.00    +0.000 C 
ATOM      4  S   UNL     1       1.539   3.029  18.762  0.00  0.00    +0.000 S 
ATOM      5  C   UNL     1       1.206   3.949  20.300  0.00  0.00    +0.000 C 
ATOM      6  C   UNL     1       2.337   4.893  20.649  0.00  0.00    +0.000 C 
ATOM      7  C   UNL     1       2.530   5.906  19.543  0.00  0.00    +0.000 C 
ATOM      8  O   UNL     1       2.320   7.109  19.732  0.00  0.00    +0.000 OA
ENDBRANCH   1   2
BRANCH   1   9
ATOM      9  C   UNL     1       4.858   4.177  17.069  0.00  0.00    +0.000 C 
BRANCH   9  10
ATOM     10  C   UNL     1       4.948   5.135  15.869  0.00  0.00    +0.000 C 
BRANCH  10  11
ATOM     11  C   UNL     1       6.258   4.982  15.081  0.00  0.00    +0.000 C 
BRANCH  11  12
ATOM     12  C   UNL     1       6.231   3.680  14.274  0.00  0.00    +0.000 C 
BRANCH  12  13
ATOM     13  C   UNL     1       6.364   3.915  12.769  0.00  0.00    +0.000 C 
BRANCH  13  14
ATOM     14  C   UNL     1       5.593   2.845  11.991  0.00  0.00    +0.000 C 
BRANCH  14  15
ATOM     15  N   UNL     1       4.306   3.362  11.543  0.00  0.00    +0.000 NA
ATOM     16  H   UNL     1       4.278   4.371  11.701  0.00  0.00    +0.000 HD
ATOM     17  H   UNL     1       3.559   2.966  12.109  0.00  0.00    +0.000 HD
ENDBRANCH  14  15
ENDBRANCH  13  14
ENDBRANCH  12  13
ENDBRANCH  11  12
ENDBRANCH  10  11
ENDBRANCH   9  10
ENDBRANCH   1   9
BRANCH   1  18
ATOM     18  C   UNL     1       5.357   5.857  18.818  0.00  0.00    +0.000 C 
BRANCH  18  19
ATOM     19  C   UNL     1       6.772   5.333  19.073  0.00  0.00    +0.000 C 
BRANCH  19  20
ATOM     20  C   UNL     1       7.892   6.335  18.808  0.00  0.00    +0.000 C 
BRANCH  20  21
ATOM     21  C   UNL     1       7.542   7.075  17.511  0.00  0.00    +0.000 C 
BRANCH  21  22
ATOM     22  C   UNL     1       7.607   8.591  17.638  0.00  0.00    +0.000 C 
BRANCH  22  23
ATOM     23  C   UNL     1       8.684   8.985  18.649  0.00  0.00    +0.000 C 
BRANCH  23  24
ATOM     24  N   UNL     1       9.115  10.357  18.425  0.00  0.00    +0.000 NA
ATOM     25  H   UNL     1       8.526  10.990  18.965  0.00  0.00    +0.000 HD
ATOM     26  H   UNL     1       8.974  10.599  17.451  0.00  0.00    +0.000 HD
ENDBRANCH  23  24
ENDBRANCH  22  23
ENDBRANCH  21  22
ENDBRANCH  20  21
ENDBRANCH  19  20
ENDBRANCH  18  19
ENDBRANCH   1  18
TORSDOF 15
ENDMDL
MODEL 4
REMARK VINA RESULT:      -6.0      2.410      6.396
REMARK  Name = 
REMARK  15 active torsions:
REMARK  status: ('A' for Active; 'I' for Inactive)
REMARK    1  A    between atoms: N_1  and  C_2
REMARK    2  A    between atoms: C_2  and  C_3
REMARK    3  A    between atoms: C_3  and  C_4
REMARK    4  A    between atoms: C_4  and  C_5
REMARK    5  A    between atoms: C_5  and  C_6
REMARK    6  A    between atoms: C_6  and  C_7
REMARK    7  A    between atoms: C_7  and  N_8
REMARK    8  A    between atoms: N_8  and  C_9
REMARK    9  A    between atoms: N_8  and  C_16
REMARK   10  A    between atoms: C_9  and  C_10
REMARK   11  A    between atoms: C_10  and  C_11
REMARK   12  A    between atoms: C_11  and  C_12
REMARK   13  A    between atoms: C_12  and  C_13
REMARK   14  A    between atoms: C_13  and  C_14
REMARK   15  A    between atoms: C_14  and  N_15
REMARK                            x       y       z     vdW  Elec       q    Type
REMARK                         _______ _______ _______ _____ _____    ______ ____
ROOT
ATOM      1  N   UNL     1       4.504   4.777  18.469  0.00  0.00    +0.000 NA
ENDROOT
BRANCH   1   2
ATOM      2  C   UNL     1       5.873   5.208  18.025  0.00  0.00    +0.000 C 
ATOM      3  C   UNL     1       6.716   4.236  17.176  0.00  0.00    +0.000 C 
ATOM      4  S   UNL     1       5.990   3.837  15.550  0.00  0.00    +0.000 S 
ATOM      5  C   UNL     1       5.806   5.537  14.918  0.00  0.00    +0.000 C 
ATOM      6  C   UNL     1       5.043   6.419  15.884  0.00  0.00    +0.000 C 
ATOM      7  C   UNL     1       5.773   6.497  17.206  0.00  0.00    +0.000 C 
ATOM      8  O   UNL     1       6.252   7.563  17.610  0.00  0.00    +0.000 OA
ENDBRANCH   1   2
BRANCH   1   9
ATOM      9  C   UNL     1       4.522   3.399  19.020  0.00  0.00    +0.000 C 
BRANCH   9  10
ATOM     10  C   UNL     1       3.688   2.388  18.215  0.00  0.00    +0.000 C 
BRANCH  10  11
ATOM     11  C   UNL     1       2.269   2.892  17.913  0.00  0.00    +0.000 C 
BRANCH  11  12
ATOM     12  C   UNL     1       1.282   2.310  18.930  0.00  0.00    +0.000 C 
BRANCH  12  13
ATOM     13  C   UNL     1       1.004   3.260  20.095  0.00  0.00    +0.000 C 
BRANCH  13  14
ATOM     14  C   UNL     1       1.342   2.586  21.427  0.00  0.00    +0.000 C 
BRANCH  14  15
ATOM     15  N   UNL     1       2.446   3.273  22.085  0.00  0.00    +0.000 NA
ATOM     16  H   UNL     1       3.210   2.612  22.235  0.00  0.00    +0.000 HD
ATOM     17  H   UNL     1       2.157   3.585  23.010  0.00  0.00    +0.000 HD
ENDBRANCH  14  15
ENDBRANCH  13  14
ENDBRANCH  12  13
ENDBRANCH  11  12
ENDBRANCH  10  11
ENDBRANCH   9  10
ENDBRANCH   1   9
BRANCH   1  18
ATOM     18  C   UNL     1       3.904   5.765  19.410  0.00  0.00    +0.000 C 
BRANCH  18  19
ATOM     19  C   UNL     1       2.513   6.251  18.998  0.00  0.00    +0.000 C 
BRANCH  19  20
ATOM     20  C   UNL     1       2.219   7.716  19.311  0.00  0.00    +0.000 C 
BRANCH  20  21
ATOM     21  C   UNL     1       2.261   8.481  17.982  0.00  0.00    +0.000 C 
BRANCH  21  22
ATOM     22  C   UNL     1       1.119   9.474  17.814  0.00  0.00    +0.000 C 
BRANCH  22  23
ATOM     23  C   UNL     1       1.253  10.602  18.837  0.00  0.00    +0.000 C 
BRANCH  23  24
ATOM     24  N   UNL     1       0.628  11.818  18.338  0.00  0.00    +0.000 NA
ATOM     25  H   UNL     1       1.183  12.195  17.571  0.00  0.00    +0.000 HD
ATOM     26  H   UNL     1       0.635  12.523  19.068  0.00  0.00    +0.000 HD
ENDBRANCH  23  24
ENDBRANCH  22  23
ENDBRANCH  21  22
ENDBRANCH  20  21
ENDBRANCH  19  20
ENDBRANCH  18  19
ENDBRANCH   1  18
TORSDOF 15
ENDMDL
MODEL 5
REMARK VINA RESULT:      -6.0      2.342      6.555
REMARK  Name = 
REMARK  15 active torsions:
REMARK  status: ('A' for Active; 'I' for Inactive)
REMARK    1  A    between atoms: N_1  and  C_2
REMARK    2  A    between atoms: C_2  and  C_3
REMARK    3  A    between atoms: C_3  and  C_4
REMARK    4  A    between atoms: C_4  and  C_5
REMARK    5  A    between atoms: C_5  and  C_6
REMARK    6  A    between atoms: C_6  and  C_7
REMARK    7  A    between atoms: C_7  and  N_8
REMARK    8  A    between atoms: N_8  and  C_9
REMARK    9  A    between atoms: N_8  and  C_16
REMARK   10  A    between atoms: C_9  and  C_10
REMARK   11  A    between atoms: C_10  and  C_11
REMARK   12  A    between atoms: C_11  and  C_12
REMARK   13  A    between atoms: C_12  and  C_13
REMARK   14  A    between atoms: C_13  and  C_14
REMARK   15  A    between atoms: C_14  and  N_15
REMARK                            x       y       z     vdW  Elec       q    Type
REMARK                         _______ _______ _______ _____ _____    ______ ____
ROOT
ATOM      1  N   UNL     1       3.951   5.644  17.998  0.00  0.00    +0.000 NA
ENDROOT
BRANCH   1   2
ATOM      2  C   UNL     1       5.075   6.466  17.436  0.00  0.00    +0.000 C 
ATOM      3  C   UNL     1       6.492   6.276  18.013  0.00  0.00    +0.000 C 
ATOM      4  S   UNL     1       7.188   4.609  17.759  0.00  0.00    +0.000 S 
ATOM      5  C   UNL     1       7.020   4.526  15.946  0.00  0.00    +0.000 C 
ATOM      6  C   UNL     1       5.605   4.824  15.496  0.00  0.00    +0.000 C 
ATOM      7  C   UNL     1       5.203   6.215  15.930  0.00  0.00    +0.000 C 
ATOM      8  O   UNL     1       4.971   7.102  15.102  0.00  0.00    +0.000 OA
ENDBRANCH   1   2
BRANCH   1   9
ATOM      9  C   UNL     1       4.227   5.230  19.396  0.00  0.00    +0.000 C 
BRANCH   9  10
ATOM     10  C   UNL     1       2.976   5.141  20.285  0.00  0.00    +0.000 C 
BRANCH  10  11
ATOM     11  C   UNL     1       2.630   3.700  20.686  0.00  0.00    +0.000 C 
BRANCH  11  12
ATOM     12  C   UNL     1       1.136   3.441  20.465  0.00  0.00    +0.000 C 
BRANCH  12  13
ATOM     13  C   UNL     1       0.813   3.036  19.027  0.00  0.00    +0.000 C 
BRANCH  13  14
ATOM     14  C   UNL     1       1.992   2.281  18.406  0.00  0.00    +0.000 C 
BRANCH  14  15
ATOM     15  N   UNL     1       2.382   2.888  17.140  0.00  0.00    +0.000 NA
ATOM     16  H   UNL     1       3.340   3.233  17.216  0.00  0.00    +0.000 HD
ATOM     17  H   UNL     1       1.801   3.703  16.955  0.00  0.00    +0.000 HD
ENDBRANCH  14  15
ENDBRANCH  13  14
ENDBRANCH  12  13
ENDBRANCH  11  12
ENDBRANCH  10  11
ENDBRANCH   9  10
ENDBRANCH   1   9
BRANCH   1  18
ATOM     18  C   UNL     1       2.643   6.344  17.854  0.00  0.00    +0.000 C 
BRANCH  18  19
ATOM     19  C   UNL     1       2.750   7.871  17.858  0.00  0.00    +0.000 C 
BRANCH  19  20
ATOM     20  C   UNL     1       1.797   8.585  18.812  0.00  0.00    +0.000 C 
BRANCH  20  21
ATOM     21  C   UNL     1       1.367   9.891  18.131  0.00  0.00    +0.000 C 
BRANCH  21  22
ATOM     22  C   UNL     1       0.074  10.471  18.688  0.00  0.00    +0.000 C 
BRANCH  22  23
ATOM     23  C   UNL     1      -1.093  10.137  17.757  0.00  0.00    +0.000 C 
BRANCH  23  24
ATOM     24  N   UNL     1      -1.677  11.356  17.216  0.00  0.00    +0.000 NA
ATOM     25  H   UNL     1      -0.935  11.968  16.880  0.00  0.00    +0.000 HD
ATOM     26  H   UNL     1      -2.148  11.861  17.959  0.00  0.00    +0.000 HD
ENDBRANCH  23  24
ENDBRANCH  22  23
ENDBRANCH  21  22
ENDBRANCH  20  21
ENDBRANCH  19  20
ENDBRANCH  18  19
ENDBRANCH   1  18
TORSDOF 15
ENDMDL
MODEL 6
REMARK VINA RESULT:      -6.0      1.973      4.358
REMARK  Name = 
REMARK  15 active torsions:
REMARK  status: ('A' for Active; 'I' for Inactive)
REMARK    1  A    between atoms: N_1  and  C_2
REMARK    2  A    between atoms: C_2  and  C_3
REMARK    3  A    between atoms: C_3  and  C_4
REMARK    4  A    between atoms: C_4  and  C_5
REMARK    5  A    between atoms: C_5  and  C_6
REMARK    6  A    between atoms: C_6  and  C_7
REMARK    7  A    between atoms: C_7  and  N_8
REMARK    8  A    between atoms: N_8  and  C_9
REMARK    9  A    between atoms: N_8  and  C_16
REMARK   10  A    between atoms: C_9  and  C_10
REMARK   11  A    between atoms: C_10  and  C_11
REMARK   12  A    between atoms: C_11  and  C_12
REMARK   13  A    between atoms: C_12  and  C_13
REMARK   14  A    between atoms: C_13  and  C_14
REMARK   15  A    between atoms: C_14  and  N_15
REMARK                            x       y       z     vdW  Elec       q    Type
REMARK                         _______ _______ _______ _____ _____    ______ ____
ROOT
ATOM      1  N   UNL     1       3.433   6.040  19.153  0.00  0.00    +0.000 NA
ENDROOT
BRANCH   1   2
ATOM      2  C   UNL     1       4.159   5.035  18.305  0.00  0.00    +0.000 C 
ATOM      3  C   UNL     1       4.655   5.463  16.910  0.00  0.00    +0.000 C 
ATOM      4  S   UNL     1       5.907   6.791  16.933  0.00  0.00    +0.000 S 
ATOM      5  C   UNL     1       7.123   5.988  18.028  0.00  0.00    +0.000 C 
ATOM      6  C   UNL     1       6.495   5.527  19.327  0.00  0.00    +0.000 C 
ATOM      7  C   UNL     1       5.398   4.525  19.048  0.00  0.00    +0.000 C 
ATOM      8  O   UNL     1       5.493   3.350  19.420  0.00  0.00    +0.000 OA
ENDBRANCH   1   2
BRANCH   1   9
ATOM      9  C   UNL     1       2.405   6.770  18.369  0.00  0.00    +0.000 C 
BRANCH   9  10
ATOM     10  C   UNL     1       2.057   8.160  18.928  0.00  0.00    +0.000 C 
BRANCH  10  11
ATOM     11  C   UNL     1       1.799   9.198  17.827  0.00  0.00    +0.000 C 
BRANCH  11  12
ATOM     12  C   UNL     1       1.170  10.457  18.433  0.00  0.00    +0.000 C 
BRANCH  12  13
ATOM     13  C   UNL     1      -0.338  10.320  18.647  0.00  0.00    +0.000 C 
BRANCH  13  14
ATOM     14  C   UNL     1      -0.999  11.701  18.686  0.00  0.00    +0.000 C 
BRANCH  14  15
ATOM     15  N   UNL     1      -1.183  12.221  17.337  0.00  0.00    +0.000 NA
ATOM     16  H   UNL     1      -1.849  12.994  17.365  0.00  0.00    +0.000 HD
ATOM     17  H   UNL     1      -1.602  11.507  16.746  0.00  0.00    +0.000 HD
ENDBRANCH  14  15
ENDBRANCH  13  14
ENDBRANCH  12  13
ENDBRANCH  11  12
ENDBRANCH  10  11
ENDBRANCH   9  10
ENDBRANCH   1   9
BRANCH   1  18
ATOM     18  C   UNL     1       2.877   5.410  20.384  0.00  0.00    +0.000 C 
BRANCH  18  19
ATOM     19  C   UNL     1       1.444   4.896  20.228  0.00  0.00    +0.000 C 
BRANCH  19  20
ATOM     20  C   UNL     1       1.299   3.376  20.199  0.00  0.00    +0.000 C 
BRANCH  20  21
ATOM     21  C   UNL     1       0.903   2.985  18.770  0.00  0.00    +0.000 C 
BRANCH  21  22
ATOM     22  C   UNL     1       1.992   2.228  18.022  0.00  0.00    +0.000 C 
BRANCH  22  23
ATOM     23  C   UNL     1       2.939   1.556  19.017  0.00  0.00    +0.000 C 
BRANCH  23  24
ATOM     24  N   UNL     1       4.022   0.883  18.315  0.00  0.00    +0.000 NA
ATOM     25  H   UNL     1       3.924   1.038  17.312  0.00  0.00    +0.000 HD
ATOM     26  H   UNL     1       3.945  -0.118  18.457  0.00  0.00    +0.000 HD
ENDBRANCH  23  24
ENDBRANCH  22  23
ENDBRANCH  21  22
ENDBRANCH  20  21
ENDBRANCH  19  20
ENDBRANCH  18  19
ENDBRANCH   1  18
TORSDOF 15
ENDMDL
MODEL 7
REMARK VINA RESULT:      -5.9      2.614      4.778
REMARK  Name = 
REMARK  15 active torsions:
REMARK  status: ('A' for Active; 'I' for Inactive)
REMARK    1  A    between atoms: N_1  and  C_2
REMARK    2  A    between atoms: C_2  and  C_3
REMARK    3  A    between atoms: C_3  and  C_4
REMARK    4  A    between atoms: C_4  and  C_5
REMARK    5  A    between atoms: C_5  and  C_6
REMARK    6  A    between atoms: C_6  and  C_7
REMARK    7  A    between atoms: C_7  and  N_8
REMARK    8  A    between atoms: N_8  and  C_9
REMARK    9  A    between atoms: N_8  and  C_16
REMARK   10  A    between atoms: C_9  and  C_10
REMARK   11  A    between atoms: C_10  and  C_11
REMARK   12  A    between atoms: C_11  and  C_12
REMARK   13  A    between atoms: C_12  and  C_13
REMARK   14  A    between atoms: C_13  and  C_14
REMARK   15  A    between atoms: C_14  and  N_15
REMARK                            x       y       z     vdW  Elec       q    Type
REMARK                         _______ _______ _______ _____ _____    ______ ____
ROOT
ATOM      1  N   UNL     1       3.451   6.607  18.351  0.00  0.00    +0.000 NA
ENDROOT
BRANCH   1   2
ATOM      2  C   UNL     1       4.156   5.735  17.351  0.00  0.00    +0.000 C 
ATOM      3  C   UNL     1       5.282   6.349  16.496  0.00  0.00    +0.000 C 
ATOM      4  S   UNL     1       6.724   6.924  17.456  0.00  0.00    +0.000 S 
ATOM      5  C   UNL     1       7.104   5.366  18.321  0.00  0.00    +0.000 C 
ATOM      6  C   UNL     1       5.894   4.812  19.045  0.00  0.00    +0.000 C 
ATOM      7  C   UNL     1       4.782   4.530  18.060  0.00  0.00    +0.000 C 
ATOM      8  O   UNL     1       4.388   3.378  17.853  0.00  0.00    +0.000 OA
ENDBRANCH   1   2
BRANCH   1   9
ATOM      9  C   UNL     1       3.243   7.978  17.824  0.00  0.00    +0.000 C 
BRANCH   9  10
ATOM     10  C   UNL     1       1.766   8.369  17.651  0.00  0.00    +0.000 C 
BRANCH  10  11
ATOM     11  C   UNL     1       1.414   9.693  18.345  0.00  0.00    +0.000 C 
BRANCH  11  12
ATOM     12  C   UNL     1       0.967   9.425  19.785  0.00  0.00    +0.000 C 
BRANCH  12  13
ATOM     13  C   UNL     1      -0.205  10.308  20.215  0.00  0.00    +0.000 C 
BRANCH  13  14
ATOM     14  C   UNL     1      -0.029  10.761  21.667  0.00  0.00    +0.000 C 
BRANCH  14  15
ATOM     15  N   UNL     1       0.963   9.937  22.346  0.00  0.00    +0.000 NA
ATOM     16  H   UNL     1       0.692   8.955  22.268  0.00  0.00    +0.000 HD
ATOM     17  H   UNL     1       0.968  10.152  23.340  0.00  0.00    +0.000 HD
ENDBRANCH  14  15
ENDBRANCH  13  14
ENDBRANCH  12  13
ENDBRANCH  11  12
ENDBRANCH  10  11
ENDBRANCH   9  10
ENDBRANCH   1   9
BRANCH   1  18
ATOM     18  C   UNL     1       2.187   5.975  18.825  0.00  0.00    +0.000 C 
BRANCH  18  19
ATOM     19  C   UNL     1       2.043   5.935  20.348  0.00  0.00    +0.000 C 
BRANCH  19  20
ATOM     20  C   UNL     1       2.410   4.604  20.999  0.00  0.00    +0.000 C 
BRANCH  20  21
ATOM     21  C   UNL     1       1.199   3.674  20.843  0.00  0.00    +0.000 C 
BRANCH  21  22
ATOM     22  C   UNL     1       1.517   2.379  20.108  0.00  0.00    +0.000 C 
BRANCH  22  23
ATOM     23  C   UNL     1       0.954   2.432  18.687  0.00  0.00    +0.000 C 
BRANCH  23  24
ATOM     24  N   UNL     1       1.941   1.955  17.730  0.00  0.00    +0.000 NA
ATOM     25  H   UNL     1       2.807   1.733  18.218  0.00  0.00    +0.000 HD
ATOM     26  H   UNL     1       2.164   2.700  17.078  0.00  0.00    +0.000 HD
ENDBRANCH  23  24
ENDBRANCH  22  23
ENDBRANCH  21  22
ENDBRANCH  20  21
ENDBRANCH  19  20
ENDBRANCH  18  19
ENDBRANCH   1  18
TORSDOF 15
ENDMDL
MODEL 8
REMARK VINA RESULT:      -5.9      2.357      6.131
REMARK  Name = 
REMARK  15 active torsions:
REMARK  status: ('A' for Active; 'I' for Inactive)
REMARK    1  A    between atoms: N_1  and  C_2
REMARK    2  A    between atoms: C_2  and  C_3
REMARK    3  A    between atoms: C_3  and  C_4
REMARK    4  A    between atoms: C_4  and  C_5
REMARK    5  A    between atoms: C_5  and  C_6
REMARK    6  A    between atoms: C_6  and  C_7
REMARK    7  A    between atoms: C_7  and  N_8
REMARK    8  A    between atoms: N_8  and  C_9
REMARK    9  A    between atoms: N_8  and  C_16
REMARK   10  A    between atoms: C_9  and  C_10
REMARK   11  A    between atoms: C_10  and  C_11
REMARK   12  A    between atoms: C_11  and  C_12
REMARK   13  A    between atoms: C_12  and  C_13
REMARK   14  A    between atoms: C_13  and  C_14
REMARK   15  A    between atoms: C_14  and  N_15
REMARK                            x       y       z     vdW  Elec       q    Type
REMARK                         _______ _______ _______ _____ _____    ______ ____
ROOT
ATOM      1  N   UNL     1       3.562   5.173  19.177  0.00  0.00    +0.000 NA
ENDROOT
BRANCH   1   2
ATOM      2  C   UNL     1       3.130   3.775  18.837  0.00  0.00    +0.000 C 
ATOM      3  C   UNL     1       3.509   2.629  19.795  0.00  0.00    +0.000 C 
ATOM      4  S   UNL     1       2.775   2.770  21.460  0.00  0.00    +0.000 S 
ATOM      5  C   UNL     1       1.024   2.886  20.968  0.00  0.00    +0.000 C 
ATOM      6  C   UNL     1       0.795   3.986  19.953  0.00  0.00    +0.000 C 
ATOM      7  C   UNL     1       1.605   3.719  18.704  0.00  0.00    +0.000 C 
ATOM      8  O   UNL     1       1.056   3.483  17.623  0.00  0.00    +0.000 OA
ENDBRANCH   1   2
BRANCH   1   9
ATOM      9  C   UNL     1       5.021   5.240  19.445  0.00  0.00    +0.000 C 
BRANCH   9  10
ATOM     10  C   UNL     1       5.886   4.516  18.400  0.00  0.00    +0.000 C 
BRANCH  10  11
ATOM     11  C   UNL     1       7.008   5.401  17.838  0.00  0.00    +0.000 C 
BRANCH  11  12
ATOM     12  C   UNL     1       6.438   6.356  16.783  0.00  0.00    +0.000 C 
BRANCH  12  13
ATOM     13  C   UNL     1       5.822   5.621  15.592  0.00  0.00    +0.000 C 
BRANCH  13  14
ATOM     14  C   UNL     1       6.855   4.696  14.942  0.00  0.00    +0.000 C 
BRANCH  14  15
ATOM     15  N   UNL     1       7.675   5.432  13.988  0.00  0.00    +0.000 NA
ATOM     16  H   UNL     1       8.275   4.775  13.487  0.00  0.00    +0.000 HD
ATOM     17  H   UNL     1       8.298   6.064  14.484  0.00  0.00    +0.000 HD
ENDBRANCH  14  15
ENDBRANCH  13  14
ENDBRANCH  12  13
ENDBRANCH  11  12
ENDBRANCH  10  11
ENDBRANCH   9  10
ENDBRANCH   1   9
BRANCH   1  18
ATOM     18  C   UNL     1       3.125   6.144  18.134  0.00  0.00    +0.000 C 
BRANCH  18  19
ATOM     19  C   UNL     1       2.421   7.383  18.692  0.00  0.00    +0.000 C 
BRANCH  19  20
ATOM     20  C   UNL     1       2.442   8.607  17.780  0.00  0.00    +0.000 C 
BRANCH  20  21
ATOM     21  C   UNL     1       1.119   9.354  17.993  0.00  0.00    +0.000 C 
BRANCH  21  22
ATOM     22  C   UNL     1       1.243  10.564  18.908  0.00  0.00    +0.000 C 
BRANCH  22  23
ATOM     23  C   UNL     1       0.488  10.311  20.214  0.00  0.00    +0.000 C 
BRANCH  23  24
ATOM     24  N   UNL     1       1.019  11.149  21.279  0.00  0.00    +0.000 NA
ATOM     25  H   UNL     1       1.160  12.096  20.929  0.00  0.00    +0.000 HD
ATOM     26  H   UNL     1       1.935  10.807  21.551  0.00  0.00    +0.000 HD
ENDBRANCH  23  24
ENDBRANCH  22  23
ENDBRANCH  21  22
ENDBRANCH  20  21
ENDBRANCH  19  20
ENDBRANCH  18  19
ENDBRANCH   1  18
TORSDOF 15
ENDMDL
MODEL 9
REMARK VINA RESULT:      -5.9      2.167      4.133
REMARK  Name = 
REMARK  15 active torsions:
REMARK  status: ('A' for Active; 'I' for Inactive)
REMARK    1  A    between atoms: N_1  and  C_2
REMARK    2  A    between atoms: C_2  and  C_3
REMARK    3  A    between atoms: C_3  and  C_4
REMARK    4  A    between atoms: C_4  and  C_5
REMARK    5  A    between atoms: C_5  and  C_6
REMARK    6  A    between atoms: C_6  and  C_7
REMARK    7  A    between atoms: C_7  and  N_8
REMARK    8  A    between atoms: N_8  and  C_9
REMARK    9  A    between atoms: N_8  and  C_16
REMARK   10  A    between atoms: C_9  and  C_10
REMARK   11  A    between atoms: C_10  and  C_11
REMARK   12  A    between atoms: C_11  and  C_12
REMARK   13  A    between atoms: C_12  and  C_13
REMARK   14  A    between atoms: C_13  and  C_14
REMARK   15  A    between atoms: C_14  and  N_15
REMARK                            x       y       z     vdW  Elec       q    Type
REMARK                         _______ _______ _______ _____ _____    ______ ____
ROOT
ATOM      1  N   UNL     1       3.575   6.646  18.189  0.00  0.00    +0.000 NA
ENDROOT
BRANCH   1   2
ATOM      2  C   UNL     1       4.300   5.910  17.099  0.00  0.00    +0.000 C 
ATOM      3  C   UNL     1       5.433   6.633  16.344  0.00  0.00    +0.000 C 
ATOM      4  S   UNL     1       6.857   7.094  17.389  0.00  0.00    +0.000 S 
ATOM      5  C   UNL     1       7.238   5.442  18.059  0.00  0.00    +0.000 C 
ATOM      6  C   UNL     1       6.023   4.794  18.690  0.00  0.00    +0.000 C 
ATOM      7  C   UNL     1       4.927   4.631  17.661  0.00  0.00    +0.000 C 
ATOM      8  O   UNL     1       4.545   3.510  17.306  0.00  0.00    +0.000 OA
ENDBRANCH   1   2
BRANCH   1   9
ATOM      9  C   UNL     1       3.245   8.034  17.780  0.00  0.00    +0.000 C 
BRANCH   9  10
ATOM     10  C   UNL     1       1.739   8.349  17.784  0.00  0.00    +0.000 C 
BRANCH  10  11
ATOM     11  C   UNL     1       1.341   9.345  18.883  0.00  0.00    +0.000 C 
BRANCH  11  12
ATOM     12  C   UNL     1       0.464  10.453  18.290  0.00  0.00    +0.000 C 
BRANCH  12  13
ATOM     13  C   UNL     1      -1.008  10.312  18.677  0.00  0.00    +0.000 C 
BRANCH  13  14
ATOM     14  C   UNL     1      -1.702  11.677  18.645  0.00  0.00    +0.000 C 
BRANCH  14  15
ATOM     15  N   UNL     1      -1.346  12.406  17.435  0.00  0.00    +0.000 NA
ATOM     16  H   UNL     1      -1.969  13.208  17.332  0.00  0.00    +0.000 HD
ATOM     17  H   UNL     1      -1.502  11.819  16.619  0.00  0.00    +0.000 HD
ENDBRANCH  14  15
ENDBRANCH  13  14
ENDBRANCH  12  13
ENDBRANCH  11  12
ENDBRANCH  10  11
ENDBRANCH   9  10
ENDBRANCH   1   9
BRANCH   1  18
ATOM     18  C   UNL     1       2.381   5.884  18.655  0.00  0.00    +0.000 C 
BRANCH  18  19
ATOM     19  C   UNL     1       2.171   5.921  20.170  0.00  0.00    +0.000 C 
BRANCH  19  20
ATOM     20  C   UNL     1       2.190   4.560  20.862  0.00  0.00    +0.000 C 
BRANCH  20  21
ATOM     21  C   UNL     1       1.596   3.544  19.878  0.00  0.00    +0.000 C 
BRANCH  21  22
ATOM     22  C   UNL     1       2.444   2.289  19.713  0.00  0.00    +0.000 C 
BRANCH  22  23
ATOM     23  C   UNL     1       3.743   2.429  20.506  0.00  0.00    +0.000 C 
BRANCH  23  24
ATOM     24  N   UNL     1       4.826   1.720  19.838  0.00  0.00    +0.000 NA
ATOM     25  H   UNL     1       4.460   0.874  19.404  0.00  0.00    +0.000 HD
ATOM     26  H   UNL     1       5.504   1.416  20.528  0.00  0.00    +0.000 HD
ENDBRANCH  23  24
ENDBRANCH  22  23
ENDBRANCH  21  22
ENDBRANCH  20  21
ENDBRANCH  19  20
ENDBRANCH  18  19
ENDBRANCH   1  18
TORSDOF 15
ENDMDL
