MODEL 1
REMARK VINA RESULT:      -5.9      0.000      0.000
REMARK  Name = 
REMARK  2 active torsions:
REMARK  status: ('A' for Active; 'I' for Inactive)
REMARK    1  A    between atoms: C_2  and  C_9
REMARK    2  A    between atoms: N_3  and  C_4
REMARK                            x       y       z     vdW  Elec       q    Type
REMARK                         _______ _______ _______ _____ _____    ______ ____
ROOT
ATOM      1  O   UNL     1       5.784   5.099  19.365  0.00  0.00    +0.000 OA
ATOM      2  C   UNL     1       5.189   4.626  18.398  0.00  0.00    +0.000 C 
ATOM      3  N   UNL     1       3.910   4.119  18.518  0.00  0.00    +0.000 N 
ATOM      4  H   UNL     1       3.521   3.631  17.721  0.00  0.00    +0.000 HD
ENDROOT
BRANCH   2   5
ATOM      5  C   UNL     1       5.787   4.566  17.071  0.00  0.00    +0.000 A 
ATOM      6  C   UNL     1       7.023   5.079  16.709  0.00  0.00    +0.000 A 
ATOM      7  C   UNL     1       7.327   4.869  15.332  0.00  0.00    +0.000 A 
ATOM      8  C   UNL     1       6.303   4.214  14.699  0.00  0.00    +0.000 A 
ATOM      9 BR   UNL     1       6.330   3.772  12.879  0.00  0.00    +0.000 Br
ATOM     10  S   UNL     1       5.007   3.842  15.725  0.00  0.00    +0.000 S 
ENDBRANCH   2   5
BRANCH   3  11
ATOM     11  C   UNL     1       3.227   4.058  19.791  0.00  0.00    +0.000 C 
ATOM     12  C   UNL     1       1.714   4.176  19.652  0.00  0.00    +0.000 C 
ATOM     13  C   UNL     1       1.196   3.670  20.991  0.00  0.00    +0.000 C 
ATOM     14  C   UNL     1       2.218   2.638  21.469  0.00  0.00    +0.000 C 
ATOM     15  C   UNL     1       3.395   2.715  20.497  0.00  0.00    +0.000 C 
ENDBRANCH   3  11
TORSDOF 2
ENDMDL
MODEL 2
REMARK VINA RESULT:      -5.7      3.337      6.487
REMARK  Name = 
REMARK  2 active torsions:
REMARK  status: ('A' for Active; 'I' for Inactive)
REMARK    1  A    between atoms: C_2  and  C_9
REMARK    2  A    between atoms: N_3  and  C_4
REMARK                            x       y       z     vdW  Elec       q    Type
REMARK                         _______ _______ _______ _____ _____    ______ ____
ROOT
ATOM      1  O   UNL     1       4.544   5.857  16.720  0.00  0.00    +0.000 OA
ATOM      2  C   UNL     1       4.542   4.627  16.730  0.00  0.00    +0.000 C 
ATOM      3  N   UNL     1       5.131   3.899  15.715  0.00  0.00    +0.000 N 
ATOM      4  H   UNL     1       4.989   2.896  15.712  0.00  0.00    +0.000 HD
ENDROOT
BRANCH   2   5
ATOM      5  C   UNL     1       3.921   3.859  17.802  0.00  0.00    +0.000 A 
ATOM      6  C   UNL     1       3.677   2.494  17.793  0.00  0.00    +0.000 A 
ATOM      7  C   UNL     1       3.049   2.037  18.988  0.00  0.00    +0.000 A 
ATOM      8  C   UNL     1       2.832   3.077  19.855  0.00  0.00    +0.000 A 
ATOM      9 BR   UNL     1       2.014   2.871  21.528  0.00  0.00    +0.000 Br
ATOM     10  S   UNL     1       3.375   4.569  19.265  0.00  0.00    +0.000 S 
ENDBRANCH   2   5
BRANCH   3  11
ATOM     11  C   UNL     1       5.725   4.535  14.561  0.00  0.00    +0.000 C 
ATOM     12  C   UNL     1       7.199   4.860  14.763  0.00  0.00    +0.000 C 
ATOM     13  C   UNL     1       7.704   5.104  13.347  0.00  0.00    +0.000 C 
ATOM     14  C   UNL     1       6.848   4.218  12.442  0.00  0.00    +0.000 C 
ATOM     15  C   UNL     1       5.745   3.637  13.327  0.00  0.00    +0.000 C 
ENDBRANCH   3  11
TORSDOF 2
ENDMDL
MODEL 3
REMARK VINA RESULT:      -5.7      3.240      6.459
REMARK  Name = 
REMARK  2 active torsions:
REMARK  status: ('A' for Active; 'I' for Inactive)
REMARK    1  A    between atoms: C_2  and  C_9
REMARK    2  A    between atoms: N_3  and  C_4
REMARK                            x       y       z     vdW  Elec       q    Type
REMARK                         _______ _______ _______ _____ _____    ______ ____
ROOT
ATOM      1  O   UNL     1       7.040   4.355  17.035  0.00  0.00    +0.000 OA
ATOM      2  C   UNL     1       5.861   4.487  16.708  0.00  0.00    +0.000 C 
ATOM      3  N   UNL     1       5.453   4.300  15.403  0.00  0.00    +0.000 N 
ATOM      4  H   UNL     1       4.498   4.544  15.169  0.00  0.00    +0.000 HD
ENDROOT
BRANCH   2   5
ATOM      5  C   UNL     1       4.825   4.849  17.666  0.00  0.00    +0.000 A 
ATOM      6  C   UNL     1       4.170   6.069  17.737  0.00  0.00    +0.000 A 
ATOM      7  C   UNL     1       3.210   6.120  18.790  0.00  0.00    +0.000 A 
ATOM      8  C   UNL     1       3.180   4.938  19.483  0.00  0.00    +0.000 A 
ATOM      9 BR   UNL     1       2.052   4.629  20.946  0.00  0.00    +0.000 Br
ATOM     10  S   UNL     1       4.266   3.782  18.887  0.00  0.00    +0.000 S 
ENDBRANCH   2   5
BRANCH   3  11
ATOM     11  C   UNL     1       6.389   4.001  14.342  0.00  0.00    +0.000 C 
ATOM     12  C   UNL     1       5.702   3.545  13.062  0.00  0.00    +0.000 C 
ATOM     13  C   UNL     1       6.785   3.703  12.004  0.00  0.00    +0.000 C 
ATOM     14  C   UNL     1       7.658   4.866  12.474  0.00  0.00    +0.000 C 
ATOM     15  C   UNL     1       7.180   5.223  13.881  0.00  0.00    +0.000 C 
ENDBRANCH   3  11
TORSDOF 2
ENDMDL
MODEL 4
REMARK VINA RESULT:      -5.7      1.131      1.347
REMARK  Name = 
REMARK  2 active torsions:
REMARK  status: ('A' for Active; 'I' for Inactive)
REMARK    1  A    between atoms: C_2  and  C_9
REMARK    2  A    between atoms: N_3  and  C_4
REMARK                            x       y       z     vdW  Elec       q    Type
REMARK                         _______ _______ _______ _____ _____    ______ ____
ROOT
ATOM      1  O   UNL     1       6.217   4.436  18.999  0.00  0.00    +0.000 OA
ATOM      2  C   UNL     1       5.386   4.391  18.092  0.00  0.00    +0.000 C 
ATOM      3  N   UNL     1       4.037   4.264  18.360  0.00  0.00    +0.000 N 
ATOM      4  H   UNL     1       3.416   4.106  17.577  0.00  0.00    +0.000 HD
ENDROOT
BRANCH   2   5
ATOM      5  C   UNL     1       5.764   4.463  16.687  0.00  0.00    +0.000 A 
ATOM      6  C   UNL     1       5.045   3.945  15.621  0.00  0.00    +0.000 A 
ATOM      7  C   UNL     1       5.680   4.170  14.365  0.00  0.00    +0.000 A 
ATOM      8  C   UNL     1       6.863   4.842  14.528  0.00  0.00    +0.000 A 
ATOM      9 BR   UNL     1       7.989   5.308  13.105  0.00  0.00    +0.000 Br
ATOM     10  S   UNL     1       7.209   5.212  16.145  0.00  0.00    +0.000 S 
ENDBRANCH   2   5
BRANCH   3  11
ATOM     11  C   UNL     1       3.534   4.118  19.708  0.00  0.00    +0.000 C 
ATOM     12  C   UNL     1       2.080   4.551  19.842  0.00  0.00    +0.000 C 
ATOM     13  C   UNL     1       1.648   3.930  21.164  0.00  0.00    +0.000 C 
ATOM     14  C   UNL     1       2.473   2.652  21.312  0.00  0.00    +0.000 C 
ATOM     15  C   UNL     1       3.497   2.666  20.178  0.00  0.00    +0.000 C 
ENDBRANCH   3  11
TORSDOF 2
ENDMDL
MODEL 5
REMARK VINA RESULT:      -5.7      3.287      6.585
REMARK  Name = 
REMARK  2 active torsions:
REMARK  status: ('A' for Active; 'I' for Inactive)
REMARK    1  A    between atoms: C_2  and  C_9
REMARK    2  A    between atoms: N_3  and  C_4
REMARK                            x       y       z     vdW  Elec       q    Type
REMARK                         _______ _______ _______ _____ _____    ______ ____
ROOT
ATOM      1  O   UNL     1       6.670   4.105  17.013  0.00  0.00    +0.000 OA
ATOM      2  C   UNL     1       5.532   4.133  16.545  0.00  0.00    +0.000 C 
ATOM      3  N   UNL     1       5.310   4.029  15.186  0.00  0.00    +0.000 N 
ATOM      4  H   UNL     1       4.368   4.184  14.851  0.00  0.00    +0.000 HD
ENDROOT
BRANCH   2   5
ATOM      5  C   UNL     1       4.350   4.279  17.385  0.00  0.00    +0.000 A 
ATOM      6  C   UNL     1       3.089   3.770  17.115  0.00  0.00    +0.000 A 
ATOM      7  C   UNL     1       2.136   4.087  18.127  0.00  0.00    +0.000 A 
ATOM      8  C   UNL     1       2.710   4.835  19.122  0.00  0.00    +0.000 A 
ATOM      9 BR   UNL     1       1.770   5.456  20.618  0.00  0.00    +0.000 Br
ATOM     10  S   UNL     1       4.356   5.145  18.866  0.00  0.00    +0.000 S 
ENDBRANCH   2   5
BRANCH   3  11
ATOM     11  C   UNL     1       6.398   3.944  14.237  0.00  0.00    +0.000 C 
ATOM     12  C   UNL     1       5.930   3.562  12.840  0.00  0.00    +0.000 C 
ATOM     13  C   UNL     1       7.109   3.944  11.955  0.00  0.00    +0.000 C 
ATOM     14  C   UNL     1       7.778   5.133  12.646  0.00  0.00    +0.000 C 
ATOM     15  C   UNL     1       7.093   5.284  14.004  0.00  0.00    +0.000 C 
ENDBRANCH   3  11
TORSDOF 2
ENDMDL
MODEL 6
REMARK VINA RESULT:      -5.6      3.269      6.303
REMARK  Name = 
REMARK  2 active torsions:
REMARK  status: ('A' for Active; 'I' for Inactive)
REMARK    1  A    between atoms: C_2  and  C_9
REMARK    2  A    between atoms: N_3  and  C_4
REMARK                            x       y       z     vdW  Elec       q    Type
REMARK                         _______ _______ _______ _____ _____    ______ ____
ROOT
ATOM      1  O   UNL     1       4.198   6.960  17.148  0.00  0.00    +0.000 OA
ATOM      2  C   UNL     1       4.092   5.770  17.442  0.00  0.00    +0.000 C 
ATOM      3  N   UNL     1       4.697   4.786  16.685  0.00  0.00    +0.000 N 
ATOM      4  H   UNL     1       4.472   3.823  16.901  0.00  0.00    +0.000 HD
ENDROOT
BRANCH   2   5
ATOM      5  C   UNL     1       3.326   5.320  18.597  0.00  0.00    +0.000 A 
ATOM      6  C   UNL     1       2.609   6.128  19.466  0.00  0.00    +0.000 A 
ATOM      7  C   UNL     1       1.969   5.391  20.505  0.00  0.00    +0.000 A 
ATOM      8  C   UNL     1       2.234   4.051  20.389  0.00  0.00    +0.000 A 
ATOM      9 BR   UNL     1       1.577   2.763  21.580  0.00  0.00    +0.000 Br
ATOM     10  S   UNL     1       3.216   3.672  19.061  0.00  0.00    +0.000 S 
ENDBRANCH   2   5
BRANCH   3  11
ATOM     11  C   UNL     1       5.433   5.092  15.479  0.00  0.00    +0.000 C 
ATOM     12  C   UNL     1       6.940   5.096  15.695  0.00  0.00    +0.000 C 
ATOM     13  C   UNL     1       7.500   5.005  14.281  0.00  0.00    +0.000 C 
ATOM     14  C   UNL     1       6.468   4.215  13.476  0.00  0.00    +0.000 C 
ATOM     15  C   UNL     1       5.253   4.039  14.387  0.00  0.00    +0.000 C 
ENDBRANCH   3  11
TORSDOF 2
ENDMDL
MODEL 7
REMARK VINA RESULT:      -5.6      0.964      1.047
REMARK  Name = 
REMARK  2 active torsions:
REMARK  status: ('A' for Active; 'I' for Inactive)
REMARK    1  A    between atoms: C_2  and  C_9
REMARK    2  A    between atoms: N_3  and  C_4
REMARK                            x       y       z     vdW  Elec       q    Type
REMARK                         _______ _______ _______ _____ _____    ______ ____
ROOT
ATOM      1  O   UNL     1       4.984   5.572  19.319  0.00  0.00    +0.000 OA
ATOM      2  C   UNL     1       4.436   4.975  18.393  0.00  0.00    +0.000 C 
ATOM      3  N   UNL     1       3.329   4.178  18.607  0.00  0.00    +0.000 N 
ATOM      4  H   UNL     1       2.999   3.614  17.834  0.00  0.00    +0.000 HD
ENDROOT
BRANCH   2   5
ATOM      5  C   UNL     1       4.915   5.063  17.020  0.00  0.00    +0.000 A 
ATOM      6  C   UNL     1       5.035   6.223  16.270  0.00  0.00    +0.000 A 
ATOM      7  C   UNL     1       5.526   5.982  14.954  0.00  0.00    +0.000 A 
ATOM      8  C   UNL     1       5.752   4.645  14.753  0.00  0.00    +0.000 A 
ATOM      9 BR   UNL     1       6.389   3.938  13.139  0.00  0.00    +0.000 Br
ATOM     10  S   UNL     1       5.397   3.692  16.108  0.00  0.00    +0.000 S 
ENDBRANCH   2   5
BRANCH   3  11
ATOM     11  C   UNL     1       2.791   3.953  19.930  0.00  0.00    +0.000 C 
ATOM     12  C   UNL     1       1.301   3.640  19.914  0.00  0.00    +0.000 C 
ATOM     13  C   UNL     1       1.052   3.035  21.289  0.00  0.00    +0.000 C 
ATOM     14  C   UNL     1       2.356   2.340  21.680  0.00  0.00    +0.000 C 
ATOM     15  C   UNL     1       3.385   2.725  20.616  0.00  0.00    +0.000 C 
ENDBRANCH   3  11
TORSDOF 2
ENDMDL
MODEL 8
REMARK VINA RESULT:      -5.5      2.873      3.331
REMARK  Name = 
REMARK  2 active torsions:
REMARK  status: ('A' for Active; 'I' for Inactive)
REMARK    1  A    between atoms: C_2  and  C_9
REMARK    2  A    between atoms: N_3  and  C_4
REMARK                            x       y       z     vdW  Elec       q    Type
REMARK                         _______ _______ _______ _____ _____    ______ ____
ROOT
ATOM      1  O   UNL     1       5.152   3.781  16.611  0.00  0.00    +0.000 OA
ATOM      2  C   UNL     1       5.208   4.412  17.666  0.00  0.00    +0.000 C 
ATOM      3  N   UNL     1       4.324   4.167  18.698  0.00  0.00    +0.000 N 
ATOM      4  H   UNL     1       4.337   4.800  19.488  0.00  0.00    +0.000 HD
ENDROOT
BRANCH   2   5
ATOM      5  C   UNL     1       6.200   5.454  17.896  0.00  0.00    +0.000 A 
ATOM      6  C   UNL     1       7.326   5.347  18.697  0.00  0.00    +0.000 A 
ATOM      7  C   UNL     1       8.100   6.543  18.727  0.00  0.00    +0.000 A 
ATOM      8  C   UNL     1       7.525   7.517  17.953  0.00  0.00    +0.000 A 
ATOM      9 BR   UNL     1       8.245   9.235  17.753  0.00  0.00    +0.000 Br
ATOM     10  S   UNL     1       6.096   7.016  17.193  0.00  0.00    +0.000 S 
ENDBRANCH   2   5
BRANCH   3  11
ATOM     11  C   UNL     1       3.252   3.205  18.575  0.00  0.00    +0.000 C 
ATOM     12  C   UNL     1       2.858   2.590  19.912  0.00  0.00    +0.000 C 
ATOM     13  C   UNL     1       1.494   1.975  19.630  0.00  0.00    +0.000 C 
ATOM     14  C   UNL     1       0.859   2.850  18.549  0.00  0.00    +0.000 C 
ATOM     15  C   UNL     1       1.943   3.827  18.094  0.00  0.00    +0.000 C 
ENDBRANCH   3  11
TORSDOF 2
ENDMDL
MODEL 9
REMARK VINA RESULT:      -5.4      1.244      1.476
REMARK  Name = 
REMARK  2 active torsions:
REMARK  status: ('A' for Active; 'I' for Inactive)
REMARK    1  A    between atoms: C_2  and  C_9
REMARK    2  A    between atoms: N_3  and  C_4
REMARK                            x       y       z     vdW  Elec       q    Type
REMARK                         _______ _______ _______ _____ _____    ______ ____
ROOT
ATOM      1  O   UNL     1       5.895   4.069  18.900  0.00  0.00    +0.000 OA
ATOM      2  C   UNL     1       5.350   4.635  17.953  0.00  0.00    +0.000 C 
ATOM      3  N   UNL     1       4.199   5.378  18.125  0.00  0.00    +0.000 N 
ATOM      4  H   UNL     1       3.727   5.714  17.295  0.00  0.00    +0.000 HD
ENDROOT
BRANCH   2   5
ATOM      5  C   UNL     1       5.874   4.559  16.595  0.00  0.00    +0.000 A 
ATOM      6  C   UNL     1       7.001   5.209  16.118  0.00  0.00    +0.000 A 
ATOM      7  C   UNL     1       7.253   4.940  14.741  0.00  0.00    +0.000 A 
ATOM      8  C   UNL     1       6.299   4.103  14.223  0.00  0.00    +0.000 A 
ATOM      9 BR   UNL     1       6.286   3.533  12.439  0.00  0.00    +0.000 Br
ATOM     10  S   UNL     1       5.131   3.633  15.357  0.00  0.00    +0.000 S 
ENDBRANCH   2   5
BRANCH   3  11
ATOM     11  C   UNL     1       3.540   5.482  19.408  0.00  0.00    +0.000 C 
ATOM     12  C   UNL     1       2.560   6.646  19.473  0.00  0.00    +0.000 C 
ATOM     13  C   UNL     1       1.701   6.318  20.687  0.00  0.00    +0.000 C 
ATOM     14  C   UNL     1       1.662   4.792  20.769  0.00  0.00    +0.000 C 
ATOM     15  C   UNL     1       2.654   4.279  19.724  0.00  0.00    +0.000 C 
ENDBRANCH   3  11
TORSDOF 2
ENDMDL
