MODEL 1
REMARK VINA RESULT:      -8.4      0.000      0.000
REMARK  Name = 
REMARK  6 active torsions:
REMARK  status: ('A' for Active; 'I' for Inactive)
REMARK    1  A    between atoms: C_1  and  O_2
REMARK    2  A    between atoms: O_2  and  C_3
REMARK    3  A    between atoms: C_8  and  C_9
REMARK    4  A    between atoms: C_9  and  N_10
REMARK    5  A    between atoms: C_15  and  C_16
REMARK    6  A    between atoms: C_21  and  C_22
REMARK                            x       y       z     vdW  Elec       q    Type
REMARK                         _______ _______ _______ _____ _____    ______ ____
ROOT
ATOM      1  N   UNL     1       1.827   6.445  20.272  0.00  0.00    +0.000 N 
ATOM      2  C   UNL     1       2.670   5.411  19.883  0.00  0.00    +0.000 A 
ATOM      3  C   UNL     1       2.586   4.227  20.588  0.00  0.00    +0.000 A 
ATOM      4  C   UNL     1       3.519   3.262  20.289  0.00  0.00    +0.000 A 
ATOM      5  N   UNL     1       4.439   3.396  19.328  0.00  0.00    +0.000 NA
ATOM      6  C   UNL     1       4.368   4.524  18.603  0.00  0.00    +0.000 A 
ATOM      7  N   UNL     1       3.552   5.568  18.882  0.00  0.00    +0.000 NA
ATOM      8  H   UNL     1       0.850   6.206  20.129  0.00  0.00    +0.000 HD
ENDROOT
BRANCH   6   9
ATOM      9  C   UNL     1       5.231   4.636  17.413  0.00  0.00    +0.000 A 
ATOM     10  C   UNL     1       4.732   4.142  16.182  0.00  0.00    +0.000 A 
ATOM     11  C   UNL     1       5.473   4.186  14.999  0.00  0.00    +0.000 A 
ATOM     12  C   UNL     1       6.741   4.741  15.004  0.00  0.00    +0.000 A 
ATOM     13  C   UNL     1       7.264   5.235  16.195  0.00  0.00    +0.000 A 
ATOM     14  C   UNL     1       6.541   5.177  17.414  0.00  0.00    +0.000 A 
BRANCH  14  15
ATOM     15  C   UNL     1       7.298   5.694  18.625  0.00  0.00    +0.000 C 
ATOM     16  F   UNL     1       6.667   5.718  19.824  0.00  0.00    +0.000 F 
ATOM     17  F   UNL     1       8.409   4.925  18.862  0.00  0.00    +0.000 F 
ATOM     18  F   UNL     1       7.787   6.952  18.422  0.00  0.00    +0.000 F 
ENDBRANCH  14  15
ENDBRANCH   6   9
BRANCH   1  19
ATOM     19  C   UNL     1       2.135   7.810  19.855  0.00  0.00    +0.000 C 
BRANCH  19  25
ATOM     20  C   UNL     1       0.381   9.692  20.007  0.00  0.00    +0.000 A 
ATOM     21  C   UNL     1      -0.436  10.514  20.802  0.00  0.00    +0.000 A 
ATOM     22  C   UNL     1      -0.450  10.384  22.193  0.00  0.00    +0.000 A 
ATOM     23  C   UNL     1       0.362   9.445  22.810  0.00  0.00    +0.000 A 
ATOM     24  C   UNL     1       1.193   8.640  22.032  0.00  0.00    +0.000 A 
ATOM     25  C   UNL     1       1.212   8.741  20.624  0.00  0.00    +0.000 A 
BRANCH  20  27
ATOM     26  C   UNL     1      -0.768  10.139  17.971  0.00  0.00    +0.000 C 
ATOM     27  O   UNL     1       0.442   9.787  18.639  0.00  0.00    +0.000 OA
ENDBRANCH  20  27
ENDBRANCH  19  25
ENDBRANCH   1  19
TORSDOF 5
ENDMDL
MODEL 2
REMARK VINA RESULT:      -8.0      1.526      2.327
REMARK  Name = 
REMARK  6 active torsions:
REMARK  status: ('A' for Active; 'I' for Inactive)
REMARK    1  A    between atoms: C_1  and  O_2
REMARK    2  A    between atoms: O_2  and  C_3
REMARK    3  A    between atoms: C_8  and  C_9
REMARK    4  A    between atoms: C_9  and  N_10
REMARK    5  A    between atoms: C_15  and  C_16
REMARK    6  A    between atoms: C_21  and  C_22
REMARK                            x       y       z     vdW  Elec       q    Type
REMARK                         _______ _______ _______ _____ _____    ______ ____
ROOT
ATOM      1  N   UNL     1       1.744   5.456  19.690  0.00  0.00    +0.000 N 
ATOM      2  C   UNL     1       2.276   4.537  18.794  0.00  0.00    +0.000 A 
ATOM      3  C   UNL     1       1.627   3.325  18.670  0.00  0.00    +0.000 A 
ATOM      4  C   UNL     1       2.239   2.373  17.889  0.00  0.00    +0.000 A 
ATOM      5  N   UNL     1       3.373   2.587  17.215  0.00  0.00    +0.000 NA
ATOM      6  C   UNL     1       3.869   3.833  17.286  0.00  0.00    +0.000 A 
ATOM      7  N   UNL     1       3.394   4.805  18.100  0.00  0.00    +0.000 NA
ATOM      8  H   UNL     1       0.818   5.763  19.406  0.00  0.00    +0.000 HD
ENDROOT
BRANCH   6   9
ATOM      9  C   UNL     1       5.006   4.174  16.411  0.00  0.00    +0.000 A 
ATOM     10  C   UNL     1       4.867   3.942  15.020  0.00  0.00    +0.000 A 
ATOM     11  C   UNL     1       5.887   4.217  14.107  0.00  0.00    +0.000 A 
ATOM     12  C   UNL     1       7.084   4.749  14.555  0.00  0.00    +0.000 A 
ATOM     13  C   UNL     1       7.257   4.989  15.914  0.00  0.00    +0.000 A 
ATOM     14  C   UNL     1       6.245   4.692  16.864  0.00  0.00    +0.000 A 
BRANCH  14  15
ATOM     15  C   UNL     1       6.637   4.949  18.309  0.00  0.00    +0.000 C 
ATOM     16  F   UNL     1       6.176   4.108  19.266  0.00  0.00    +0.000 F 
ATOM     17  F   UNL     1       8.000   4.887  18.455  0.00  0.00    +0.000 F 
ATOM     18  F   UNL     1       6.305   6.211  18.711  0.00  0.00    +0.000 F 
ENDBRANCH  14  15
ENDBRANCH   6   9
BRANCH   1  19
ATOM     19  C   UNL     1       2.579   6.558  20.160  0.00  0.00    +0.000 C 
BRANCH  19  25
ATOM     20  C   UNL     1       1.237   8.736  20.472  0.00  0.00    +0.000 A 
ATOM     21  C   UNL     1       0.694   9.905  19.912  0.00  0.00    +0.000 A 
ATOM     22  C   UNL     1       0.880  10.209  18.562  0.00  0.00    +0.000 A 
ATOM     23  C   UNL     1       1.595   9.343  17.748  0.00  0.00    +0.000 A 
ATOM     24  C   UNL     1       2.117   8.170  18.288  0.00  0.00    +0.000 A 
ATOM     25  C   UNL     1       1.958   7.849  19.653  0.00  0.00    +0.000 A 
BRANCH  20  27
ATOM     26  C   UNL     1       0.425   9.339  22.626  0.00  0.00    +0.000 C 
ATOM     27  O   UNL     1       1.073   8.384  21.788  0.00  0.00    +0.000 OA
ENDBRANCH  20  27
ENDBRANCH  19  25
ENDBRANCH   1  19
TORSDOF 5
ENDMDL
MODEL 3
REMARK VINA RESULT:      -8.0      0.881      1.894
REMARK  Name = 
REMARK  6 active torsions:
REMARK  status: ('A' for Active; 'I' for Inactive)
REMARK    1  A    between atoms: C_1  and  O_2
REMARK    2  A    between atoms: O_2  and  C_3
REMARK    3  A    between atoms: C_8  and  C_9
REMARK    4  A    between atoms: C_9  and  N_10
REMARK    5  A    between atoms: C_15  and  C_16
REMARK    6  A    between atoms: C_21  and  C_22
REMARK                            x       y       z     vdW  Elec       q    Type
REMARK                         _______ _______ _______ _____ _____    ______ ____
ROOT
ATOM      1  N   UNL     1       1.804   7.124  19.740  0.00  0.00    +0.000 N 
ATOM      2  C   UNL     1       2.612   6.014  19.522  0.00  0.00    +0.000 A 
ATOM      3  C   UNL     1       2.450   4.937  20.370  0.00  0.00    +0.000 A 
ATOM      4  C   UNL     1       3.348   3.904  20.236  0.00  0.00    +0.000 A 
ATOM      5  N   UNL     1       4.305   3.873  19.303  0.00  0.00    +0.000 NA
ATOM      6  C   UNL     1       4.311   4.899  18.437  0.00  0.00    +0.000 A 
ATOM      7  N   UNL     1       3.534   6.002  18.545  0.00  0.00    +0.000 NA
ATOM      8  H   UNL     1       0.823   6.908  19.590  0.00  0.00    +0.000 HD
ENDROOT
BRANCH   6   9
ATOM      9  C   UNL     1       5.218   4.818  17.277  0.00  0.00    +0.000 A 
ATOM     10  C   UNL     1       4.695   4.321  16.057  0.00  0.00    +0.000 A 
ATOM     11  C   UNL     1       5.472   4.191  14.904  0.00  0.00    +0.000 A 
ATOM     12  C   UNL     1       6.804   4.567  14.928  0.00  0.00    +0.000 A 
ATOM     13  C   UNL     1       7.352   5.059  16.109  0.00  0.00    +0.000 A 
ATOM     14  C   UNL     1       6.589   5.175  17.300  0.00  0.00    +0.000 A 
BRANCH  14  15
ATOM     15  C   UNL     1       7.372   5.658  18.509  0.00  0.00    +0.000 C 
ATOM     16  F   UNL     1       6.734   5.750  19.701  0.00  0.00    +0.000 F 
ATOM     17  F   UNL     1       8.423   4.816  18.769  0.00  0.00    +0.000 F 
ATOM     18  F   UNL     1       7.952   6.875  18.288  0.00  0.00    +0.000 F 
ENDBRANCH  14  15
ENDBRANCH   6   9
BRANCH   1  19
ATOM     19  C   UNL     1       2.188   8.409  19.162  0.00  0.00    +0.000 C 
BRANCH  19  25
ATOM     20  C   UNL     1       0.548   9.877  20.501  0.00  0.00    +0.000 A 
ATOM     21  C   UNL     1      -0.573  10.726  20.514  0.00  0.00    +0.000 A 
ATOM     22  C   UNL     1      -1.236  11.058  19.330  0.00  0.00    +0.000 A 
ATOM     23  C   UNL     1      -0.801  10.536  18.121  0.00  0.00    +0.000 A 
ATOM     24  C   UNL     1       0.295   9.675  18.101  0.00  0.00    +0.000 A 
ATOM     25  C   UNL     1       0.992   9.338  19.281  0.00  0.00    +0.000 A 
BRANCH  20  27
ATOM     26  C   UNL     1       0.450   9.358  22.822  0.00  0.00    +0.000 C 
ATOM     27  O   UNL     1       1.227   9.509  21.635  0.00  0.00    +0.000 OA
ENDBRANCH  20  27
ENDBRANCH  19  25
ENDBRANCH   1  19
TORSDOF 5
ENDMDL
MODEL 4
REMARK VINA RESULT:      -7.8      2.132      3.081
REMARK  Name = 
REMARK  6 active torsions:
REMARK  status: ('A' for Active; 'I' for Inactive)
REMARK    1  A    between atoms: C_1  and  O_2
REMARK    2  A    between atoms: O_2  and  C_3
REMARK    3  A    between atoms: C_8  and  C_9
REMARK    4  A    between atoms: C_9  and  N_10
REMARK    5  A    between atoms: C_15  and  C_16
REMARK    6  A    between atoms: C_21  and  C_22
REMARK                            x       y       z     vdW  Elec       q    Type
REMARK                         _______ _______ _______ _____ _____    ______ ____
ROOT
ATOM      1  N   UNL     1       1.314   6.524  20.984  0.00  0.00    +0.000 N 
ATOM      2  C   UNL     1       2.110   5.455  20.586  0.00  0.00    +0.000 A 
ATOM      3  C   UNL     1       1.645   4.184  20.859  0.00  0.00    +0.000 A 
ATOM      4  C   UNL     1       2.501   3.143  20.590  0.00  0.00    +0.000 A 
ATOM      5  N   UNL     1       3.706   3.300  20.032  0.00  0.00    +0.000 NA
ATOM      6  C   UNL     1       4.026   4.556  19.679  0.00  0.00    +0.000 A 
ATOM      7  N   UNL     1       3.296   5.652  19.987  0.00  0.00    +0.000 NA
ATOM      8  H   UNL     1       0.427   6.534  20.490  0.00  0.00    +0.000 HD
ENDROOT
BRANCH   6   9
ATOM      9  C   UNL     1       5.255   4.757  18.889  0.00  0.00    +0.000 A 
ATOM     10  C   UNL     1       6.354   5.393  19.520  0.00  0.00    +0.000 A 
ATOM     11  C   UNL     1       7.557   5.645  18.858  0.00  0.00    +0.000 A 
ATOM     12  C   UNL     1       7.710   5.254  17.539  0.00  0.00    +0.000 A 
ATOM     13  C   UNL     1       6.652   4.628  16.887  0.00  0.00    +0.000 A 
ATOM     14  C   UNL     1       5.411   4.386  17.530  0.00  0.00    +0.000 A 
BRANCH  14  15
ATOM     15  C   UNL     1       4.348   3.761  16.643  0.00  0.00    +0.000 C 
ATOM     16  F   UNL     1       3.999   2.469  16.857  0.00  0.00    +0.000 F 
ATOM     17  F   UNL     1       3.162   4.440  16.762  0.00  0.00    +0.000 F 
ATOM     18  F   UNL     1       4.668   3.859  15.319  0.00  0.00    +0.000 F 
ENDBRANCH  14  15
ENDBRANCH   6   9
BRANCH   1  19
ATOM     19  C   UNL     1       1.909   7.853  21.092  0.00  0.00    +0.000 C 
BRANCH  19  25
ATOM     20  C   UNL     1      -0.050   9.480  20.701  0.00  0.00    +0.000 A 
ATOM     21  C   UNL     1      -0.755  10.327  19.829  0.00  0.00    +0.000 A 
ATOM     22  C   UNL     1      -0.333  10.514  18.510  0.00  0.00    +0.000 A 
ATOM     23  C   UNL     1       0.788   9.846  18.040  0.00  0.00    +0.000 A 
ATOM     24  C   UNL     1       1.480   8.986  18.890  0.00  0.00    +0.000 A 
ATOM     25  C   UNL     1       1.083   8.794  20.231  0.00  0.00    +0.000 A 
BRANCH  20  27
ATOM     26  C   UNL     1      -0.720  10.404  22.790  0.00  0.00    +0.000 C 
ATOM     27  O   UNL     1      -0.429   9.252  22.000  0.00  0.00    +0.000 OA
ENDBRANCH  20  27
ENDBRANCH  19  25
ENDBRANCH   1  19
TORSDOF 5
ENDMDL
MODEL 5
REMARK VINA RESULT:      -7.8      1.200      2.163
REMARK  Name = 
REMARK  6 active torsions:
REMARK  status: ('A' for Active; 'I' for Inactive)
REMARK    1  A    between atoms: C_1  and  O_2
REMARK    2  A    between atoms: O_2  and  C_3
REMARK    3  A    between atoms: C_8  and  C_9
REMARK    4  A    between atoms: C_9  and  N_10
REMARK    5  A    between atoms: C_15  and  C_16
REMARK    6  A    between atoms: C_21  and  C_22
REMARK                            x       y       z     vdW  Elec       q    Type
REMARK                         _______ _______ _______ _____ _____    ______ ____
ROOT
ATOM      1  N   UNL     1       2.019   6.976  19.308  0.00  0.00    +0.000 N 
ATOM      2  C   UNL     1       2.892   5.925  19.049  0.00  0.00    +0.000 A 
ATOM      3  C   UNL     1       2.858   4.848  19.912  0.00  0.00    +0.000 A 
ATOM      4  C   UNL     1       3.819   3.881  19.731  0.00  0.00    +0.000 A 
ATOM      5  N   UNL     1       4.720   3.910  18.744  0.00  0.00    +0.000 NA
ATOM      6  C   UNL     1       4.600   4.924  17.873  0.00  0.00    +0.000 A 
ATOM      7  N   UNL     1       3.753   5.970  18.020  0.00  0.00    +0.000 NA
ATOM      8  H   UNL     1       1.049   6.688  19.217  0.00  0.00    +0.000 HD
ENDROOT
BRANCH   6   9
ATOM      9  C   UNL     1       5.442   4.897  16.662  0.00  0.00    +0.000 A 
ATOM     10  C   UNL     1       5.147   3.930  15.669  0.00  0.00    +0.000 A 
ATOM     11  C   UNL     1       5.891   3.811  14.493  0.00  0.00    +0.000 A 
ATOM     12  C   UNL     1       6.953   4.668  14.262  0.00  0.00    +0.000 A 
ATOM     13  C   UNL     1       7.272   5.630  15.216  0.00  0.00    +0.000 A 
ATOM     14  C   UNL     1       6.548   5.753  16.430  0.00  0.00    +0.000 A 
BRANCH  14  15
ATOM     15  C   UNL     1       7.085   6.806  17.384  0.00  0.00    +0.000 C 
ATOM     16  F   UNL     1       7.521   6.415  18.605  0.00  0.00    +0.000 F 
ATOM     17  F   UNL     1       8.174   7.438  16.839  0.00  0.00    +0.000 F 
ATOM     18  F   UNL     1       6.181   7.806  17.600  0.00  0.00    +0.000 F 
ENDBRANCH  14  15
ENDBRANCH   6   9
BRANCH   1  19
ATOM     19  C   UNL     1       2.274   8.279  18.701  0.00  0.00    +0.000 C 
BRANCH  19  25
ATOM     20  C   UNL     1       0.678   9.461  20.343  0.00  0.00    +0.000 A 
ATOM     21  C   UNL     1      -0.432  10.298  20.550  0.00  0.00    +0.000 A 
ATOM     22  C   UNL     1      -1.114  10.867  19.471  0.00  0.00    +0.000 A 
ATOM     23  C   UNL     1      -0.709  10.596  18.173  0.00  0.00    +0.000 A 
ATOM     24  C   UNL     1       0.376   9.749  17.957  0.00  0.00    +0.000 A 
ATOM     25  C   UNL     1       1.092   9.175  19.030  0.00  0.00    +0.000 A 
BRANCH  20  27
ATOM     26  C   UNL     1       1.031   9.271  22.689  0.00  0.00    +0.000 C 
ATOM     27  O   UNL     1       1.375   8.866  21.365  0.00  0.00    +0.000 OA
ENDBRANCH  20  27
ENDBRANCH  19  25
ENDBRANCH   1  19
TORSDOF 5
ENDMDL
MODEL 6
REMARK VINA RESULT:      -7.7      2.096      2.619
REMARK  Name = 
REMARK  6 active torsions:
REMARK  status: ('A' for Active; 'I' for Inactive)
REMARK    1  A    between atoms: C_1  and  O_2
REMARK    2  A    between atoms: O_2  and  C_3
REMARK    3  A    between atoms: C_8  and  C_9
REMARK    4  A    between atoms: C_9  and  N_10
REMARK    5  A    between atoms: C_15  and  C_16
REMARK    6  A    between atoms: C_21  and  C_22
REMARK                            x       y       z     vdW  Elec       q    Type
REMARK                         _______ _______ _______ _____ _____    ______ ____
ROOT
ATOM      1  N   UNL     1       1.201   6.911  20.504  0.00  0.00    +0.000 N 
ATOM      2  C   UNL     1       2.024   5.802  20.347  0.00  0.00    +0.000 A 
ATOM      3  C   UNL     1       1.577   4.603  20.864  0.00  0.00    +0.000 A 
ATOM      4  C   UNL     1       2.457   3.548  20.828  0.00  0.00    +0.000 A 
ATOM      5  N   UNL     1       3.671   3.616  20.272  0.00  0.00    +0.000 NA
ATOM      6  C   UNL     1       3.977   4.781  19.677  0.00  0.00    +0.000 A 
ATOM      7  N   UNL     1       3.220   5.901  19.743  0.00  0.00    +0.000 NA
ATOM      8  H   UNL     1       0.325   6.801  20.003  0.00  0.00    +0.000 HD
ENDROOT
BRANCH   6   9
ATOM      9  C   UNL     1       5.220   4.846  18.886  0.00  0.00    +0.000 A 
ATOM     10  C   UNL     1       6.351   5.462  19.475  0.00  0.00    +0.000 A 
ATOM     11  C   UNL     1       7.571   5.588  18.807  0.00  0.00    +0.000 A 
ATOM     12  C   UNL     1       7.706   5.086  17.524  0.00  0.00    +0.000 A 
ATOM     13  C   UNL     1       6.616   4.475  16.913  0.00  0.00    +0.000 A 
ATOM     14  C   UNL     1       5.359   4.360  17.562  0.00  0.00    +0.000 A 
BRANCH  14  15
ATOM     15  C   UNL     1       4.265   3.733  16.715  0.00  0.00    +0.000 C 
ATOM     16  F   UNL     1       3.023   4.274  16.753  0.00  0.00    +0.000 F 
ATOM     17  F   UNL     1       4.597   3.783  15.385  0.00  0.00    +0.000 F 
ATOM     18  F   UNL     1       4.113   2.402  16.982  0.00  0.00    +0.000 F 
ENDBRANCH  14  15
ENDBRANCH   6   9
BRANCH   1  19
ATOM     19  C   UNL     1       1.769   8.247  20.351  0.00  0.00    +0.000 C 
BRANCH  19  25
ATOM     20  C   UNL     1       0.374  10.407  20.534  0.00  0.00    +0.000 A 
ATOM     21  C   UNL     1      -0.453  11.244  21.303  0.00  0.00    +0.000 A 
ATOM     22  C   UNL     1      -0.811  10.897  22.608  0.00  0.00    +0.000 A 
ATOM     23  C   UNL     1      -0.337   9.721  23.169  0.00  0.00    +0.000 A 
ATOM     24  C   UNL     1       0.502   8.896  22.423  0.00  0.00    +0.000 A 
ATOM     25  C   UNL     1       0.865   9.215  21.097  0.00  0.00    +0.000 A 
BRANCH  20  27
ATOM     26  C   UNL     1       1.441  11.949  19.069  0.00  0.00    +0.000 C 
ATOM     27  O   UNL     1       0.767  10.706  19.253  0.00  0.00    +0.000 OA
ENDBRANCH  20  27
ENDBRANCH  19  25
ENDBRANCH   1  19
TORSDOF 5
ENDMDL
MODEL 7
REMARK VINA RESULT:      -7.7      1.190      2.173
REMARK  Name = 
REMARK  6 active torsions:
REMARK  status: ('A' for Active; 'I' for Inactive)
REMARK    1  A    between atoms: C_1  and  O_2
REMARK    2  A    between atoms: O_2  and  C_3
REMARK    3  A    between atoms: C_8  and  C_9
REMARK    4  A    between atoms: C_9  and  N_10
REMARK    5  A    between atoms: C_15  and  C_16
REMARK    6  A    between atoms: C_21  and  C_22
REMARK                            x       y       z     vdW  Elec       q    Type
REMARK                         _______ _______ _______ _____ _____    ______ ____
ROOT
ATOM      1  N   UNL     1       2.083   6.304  19.523  0.00  0.00    +0.000 N 
ATOM      2  C   UNL     1       2.753   5.213  18.979  0.00  0.00    +0.000 A 
ATOM      3  C   UNL     1       2.425   3.963  19.464  0.00  0.00    +0.000 A 
ATOM      4  C   UNL     1       3.189   2.909  19.023  0.00  0.00    +0.000 A 
ATOM      5  N   UNL     1       4.169   3.032  18.122  0.00  0.00    +0.000 NA
ATOM      6  C   UNL     1       4.336   4.260  17.604  0.00  0.00    +0.000 A 
ATOM      7  N   UNL     1       3.701   5.373  18.042  0.00  0.00    +0.000 NA
ATOM      8  H   UNL     1       1.089   6.273  19.317  0.00  0.00    +0.000 HD
ENDROOT
BRANCH   6   9
ATOM      9  C   UNL     1       5.269   4.410  16.472  0.00  0.00    +0.000 A 
ATOM     10  C   UNL     1       4.784   4.129  15.170  0.00  0.00    +0.000 A 
ATOM     11  C   UNL     1       5.588   4.227  14.032  0.00  0.00    +0.000 A 
ATOM     12  C   UNL     1       6.908   4.624  14.156  0.00  0.00    +0.000 A 
ATOM     13  C   UNL     1       7.418   4.908  15.419  0.00  0.00    +0.000 A 
ATOM     14  C   UNL     1       6.629   4.790  16.592  0.00  0.00    +0.000 A 
BRANCH  14  15
ATOM     15  C   UNL     1       7.373   5.066  17.887  0.00  0.00    +0.000 C 
ATOM     16  F   UNL     1       7.842   6.317  18.113  0.00  0.00    +0.000 F 
ATOM     17  F   UNL     1       6.563   4.826  18.968  0.00  0.00    +0.000 F 
ATOM     18  F   UNL     1       8.432   4.221  18.057  0.00  0.00    +0.000 F 
ENDBRANCH  14  15
ENDBRANCH   6   9
BRANCH   1  19
ATOM     19  C   UNL     1       2.648   7.640  19.357  0.00  0.00    +0.000 C 
BRANCH  19  25
ATOM     20  C   UNL     1       0.786   9.065  20.427  0.00  0.00    +0.000 A 
ATOM     21  C   UNL     1      -0.278   9.970  20.269  0.00  0.00    +0.000 A 
ATOM     22  C   UNL     1      -0.631  10.450  19.005  0.00  0.00    +0.000 A 
ATOM     23  C   UNL     1       0.060  10.022  17.882  0.00  0.00    +0.000 A 
ATOM     24  C   UNL     1       1.101   9.107  18.026  0.00  0.00    +0.000 A 
ATOM     25  C   UNL     1       1.488   8.620  19.293  0.00  0.00    +0.000 A 
BRANCH  20  27
ATOM     26  C   UNL     1       0.745   9.277  22.797  0.00  0.00    +0.000 C 
ATOM     27  O   UNL     1       1.165   8.553  21.642  0.00  0.00    +0.000 OA
ENDBRANCH  20  27
ENDBRANCH  19  25
ENDBRANCH   1  19
TORSDOF 5
ENDMDL
MODEL 8
REMARK VINA RESULT:      -7.7      4.179      8.321
REMARK  Name = 
REMARK  6 active torsions:
REMARK  status: ('A' for Active; 'I' for Inactive)
REMARK    1  A    between atoms: C_1  and  O_2
REMARK    2  A    between atoms: O_2  and  C_3
REMARK    3  A    between atoms: C_8  and  C_9
REMARK    4  A    between atoms: C_9  and  N_10
REMARK    5  A    between atoms: C_15  and  C_16
REMARK    6  A    between atoms: C_21  and  C_22
REMARK                            x       y       z     vdW  Elec       q    Type
REMARK                         _______ _______ _______ _____ _____    ______ ____
ROOT
ATOM      1  N   UNL     1       2.299   7.302  19.917  0.00  0.00    +0.000 N 
ATOM      2  C   UNL     1       1.436   8.256  20.443  0.00  0.00    +0.000 A 
ATOM      3  C   UNL     1       0.802   7.950  21.631  0.00  0.00    +0.000 A 
ATOM      4  C   UNL     1      -0.152   8.836  22.069  0.00  0.00    +0.000 A 
ATOM      5  N   UNL     1      -0.441   9.981  21.442  0.00  0.00    +0.000 NA
ATOM      6  C   UNL     1       0.312  10.265  20.367  0.00  0.00    +0.000 A 
ATOM      7  N   UNL     1       1.204   9.416  19.807  0.00  0.00    +0.000 NA
ATOM      8  H   UNL     1       3.097   7.143  20.524  0.00  0.00    +0.000 HD
ENDROOT
BRANCH   6   9
ATOM      9  C   UNL     1       0.167  11.599  19.755  0.00  0.00    +0.000 A 
ATOM     10  C   UNL     1       0.856  12.683  20.354  0.00  0.00    +0.000 A 
ATOM     11  C   UNL     1       0.775  13.988  19.863  0.00  0.00    +0.000 A 
ATOM     12  C   UNL     1       0.008  14.253  18.741  0.00  0.00    +0.000 A 
ATOM     13  C   UNL     1      -0.683  13.212  18.127  0.00  0.00    +0.000 A 
ATOM     14  C   UNL     1      -0.637  11.884  18.624  0.00  0.00    +0.000 A 
BRANCH  14  15
ATOM     15  C   UNL     1      -1.513  10.896  17.873  0.00  0.00    +0.000 C 
ATOM     16  F   UNL     1      -2.548  10.316  18.528  0.00  0.00    +0.000 F 
ATOM     17  F   UNL     1      -2.113  11.505  16.799  0.00  0.00    +0.000 F 
ATOM     18  F   UNL     1      -0.783   9.879  17.327  0.00  0.00    +0.000 F 
ENDBRANCH  14  15
ENDBRANCH   6   9
BRANCH   1  19
ATOM     19  C   UNL     1       2.675   7.382  18.508  0.00  0.00    +0.000 C 
BRANCH  19  25
ATOM     20  C   UNL     1       4.179   5.542  17.511  0.00  0.00    +0.000 A 
ATOM     21  C   UNL     1       4.330   4.212  17.084  0.00  0.00    +0.000 A 
ATOM     22  C   UNL     1       3.276   3.301  17.184  0.00  0.00    +0.000 A 
ATOM     23  C   UNL     1       2.053   3.708  17.697  0.00  0.00    +0.000 A 
ATOM     24  C   UNL     1       1.886   5.031  18.101  0.00  0.00    +0.000 A 
ATOM     25  C   UNL     1       2.941   5.966  18.026  0.00  0.00    +0.000 A 
BRANCH  20  27
ATOM     26  C   UNL     1       6.492   6.043  17.757  0.00  0.00    +0.000 C 
ATOM     27  O   UNL     1       5.177   6.480  17.423  0.00  0.00    +0.000 OA
ENDBRANCH  20  27
ENDBRANCH  19  25
ENDBRANCH   1  19
TORSDOF 5
ENDMDL
MODEL 9
REMARK VINA RESULT:      -7.6      4.395      8.741
REMARK  Name = 
REMARK  6 active torsions:
REMARK  status: ('A' for Active; 'I' for Inactive)
REMARK    1  A    between atoms: C_1  and  O_2
REMARK    2  A    between atoms: O_2  and  C_3
REMARK    3  A    between atoms: C_8  and  C_9
REMARK    4  A    between atoms: C_9  and  N_10
REMARK    5  A    between atoms: C_15  and  C_16
REMARK    6  A    between atoms: C_21  and  C_22
REMARK                            x       y       z     vdW  Elec       q    Type
REMARK                         _______ _______ _______ _____ _____    ______ ____
ROOT
ATOM      1  N   UNL     1       2.105   7.331  19.164  0.00  0.00    +0.000 N 
ATOM      2  C   UNL     1       1.742   8.665  19.009  0.00  0.00    +0.000 A 
ATOM      3  C   UNL     1       2.306   9.356  17.956  0.00  0.00    +0.000 A 
ATOM      4  C   UNL     1       2.052  10.705  17.895  0.00  0.00    +0.000 A 
ATOM      5  N   UNL     1       1.253  11.346  18.754  0.00  0.00    +0.000 NA
ATOM      6  C   UNL     1       0.641  10.577  19.669  0.00  0.00    +0.000 A 
ATOM      7  N   UNL     1       0.900   9.263  19.867  0.00  0.00    +0.000 NA
ATOM      8  H   UNL     1       1.799   6.767  18.378  0.00  0.00    +0.000 HD
ENDROOT
BRANCH   6   9
ATOM      9  C   UNL     1      -0.395  11.200  20.514  0.00  0.00    +0.000 A 
ATOM     10  C   UNL     1      -0.160  11.272  21.910  0.00  0.00    +0.000 A 
ATOM     11  C   UNL     1      -1.081  11.829  22.799  0.00  0.00    +0.000 A 
ATOM     12  C   UNL     1      -2.270  12.350  22.318  0.00  0.00    +0.000 A 
ATOM     13  C   UNL     1      -2.535  12.296  20.953  0.00  0.00    +0.000 A 
ATOM     14  C   UNL     1      -1.626  11.711  20.034  0.00  0.00    +0.000 A 
BRANCH  14  15
ATOM     15  C   UNL     1      -2.116  11.674  18.597  0.00  0.00    +0.000 C 
ATOM     16  F   UNL     1      -3.417  11.958  18.346  0.00  0.00    +0.000 F 
ATOM     17  F   UNL     1      -1.433  12.586  17.832  0.00  0.00    +0.000 F 
ATOM     18  F   UNL     1      -1.863  10.470  18.003  0.00  0.00    +0.000 F 
ENDBRANCH  14  15
ENDBRANCH   6   9
BRANCH   1  19
ATOM     19  C   UNL     1       1.874   6.675  20.448  0.00  0.00    +0.000 C 
BRANCH  19  25
ATOM     20  C   UNL     1       3.321   4.652  19.773  0.00  0.00    +0.000 A 
ATOM     21  C   UNL     1       3.446   3.261  19.616  0.00  0.00    +0.000 A 
ATOM     22  C   UNL     1       2.394   2.403  19.947  0.00  0.00    +0.000 A 
ATOM     23  C   UNL     1       1.199   2.922  20.423  0.00  0.00    +0.000 A 
ATOM     24  C   UNL     1       1.057   4.301  20.560  0.00  0.00    +0.000 A 
ATOM     25  C   UNL     1       2.111   5.188  20.248  0.00  0.00    +0.000 A 
BRANCH  20  27
ATOM     26  C   UNL     1       5.611   4.986  19.219  0.00  0.00    +0.000 C 
ATOM     27  O   UNL     1       4.317   5.539  19.451  0.00  0.00    +0.000 OA
ENDBRANCH  20  27
ENDBRANCH  19  25
ENDBRANCH   1  19
TORSDOF 5
ENDMDL
