MODEL 1
REMARK VINA RESULT:      -7.8      0.000      0.000
REMARK  Name = 
REMARK  6 active torsions:
REMARK  status: ('A' for Active; 'I' for Inactive)
REMARK    1  A    between atoms: N_1  and  C_2
REMARK    2  A    between atoms: C_2  and  C_3
REMARK    3  A    between atoms: C_3  and  C_4
REMARK    4  A    between atoms: N_6  and  C_7
REMARK    5  A    between atoms: C_7  and  C_8
REMARK    6  A    between atoms: C_11  and  C_12
REMARK                            x       y       z     vdW  Elec       q    Type
REMARK                         _______ _______ _______ _____ _____    ______ ____
ROOT
ATOM      1  C   UNL     1       4.332   5.002  17.106  0.00  0.00    +0.000 A 
ATOM      2  C   UNL     1       4.667   6.343  16.854  0.00  0.00    +0.000 A 
ATOM      3  C   UNL     1       3.923   7.420  17.406  0.00  0.00    +0.000 A 
ATOM      4  C   UNL     1       2.820   7.184  18.233  0.00  0.00    +0.000 A 
ATOM      5  C   UNL     1       2.493   5.833  18.479  0.00  0.00    +0.000 A 
ATOM      6  C   UNL     1       3.232   4.764  17.934  0.00  0.00    +0.000 A 
ENDROOT
BRANCH   4   7
ATOM      7  C   UNL     1       2.023   8.233  18.907  0.00  0.00    +0.000 A 
ATOM      8  C   UNL     1       1.574   8.327  20.230  0.00  0.00    +0.000 A 
ATOM      9  N   UNL     1       0.811   9.478  20.259  0.00  0.00    +0.000 N 
ATOM     10  C   UNL     1       0.848  10.005  19.002  0.00  0.00    +0.000 A 
ATOM     11  N   UNL     1       1.579   9.324  18.169  0.00  0.00    +0.000 NA
ATOM     12  S   UNL     1      -0.146  11.407  18.798  0.00  0.00    +0.000 S 
ATOM     13  C   UNL     1      -0.648  11.241  20.510  0.00  0.00    +0.000 A 
ATOM     14  C   UNL     1      -1.579  12.033  21.160  0.00  0.00    +0.000 A 
ATOM     15  C   UNL     1      -1.844  11.778  22.506  0.00  0.00    +0.000 A 
ATOM     16  C   UNL     1      -1.164  10.746  23.179  0.00  0.00    +0.000 A 
ATOM     17  C   UNL     1      -0.234   9.923  22.511  0.00  0.00    +0.000 A 
ATOM     18  C   UNL     1      -0.004  10.174  21.170  0.00  0.00    +0.000 A 
ENDBRANCH   4   7
BRANCH   1  19
ATOM     19  C   UNL     1       5.082   3.845  16.471  0.00  0.00    +0.000 C 
BRANCH  19  22
ATOM     20  C   UNL     1       6.642   4.425  14.645  0.00  0.00    +0.000 C 
ATOM     21  O   UNL     1       7.555   4.697  15.422  0.00  0.00    +0.000 OA
ATOM     22  N   UNL     1       5.390   4.030  15.070  0.00  0.00    +0.000 N 
ATOM     23  H   UNL     1       4.705   3.784  14.355  0.00  0.00    +0.000 HD
BRANCH  20  24
ATOM     24  C   UNL     1       6.808   4.606  13.138  0.00  0.00    +0.000 C 
BRANCH  24  25
ATOM     25  C   UNL     1       6.402   3.408  12.286  0.00  0.00    +0.000 C 
BRANCH  25  26
ATOM     26  N   UNL     1       4.963   3.395  12.005  0.00  0.00    +0.000 NA
ATOM     27  H   UNL     1       4.448   3.370  12.887  0.00  0.00    +0.000 HD
ATOM     28  H   UNL     1       4.719   2.530  11.518  0.00  0.00    +0.000 HD
ENDBRANCH  25  26
ENDBRANCH  24  25
ENDBRANCH  20  24
ENDBRANCH  19  22
ENDBRANCH   1  19
TORSDOF 6
ENDMDL
MODEL 2
REMARK VINA RESULT:      -7.8      0.919      1.354
REMARK  Name = 
REMARK  6 active torsions:
REMARK  status: ('A' for Active; 'I' for Inactive)
REMARK    1  A    between atoms: N_1  and  C_2
REMARK    2  A    between atoms: C_2  and  C_3
REMARK    3  A    between atoms: C_3  and  C_4
REMARK    4  A    between atoms: N_6  and  C_7
REMARK    5  A    between atoms: C_7  and  C_8
REMARK    6  A    between atoms: C_11  and  C_12
REMARK                            x       y       z     vdW  Elec       q    Type
REMARK                         _______ _______ _______ _____ _____    ______ ____
ROOT
ATOM      1  C   UNL     1       5.035   4.621  16.678  0.00  0.00    +0.000 A 
ATOM      2  C   UNL     1       3.808   4.246  17.250  0.00  0.00    +0.000 A 
ATOM      3  C   UNL     1       2.985   5.175  17.942  0.00  0.00    +0.000 A 
ATOM      4  C   UNL     1       3.368   6.513  18.077  0.00  0.00    +0.000 A 
ATOM      5  C   UNL     1       4.602   6.879  17.499  0.00  0.00    +0.000 A 
ATOM      6  C   UNL     1       5.418   5.958  16.811  0.00  0.00    +0.000 A 
ENDROOT
BRANCH   4   7
ATOM      7  C   UNL     1       2.553   7.569  18.719  0.00  0.00    +0.000 A 
ATOM      8  C   UNL     1       2.112   7.700  20.042  0.00  0.00    +0.000 A 
ATOM      9  N   UNL     1       1.324   8.834  20.036  0.00  0.00    +0.000 N 
ATOM     10  C   UNL     1       1.340   9.317  18.760  0.00  0.00    +0.000 A 
ATOM     11  N   UNL     1       2.080   8.623  17.947  0.00  0.00    +0.000 NA
ATOM     12  S   UNL     1       0.314  10.689  18.515  0.00  0.00    +0.000 S 
ATOM     13  C   UNL     1      -0.171  10.573  20.236  0.00  0.00    +0.000 A 
ATOM     14  C   UNL     1      -1.115  11.368  20.865  0.00  0.00    +0.000 A 
ATOM     15  C   UNL     1      -1.365  11.155  22.221  0.00  0.00    +0.000 A 
ATOM     16  C   UNL     1      -0.657  10.163  22.925  0.00  0.00    +0.000 A 
ATOM     17  C   UNL     1       0.286   9.337  22.279  0.00  0.00    +0.000 A 
ATOM     18  C   UNL     1       0.501   9.545  20.928  0.00  0.00    +0.000 A 
ENDBRANCH   4   7
BRANCH   1  19
ATOM     19  C   UNL     1       5.951   3.623  15.993  0.00  0.00    +0.000 C 
BRANCH  19  22
ATOM     20  C   UNL     1       6.700   4.347  13.753  0.00  0.00    +0.000 C 
ATOM     21  O   UNL     1       7.559   5.098  14.210  0.00  0.00    +0.000 OA
ATOM     22  N   UNL     1       5.848   3.610  14.550  0.00  0.00    +0.000 N 
ATOM     23  H   UNL     1       5.193   2.982  14.086  0.00  0.00    +0.000 HD
BRANCH  20  24
ATOM     24  C   UNL     1       6.452   4.256  12.249  0.00  0.00    +0.000 C 
BRANCH  24  25
ATOM     25  C   UNL     1       5.463   3.180  11.812  0.00  0.00    +0.000 C 
BRANCH  25  26
ATOM     26  N   UNL     1       6.073   1.847  11.790  0.00  0.00    +0.000 NA
ATOM     27  H   UNL     1       7.061   1.933  11.545  0.00  0.00    +0.000 HD
ATOM     28  H   UNL     1       5.652   1.292  11.042  0.00  0.00    +0.000 HD
ENDBRANCH  25  26
ENDBRANCH  24  25
ENDBRANCH  20  24
ENDBRANCH  19  22
ENDBRANCH   1  19
TORSDOF 6
ENDMDL
MODEL 3
REMARK VINA RESULT:      -7.6      1.402      2.225
REMARK  Name = 
REMARK  6 active torsions:
REMARK  status: ('A' for Active; 'I' for Inactive)
REMARK    1  A    between atoms: N_1  and  C_2
REMARK    2  A    between atoms: C_2  and  C_3
REMARK    3  A    between atoms: C_3  and  C_4
REMARK    4  A    between atoms: N_6  and  C_7
REMARK    5  A    between atoms: C_7  and  C_8
REMARK    6  A    between atoms: C_11  and  C_12
REMARK                            x       y       z     vdW  Elec       q    Type
REMARK                         _______ _______ _______ _____ _____    ______ ____
ROOT
ATOM      1  C   UNL     1       5.493   4.931  16.754  0.00  0.00    +0.000 A 
ATOM      2  C   UNL     1       4.794   4.502  17.895  0.00  0.00    +0.000 A 
ATOM      3  C   UNL     1       3.850   5.333  18.557  0.00  0.00    +0.000 A 
ATOM      4  C   UNL     1       3.576   6.622  18.090  0.00  0.00    +0.000 A 
ATOM      5  C   UNL     1       4.283   7.043  16.944  0.00  0.00    +0.000 A 
ATOM      6  C   UNL     1       5.217   6.219  16.286  0.00  0.00    +0.000 A 
ENDROOT
BRANCH   4   7
ATOM      7  C   UNL     1       2.566   7.537  18.667  0.00  0.00    +0.000 A 
ATOM      8  C   UNL     1       1.908   8.638  18.106  0.00  0.00    +0.000 A 
ATOM      9  N   UNL     1       1.145   9.152  19.137  0.00  0.00    +0.000 N 
ATOM     10  C   UNL     1       1.366   8.357  20.223  0.00  0.00    +0.000 A 
ATOM     11  N   UNL     1       2.176   7.366  19.990  0.00  0.00    +0.000 NA
ATOM     12  S   UNL     1       0.579   8.901  21.665  0.00  0.00    +0.000 S 
ATOM     13  C   UNL     1      -0.059  10.293  20.733  0.00  0.00    +0.000 A 
ATOM     14  C   UNL     1      -0.813  11.334  21.248  0.00  0.00    +0.000 A 
ATOM     15  C   UNL     1      -1.245  12.335  20.379  0.00  0.00    +0.000 A 
ATOM     16  C   UNL     1      -0.928  12.270  19.009  0.00  0.00    +0.000 A 
ATOM     17  C   UNL     1      -0.139  11.223  18.488  0.00  0.00    +0.000 A 
ATOM     18  C   UNL     1       0.303  10.254  19.370  0.00  0.00    +0.000 A 
ENDBRANCH   4   7
BRANCH   1  19
ATOM     19  C   UNL     1       6.548   4.075  16.078  0.00  0.00    +0.000 C 
BRANCH  19  22
ATOM     20  C   UNL     1       6.998   4.491  13.685  0.00  0.00    +0.000 C 
ATOM     21  O   UNL     1       7.821   5.373  13.924  0.00  0.00    +0.000 OA
ATOM     22  N   UNL     1       6.305   3.824  14.674  0.00  0.00    +0.000 N 
ATOM     23  H   UNL     1       5.672   3.079  14.386  0.00  0.00    +0.000 HD
BRANCH  20  24
ATOM     24  C   UNL     1       6.612   4.141  12.250  0.00  0.00    +0.000 C 
BRANCH  24  25
ATOM     25  C   UNL     1       5.475   3.135  12.103  0.00  0.00    +0.000 C 
BRANCH  25  26
ATOM     26  N   UNL     1       5.955   1.821  11.665  0.00  0.00    +0.000 NA
ATOM     27  H   UNL     1       5.491   1.567  10.791  0.00  0.00    +0.000 HD
ATOM     28  H   UNL     1       5.672   1.111  12.344  0.00  0.00    +0.000 HD
ENDBRANCH  25  26
ENDBRANCH  24  25
ENDBRANCH  20  24
ENDBRANCH  19  22
ENDBRANCH   1  19
TORSDOF 6
ENDMDL
MODEL 4
REMARK VINA RESULT:      -7.4      1.524      2.223
REMARK  Name = 
REMARK  6 active torsions:
REMARK  status: ('A' for Active; 'I' for Inactive)
REMARK    1  A    between atoms: N_1  and  C_2
REMARK    2  A    between atoms: C_2  and  C_3
REMARK    3  A    between atoms: C_3  and  C_4
REMARK    4  A    between atoms: N_6  and  C_7
REMARK    5  A    between atoms: C_7  and  C_8
REMARK    6  A    between atoms: C_11  and  C_12
REMARK                            x       y       z     vdW  Elec       q    Type
REMARK                         _______ _______ _______ _____ _____    ______ ____
ROOT
ATOM      1  C   UNL     1       5.554   4.665  15.764  0.00  0.00    +0.000 A 
ATOM      2  C   UNL     1       4.595   4.136  16.644  0.00  0.00    +0.000 A 
ATOM      3  C   UNL     1       3.777   4.969  17.454  0.00  0.00    +0.000 A 
ATOM      4  C   UNL     1       3.895   6.362  17.402  0.00  0.00    +0.000 A 
ATOM      5  C   UNL     1       4.862   6.881  16.515  0.00  0.00    +0.000 A 
ATOM      6  C   UNL     1       5.671   6.056  15.710  0.00  0.00    +0.000 A 
ENDROOT
BRANCH   4   7
ATOM      7  C   UNL     1       3.049   7.314  18.154  0.00  0.00    +0.000 A 
ATOM      8  C   UNL     1       2.657   7.319  19.498  0.00  0.00    +0.000 A 
ATOM      9  N   UNL     1       1.804   8.400  19.610  0.00  0.00    +0.000 N 
ATOM     10  C   UNL     1       1.739   8.977  18.376  0.00  0.00    +0.000 A 
ATOM     11  N   UNL     1       2.482   8.392  17.484  0.00  0.00    +0.000 NA
ATOM     12  S   UNL     1       0.625  10.299  18.276  0.00  0.00    +0.000 S 
ATOM     13  C   UNL     1       0.221  10.025  20.001  0.00  0.00    +0.000 A 
ATOM     14  C   UNL     1      -0.741  10.710  20.725  0.00  0.00    +0.000 A 
ATOM     15  C   UNL     1      -0.919  10.382  22.069  0.00  0.00    +0.000 A 
ATOM     16  C   UNL     1      -0.126   9.385  22.667  0.00  0.00    +0.000 A 
ATOM     17  C   UNL     1       0.835   8.669  21.923  0.00  0.00    +0.000 A 
ATOM     18  C   UNL     1       0.980   8.990  20.585  0.00  0.00    +0.000 A 
ENDBRANCH   4   7
BRANCH   1  19
ATOM     19  C   UNL     1       6.475   3.781  14.941  0.00  0.00    +0.000 C 
BRANCH  19  22
ATOM     20  C   UNL     1       6.157   3.263  12.547  0.00  0.00    +0.000 C 
ATOM     21  O   UNL     1       6.994   4.088  12.188  0.00  0.00    +0.000 OA
ATOM     22  N   UNL     1       5.817   3.066  13.869  0.00  0.00    +0.000 N 
ATOM     23  H   UNL     1       5.142   2.331  14.079  0.00  0.00    +0.000 HD
BRANCH  20  24
ATOM     24  C   UNL     1       5.356   2.457  11.526  0.00  0.00    +0.000 C 
BRANCH  24  25
ATOM     25  C   UNL     1       6.139   1.380  10.782  0.00  0.00    +0.000 C 
BRANCH  25  26
ATOM     26  N   UNL     1       6.148   0.105  11.507  0.00  0.00    +0.000 NA
ATOM     27  H   UNL     1       7.114  -0.170  11.691  0.00  0.00    +0.000 HD
ATOM     28  H   UNL     1       5.762  -0.628  10.909  0.00  0.00    +0.000 HD
ENDBRANCH  25  26
ENDBRANCH  24  25
ENDBRANCH  20  24
ENDBRANCH  19  22
ENDBRANCH   1  19
TORSDOF 6
ENDMDL
MODEL 5
REMARK VINA RESULT:      -7.4      1.307      1.608
REMARK  Name = 
REMARK  6 active torsions:
REMARK  status: ('A' for Active; 'I' for Inactive)
REMARK    1  A    between atoms: N_1  and  C_2
REMARK    2  A    between atoms: C_2  and  C_3
REMARK    3  A    between atoms: C_3  and  C_4
REMARK    4  A    between atoms: N_6  and  C_7
REMARK    5  A    between atoms: C_7  and  C_8
REMARK    6  A    between atoms: C_11  and  C_12
REMARK                            x       y       z     vdW  Elec       q    Type
REMARK                         _______ _______ _______ _____ _____    ______ ____
ROOT
ATOM      1  C   UNL     1       5.284   4.742  16.163  0.00  0.00    +0.000 A 
ATOM      2  C   UNL     1       5.377   6.116  15.883  0.00  0.00    +0.000 A 
ATOM      3  C   UNL     1       4.581   7.077  16.562  0.00  0.00    +0.000 A 
ATOM      4  C   UNL     1       3.669   6.689  17.549  0.00  0.00    +0.000 A 
ATOM      5  C   UNL     1       3.584   5.307  17.822  0.00  0.00    +0.000 A 
ATOM      6  C   UNL     1       4.374   4.353  17.150  0.00  0.00    +0.000 A 
ENDROOT
BRANCH   4   7
ATOM      7  C   UNL     1       2.846   7.616  18.356  0.00  0.00    +0.000 A 
ATOM      8  C   UNL     1       2.462   7.557  19.702  0.00  0.00    +0.000 A 
ATOM      9  N   UNL     1       1.632   8.647  19.876  0.00  0.00    +0.000 N 
ATOM     10  C   UNL     1       1.571   9.290  18.675  0.00  0.00    +0.000 A 
ATOM     11  N   UNL     1       2.298   8.739  17.748  0.00  0.00    +0.000 NA
ATOM     12  S   UNL     1       0.483  10.637  18.653  0.00  0.00    +0.000 S 
ATOM     13  C   UNL     1       0.083  10.279  20.363  0.00  0.00    +0.000 A 
ATOM     14  C   UNL     1      -0.861  10.944  21.128  0.00  0.00    +0.000 A 
ATOM     15  C   UNL     1      -1.038  10.548  22.454  0.00  0.00    +0.000 A 
ATOM     16  C   UNL     1      -0.262   9.506  22.993  0.00  0.00    +0.000 A 
ATOM     17  C   UNL     1       0.681   8.812  22.206  0.00  0.00    +0.000 A 
ATOM     18  C   UNL     1       0.825   9.200  20.887  0.00  0.00    +0.000 A 
ENDBRANCH   4   7
BRANCH   1  19
ATOM     19  C   UNL     1       6.083   3.702  15.400  0.00  0.00    +0.000 C 
BRANCH  19  22
ATOM     20  C   UNL     1       5.954   3.571  12.936  0.00  0.00    +0.000 C 
ATOM     21  O   UNL     1       6.922   4.312  12.779  0.00  0.00    +0.000 OA
ATOM     22  N   UNL     1       5.455   3.243  14.180  0.00  0.00    +0.000 N 
ATOM     23  H   UNL     1       4.674   2.589  14.217  0.00  0.00    +0.000 HD
BRANCH  20  24
ATOM     24  C   UNL     1       5.169   3.037  11.741  0.00  0.00    +0.000 C 
BRANCH  24  25
ATOM     25  C   UNL     1       5.739   1.781  11.090  0.00  0.00    +0.000 C 
BRANCH  25  26
ATOM     26  N   UNL     1       7.169   1.617  11.368  0.00  0.00    +0.000 NA
ATOM     27  H   UNL     1       7.484   0.719  10.997  0.00  0.00    +0.000 HD
ATOM     28  H   UNL     1       7.316   1.565  12.378  0.00  0.00    +0.000 HD
ENDBRANCH  25  26
ENDBRANCH  24  25
ENDBRANCH  20  24
ENDBRANCH  19  22
ENDBRANCH   1  19
TORSDOF 6
ENDMDL
MODEL 6
REMARK VINA RESULT:      -7.4      2.475      3.376
REMARK  Name = 
REMARK  6 active torsions:
REMARK  status: ('A' for Active; 'I' for Inactive)
REMARK    1  A    between atoms: N_1  and  C_2
REMARK    2  A    between atoms: C_2  and  C_3
REMARK    3  A    between atoms: C_3  and  C_4
REMARK    4  A    between atoms: N_6  and  C_7
REMARK    5  A    between atoms: C_7  and  C_8
REMARK    6  A    between atoms: C_11  and  C_12
REMARK                            x       y       z     vdW  Elec       q    Type
REMARK                         _______ _______ _______ _____ _____    ______ ____
ROOT
ATOM      1  C   UNL     1       3.081   5.438  19.022  0.00  0.00    +0.000 A 
ATOM      2  C   UNL     1       2.360   5.453  20.228  0.00  0.00    +0.000 A 
ATOM      3  C   UNL     1       1.673   6.612  20.679  0.00  0.00    +0.000 A 
ATOM      4  C   UNL     1       1.685   7.793  19.929  0.00  0.00    +0.000 A 
ATOM      5  C   UNL     1       2.412   7.766  18.721  0.00  0.00    +0.000 A 
ATOM      6  C   UNL     1       3.092   6.617  18.271  0.00  0.00    +0.000 A 
ENDROOT
BRANCH   4   7
ATOM      7  C   UNL     1       0.950   9.028  20.280  0.00  0.00    +0.000 A 
ATOM      8  C   UNL     1       0.235   9.365  21.435  0.00  0.00    +0.000 A 
ATOM      9  N   UNL     1      -0.305  10.608  21.162  0.00  0.00    +0.000 N 
ATOM     10  C   UNL     1       0.108  10.947  19.908  0.00  0.00    +0.000 A 
ATOM     11  N   UNL     1       0.880  10.061  19.352  0.00  0.00    +0.000 NA
ATOM     12  S   UNL     1      -0.556  12.437  19.329  0.00  0.00    +0.000 S 
ATOM     13  C   UNL     1      -1.455  12.580  20.872  0.00  0.00    +0.000 A 
ATOM     14  C   UNL     1      -2.359  13.580  21.192  0.00  0.00    +0.000 A 
ATOM     15  C   UNL     1      -2.963  13.552  22.449  0.00  0.00    +0.000 A 
ATOM     16  C   UNL     1      -2.642  12.534  23.368  0.00  0.00    +0.000 A 
ATOM     17  C   UNL     1      -1.740  11.502  23.033  0.00  0.00    +0.000 A 
ATOM     18  C   UNL     1      -1.172  11.532  21.772  0.00  0.00    +0.000 A 
ENDBRANCH   4   7
BRANCH   1  19
ATOM     19  C   UNL     1       3.870   4.225  18.562  0.00  0.00    +0.000 C 
BRANCH  19  22
ATOM     20  C   UNL     1       6.118   4.688  17.650  0.00  0.00    +0.000 C 
ATOM     21  O   UNL     1       5.695   4.846  16.507  0.00  0.00    +0.000 OA
ATOM     22  N   UNL     1       5.303   4.353  18.711  0.00  0.00    +0.000 N 
ATOM     23  H   UNL     1       5.734   4.283  19.633  0.00  0.00    +0.000 HD
BRANCH  20  24
ATOM     24  C   UNL     1       7.613   4.759  17.953  0.00  0.00    +0.000 C 
BRANCH  24  25
ATOM     25  C   UNL     1       8.032   5.848  18.935  0.00  0.00    +0.000 C 
BRANCH  25  26
ATOM     26  N   UNL     1       7.911   5.409  20.329  0.00  0.00    +0.000 NA
ATOM     27  H   UNL     1       7.132   4.754  20.409  0.00  0.00    +0.000 HD
ATOM     28  H   UNL     1       7.661   6.207  20.917  0.00  0.00    +0.000 HD
ENDBRANCH  25  26
ENDBRANCH  24  25
ENDBRANCH  20  24
ENDBRANCH  19  22
ENDBRANCH   1  19
TORSDOF 6
ENDMDL
MODEL 7
REMARK VINA RESULT:      -7.3      1.557      1.997
REMARK  Name = 
REMARK  6 active torsions:
REMARK  status: ('A' for Active; 'I' for Inactive)
REMARK    1  A    between atoms: N_1  and  C_2
REMARK    2  A    between atoms: C_2  and  C_3
REMARK    3  A    between atoms: C_3  and  C_4
REMARK    4  A    between atoms: N_6  and  C_7
REMARK    5  A    between atoms: C_7  and  C_8
REMARK    6  A    between atoms: C_11  and  C_12
REMARK                            x       y       z     vdW  Elec       q    Type
REMARK                         _______ _______ _______ _____ _____    ______ ____
ROOT
ATOM      1  C   UNL     1       4.521   5.342  17.981  0.00  0.00    +0.000 A 
ATOM      2  C   UNL     1       4.238   6.552  17.325  0.00  0.00    +0.000 A 
ATOM      3  C   UNL     1       3.303   7.488  17.844  0.00  0.00    +0.000 A 
ATOM      4  C   UNL     1       2.626   7.239  19.043  0.00  0.00    +0.000 A 
ATOM      5  C   UNL     1       2.918   6.021  19.692  0.00  0.00    +0.000 A 
ATOM      6  C   UNL     1       3.847   5.094  19.179  0.00  0.00    +0.000 A 
ENDROOT
BRANCH   4   7
ATOM      7  C   UNL     1       1.686   8.177  19.697  0.00  0.00    +0.000 A 
ATOM      8  C   UNL     1       1.091   9.351  19.219  0.00  0.00    +0.000 A 
ATOM      9  N   UNL     1       0.379   9.844  20.296  0.00  0.00    +0.000 N 
ATOM     10  C   UNL     1       0.566   8.968  21.324  0.00  0.00    +0.000 A 
ATOM     11  N   UNL     1       1.307   7.945  21.014  0.00  0.00    +0.000 NA
ATOM     12  S   UNL     1      -0.162   9.467  22.813  0.00  0.00    +0.000 S 
ATOM     13  C   UNL     1      -0.724  10.953  21.984  0.00  0.00    +0.000 A 
ATOM     14  C   UNL     1      -1.402  12.004  22.580  0.00  0.00    +0.000 A 
ATOM     15  C   UNL     1      -1.783  13.084  21.784  0.00  0.00    +0.000 A 
ATOM     16  C   UNL     1      -1.492  13.088  20.407  0.00  0.00    +0.000 A 
ATOM     17  C   UNL     1      -0.780  12.029  19.805  0.00  0.00    +0.000 A 
ATOM     18  C   UNL     1      -0.387  10.979  20.615  0.00  0.00    +0.000 A 
ENDBRANCH   4   7
BRANCH   1  19
ATOM     19  C   UNL     1       5.470   4.308  17.403  0.00  0.00    +0.000 C 
BRANCH  19  22
ATOM     20  C   UNL     1       6.430   4.389  15.128  0.00  0.00    +0.000 C 
ATOM     21  O   UNL     1       7.509   4.822  15.526  0.00  0.00    +0.000 OA
ATOM     22  N   UNL     1       5.367   4.137  15.970  0.00  0.00    +0.000 N 
ATOM     23  H   UNL     1       4.523   3.739  15.559  0.00  0.00    +0.000 HD
BRANCH  20  24
ATOM     24  C   UNL     1       6.162   4.190  13.638  0.00  0.00    +0.000 C 
BRANCH  24  25
ATOM     25  C   UNL     1       7.369   4.379  12.724  0.00  0.00    +0.000 C 
BRANCH  25  26
ATOM     26  N   UNL     1       7.976   5.705  12.881  0.00  0.00    +0.000 NA
ATOM     27  H   UNL     1       7.259   6.421  12.750  0.00  0.00    +0.000 HD
ATOM     28  H   UNL     1       8.657   5.857  12.135  0.00  0.00    +0.000 HD
ENDBRANCH  25  26
ENDBRANCH  24  25
ENDBRANCH  20  24
ENDBRANCH  19  22
ENDBRANCH   1  19
TORSDOF 6
ENDMDL
MODEL 8
REMARK VINA RESULT:      -7.3      1.431      1.861
REMARK  Name = 
REMARK  6 active torsions:
REMARK  status: ('A' for Active; 'I' for Inactive)
REMARK    1  A    between atoms: N_1  and  C_2
REMARK    2  A    between atoms: C_2  and  C_3
REMARK    3  A    between atoms: C_3  and  C_4
REMARK    4  A    between atoms: N_6  and  C_7
REMARK    5  A    between atoms: C_7  and  C_8
REMARK    6  A    between atoms: C_11  and  C_12
REMARK                            x       y       z     vdW  Elec       q    Type
REMARK                         _______ _______ _______ _____ _____    ______ ____
ROOT
ATOM      1  C   UNL     1       3.744   5.756  18.558  0.00  0.00    +0.000 A 
ATOM      2  C   UNL     1       3.663   6.868  17.702  0.00  0.00    +0.000 A 
ATOM      3  C   UNL     1       2.811   7.970  17.980  0.00  0.00    +0.000 A 
ATOM      4  C   UNL     1       2.014   7.992  19.129  0.00  0.00    +0.000 A 
ATOM      5  C   UNL     1       2.103   6.870  19.980  0.00  0.00    +0.000 A 
ATOM      6  C   UNL     1       2.949   5.778  19.707  0.00  0.00    +0.000 A 
ENDROOT
BRANCH   4   7
ATOM      7  C   UNL     1       1.146   9.118  19.539  0.00  0.00    +0.000 A 
ATOM      8  C   UNL     1       0.742   9.540  20.811  0.00  0.00    +0.000 A 
ATOM      9  N   UNL     1      -0.128  10.586  20.573  0.00  0.00    +0.000 N 
ATOM     10  C   UNL     1      -0.191  10.743  19.219  0.00  0.00    +0.000 A 
ATOM     11  N   UNL     1       0.570   9.919  18.560  0.00  0.00    +0.000 NA
ATOM     12  S   UNL     1      -1.324  11.946  18.703  0.00  0.00    +0.000 S 
ATOM     13  C   UNL     1      -1.740  12.223  20.424  0.00  0.00    +0.000 A 
ATOM     14  C   UNL     1      -2.718  13.085  20.891  0.00  0.00    +0.000 A 
ATOM     15  C   UNL     1      -2.904  13.194  22.269  0.00  0.00    +0.000 A 
ATOM     16  C   UNL     1      -2.101  12.452  23.154  0.00  0.00    +0.000 A 
ATOM     17  C   UNL     1      -1.122  11.554  22.678  0.00  0.00    +0.000 A 
ATOM     18  C   UNL     1      -0.970  11.439  21.308  0.00  0.00    +0.000 A 
ENDBRANCH   4   7
BRANCH   1  19
ATOM     19  C   UNL     1       4.603   4.546  18.238  0.00  0.00    +0.000 C 
BRANCH  19  22
ATOM     20  C   UNL     1       6.771   4.592  17.055  0.00  0.00    +0.000 C 
ATOM     21  O   UNL     1       7.416   4.457  18.092  0.00  0.00    +0.000 OA
ATOM     22  N   UNL     1       5.394   4.676  17.034  0.00  0.00    +0.000 N 
ATOM     23  H   UNL     1       4.939   4.746  16.124  0.00  0.00    +0.000 HD
BRANCH  20  24
ATOM     24  C   UNL     1       7.470   4.777  15.710  0.00  0.00    +0.000 C 
BRANCH  24  25
ATOM     25  C   UNL     1       6.550   4.835  14.495  0.00  0.00    +0.000 C 
BRANCH  25  26
ATOM     26  N   UNL     1       6.256   3.501  13.962  0.00  0.00    +0.000 NA
ATOM     27  H   UNL     1       6.688   3.404  13.042  0.00  0.00    +0.000 HD
ATOM     28  H   UNL     1       5.250   3.412  13.805  0.00  0.00    +0.000 HD
ENDBRANCH  25  26
ENDBRANCH  24  25
ENDBRANCH  20  24
ENDBRANCH  19  22
ENDBRANCH   1  19
TORSDOF 6
ENDMDL
MODEL 9
REMARK VINA RESULT:      -7.3      2.757      3.814
REMARK  Name = 
REMARK  6 active torsions:
REMARK  status: ('A' for Active; 'I' for Inactive)
REMARK    1  A    between atoms: N_1  and  C_2
REMARK    2  A    between atoms: C_2  and  C_3
REMARK    3  A    between atoms: C_3  and  C_4
REMARK    4  A    between atoms: N_6  and  C_7
REMARK    5  A    between atoms: C_7  and  C_8
REMARK    6  A    between atoms: C_11  and  C_12
REMARK                            x       y       z     vdW  Elec       q    Type
REMARK                         _______ _______ _______ _____ _____    ______ ____
ROOT
ATOM      1  C   UNL     1       2.792   6.691  18.654  0.00  0.00    +0.000 A 
ATOM      2  C   UNL     1       2.551   7.836  17.877  0.00  0.00    +0.000 A 
ATOM      3  C   UNL     1       1.853   8.961  18.391  0.00  0.00    +0.000 A 
ATOM      4  C   UNL     1       1.377   8.973  19.707  0.00  0.00    +0.000 A 
ATOM      5  C   UNL     1       1.625   7.818  20.478  0.00  0.00    +0.000 A 
ATOM      6  C   UNL     1       2.319   6.703  19.969  0.00  0.00    +0.000 A 
ENDROOT
BRANCH   4   7
ATOM      7  C   UNL     1       0.699  10.117  20.354  0.00  0.00    +0.000 A 
ATOM      8  C   UNL     1      -0.259  10.149  21.375  0.00  0.00    +0.000 A 
ATOM      9  N   UNL     1      -0.585  11.485  21.507  0.00  0.00    +0.000 N 
ATOM     10  C   UNL     1       0.174  12.165  20.600  0.00  0.00    +0.000 A 
ATOM     11  N   UNL     1       0.975  11.406  19.913  0.00  0.00    +0.000 NA
ATOM     12  S   UNL     1      -0.168  13.861  20.529  0.00  0.00    +0.000 S 
ATOM     13  C   UNL     1      -1.422  13.611  21.784  0.00  0.00    +0.000 A 
ATOM     14  C   UNL     1      -2.278  14.583  22.277  0.00  0.00    +0.000 A 
ATOM     15  C   UNL     1      -3.191  14.223  23.268  0.00  0.00    +0.000 A 
ATOM     16  C   UNL     1      -3.222  12.904  23.758  0.00  0.00    +0.000 A 
ATOM     17  C   UNL     1      -2.369  11.909  23.239  0.00  0.00    +0.000 A 
ATOM     18  C   UNL     1      -1.489  12.278  22.237  0.00  0.00    +0.000 A 
ENDBRANCH   4   7
BRANCH   1  19
ATOM     19  C   UNL     1       3.482   5.460  18.094  0.00  0.00    +0.000 C 
BRANCH  19  22
ATOM     20  C   UNL     1       5.844   4.820  18.427  0.00  0.00    +0.000 C 
ATOM     21  O   UNL     1       5.562   3.942  19.240  0.00  0.00    +0.000 OA
ATOM     22  N   UNL     1       4.896   5.631  17.839  0.00  0.00    +0.000 N 
ATOM     23  H   UNL     1       5.216   6.305  17.145  0.00  0.00    +0.000 HD
BRANCH  20  24
ATOM     24  C   UNL     1       7.298   5.138  18.085  0.00  0.00    +0.000 C 
BRANCH  24  25
ATOM     25  C   UNL     1       8.019   6.052  19.071  0.00  0.00    +0.000 C 
BRANCH  25  26
ATOM     26  N   UNL     1       8.025   5.500  20.429  0.00  0.00    +0.000 NA
ATOM     27  H   UNL     1       7.156   4.987  20.588  0.00  0.00    +0.000 HD
ATOM     28  H   UNL     1       8.021   6.265  21.107  0.00  0.00    +0.000 HD
ENDBRANCH  25  26
ENDBRANCH  24  25
ENDBRANCH  20  24
ENDBRANCH  19  22
ENDBRANCH   1  19
TORSDOF 6
ENDMDL
