MODEL 1
REMARK VINA RESULT:      -7.3      0.000      0.000
REMARK  Name = 
REMARK  2 active torsions:
REMARK  status: ('A' for Active; 'I' for Inactive)
REMARK    1  A    between atoms: C_2  and  C_16
REMARK    2  A    between atoms: N_3  and  C_4
REMARK                            x       y       z     vdW  Elec       q    Type
REMARK                         _______ _______ _______ _____ _____    ______ ____
ROOT
ATOM      1  C   UNL     1       4.179   3.709  18.147  0.00  0.00    +0.000 A 
ATOM      2  N   UNL     1       4.232   2.515  18.767  0.00  0.00    +0.000 NA
ATOM      3  C   UNL     1       3.605   2.366  19.941  0.00  0.00    +0.000 A 
ATOM      4  N   UNL     1       2.905   3.281  20.613  0.00  0.00    +0.000 NA
ATOM      5  C   UNL     1       2.860   4.461  19.970  0.00  0.00    +0.000 A 
ATOM      6  S   UNL     1       1.973   5.780  20.631  0.00  0.00    +0.000 S 
ATOM      7  C   UNL     1       2.364   6.728  19.313  0.00  0.00    +0.000 A 
ATOM      8  C   UNL     1       3.160   6.105  18.389  0.00  0.00    +0.000 A 
ATOM      9  C   UNL     1       3.467   4.761  18.749  0.00  0.00    +0.000 A 
ATOM     10  C   UNL     1       3.436   7.012  17.245  0.00  0.00    +0.000 C 
ATOM     11  C   UNL     1       2.990   8.399  17.802  0.00  0.00    +0.000 C 
ATOM     12  C   UNL     1       1.981   8.112  18.953  0.00  0.00    +0.000 C 
ENDROOT
BRANCH   1  15
ATOM     13  O   UNL     1       6.886   4.671  17.633  0.00  0.00    +0.000 OA
ATOM     14  C   UNL     1       6.097   4.379  16.742  0.00  0.00    +0.000 C 
ATOM     15  N   UNL     1       4.813   3.909  16.919  0.00  0.00    +0.000 N 
ATOM     16  H   UNL     1       4.329   3.625  16.081  0.00  0.00    +0.000 HD
BRANCH  14  17
ATOM     17  C   UNL     1       6.472   4.441  15.340  0.00  0.00    +0.000 A 
ATOM     18  C   UNL     1       5.938   3.811  14.232  0.00  0.00    +0.000 A 
ATOM     19  C   UNL     1       6.679   4.255  13.111  0.00  0.00    +0.000 A 
ATOM     20  C   UNL     1       7.631   5.117  13.600  0.00  0.00    +0.000 A 
ATOM     21  O   UNL     1       7.511   5.250  14.947  0.00  0.00    +0.000 OA
ENDBRANCH  14  17
ENDBRANCH   1  15
TORSDOF 2
ENDMDL
MODEL 2
REMARK VINA RESULT:      -7.2      3.419      6.650
REMARK  Name = 
REMARK  2 active torsions:
REMARK  status: ('A' for Active; 'I' for Inactive)
REMARK    1  A    between atoms: C_2  and  C_16
REMARK    2  A    between atoms: N_3  and  C_4
REMARK                            x       y       z     vdW  Elec       q    Type
REMARK                         _______ _______ _______ _____ _____    ______ ____
ROOT
ATOM      1  C   UNL     1       3.259   6.663  18.216  0.00  0.00    +0.000 A 
ATOM      2  N   UNL     1       4.123   7.146  17.304  0.00  0.00    +0.000 NA
ATOM      3  C   UNL     1       4.833   6.285  16.562  0.00  0.00    +0.000 A 
ATOM      4  N   UNL     1       4.801   4.952  16.608  0.00  0.00    +0.000 NA
ATOM      5  C   UNL     1       3.926   4.495  17.520  0.00  0.00    +0.000 A 
ATOM      6  S   UNL     1       3.684   2.803  17.723  0.00  0.00    +0.000 S 
ATOM      7  C   UNL     1       2.524   3.089  18.890  0.00  0.00    +0.000 A 
ATOM      8  C   UNL     1       2.314   4.415  19.160  0.00  0.00    +0.000 A 
ATOM      9  C   UNL     1       3.127   5.271  18.362  0.00  0.00    +0.000 A 
ATOM     10  C   UNL     1       1.253   4.575  20.188  0.00  0.00    +0.000 C 
ATOM     11  C   UNL     1       1.122   3.130  20.761  0.00  0.00    +0.000 C 
ATOM     12  C   UNL     1       1.663   2.166  19.664  0.00  0.00    +0.000 C 
ENDROOT
BRANCH   1  15
ATOM     13  O   UNL     1       1.848   9.092  17.423  0.00  0.00    +0.000 OA
ATOM     14  C   UNL     1       1.860   8.666  18.572  0.00  0.00    +0.000 C 
ATOM     15  N   UNL     1       2.495   7.523  19.007  0.00  0.00    +0.000 N 
ATOM     16  H   UNL     1       2.325   7.262  19.967  0.00  0.00    +0.000 HD
BRANCH  14  17
ATOM     17  C   UNL     1       1.116   9.322  19.636  0.00  0.00    +0.000 A 
ATOM     18  C   UNL     1       0.825   8.909  20.922  0.00  0.00    +0.000 A 
ATOM     19  C   UNL     1       0.092   9.954  21.531  0.00  0.00    +0.000 A 
ATOM     20  C   UNL     1      -0.036  10.937  20.579  0.00  0.00    +0.000 A 
ATOM     21  O   UNL     1       0.590  10.573  19.428  0.00  0.00    +0.000 OA
ENDBRANCH  14  17
ENDBRANCH   1  15
TORSDOF 2
ENDMDL
MODEL 3
REMARK VINA RESULT:      -7.2      2.502      3.453
REMARK  Name = 
REMARK  2 active torsions:
REMARK  status: ('A' for Active; 'I' for Inactive)
REMARK    1  A    between atoms: C_2  and  C_16
REMARK    2  A    between atoms: N_3  and  C_4
REMARK                            x       y       z     vdW  Elec       q    Type
REMARK                         _______ _______ _______ _____ _____    ______ ____
ROOT
ATOM      1  C   UNL     1       6.274   4.249  16.598  0.00  0.00    +0.000 A 
ATOM      2  N   UNL     1       7.540   4.550  16.940  0.00  0.00    +0.000 NA
ATOM      3  C   UNL     1       7.790   4.989  18.181  0.00  0.00    +0.000 A 
ATOM      4  N   UNL     1       6.915   5.180  19.169  0.00  0.00    +0.000 NA
ATOM      5  C   UNL     1       5.661   4.864  18.806  0.00  0.00    +0.000 A 
ATOM      6  S   UNL     1       4.369   4.990  19.937  0.00  0.00    +0.000 S 
ATOM      7  C   UNL     1       3.290   4.421  18.797  0.00  0.00    +0.000 A 
ATOM      8  C   UNL     1       3.851   4.153  17.576  0.00  0.00    +0.000 A 
ATOM      9  C   UNL     1       5.253   4.402  17.552  0.00  0.00    +0.000 A 
ATOM     10  C   UNL     1       2.825   3.630  16.636  0.00  0.00    +0.000 C 
ATOM     11  C   UNL     1       1.492   3.977  17.368  0.00  0.00    +0.000 C 
ATOM     12  C   UNL     1       1.840   4.128  18.878  0.00  0.00    +0.000 C 
ENDROOT
BRANCH   1  15
ATOM     13  O   UNL     1       7.091   5.344  14.019  0.00  0.00    +0.000 OA
ATOM     14  C   UNL     1       6.377   4.355  14.133  0.00  0.00    +0.000 C 
ATOM     15  N   UNL     1       5.967   3.783  15.318  0.00  0.00    +0.000 N 
ATOM     16  H   UNL     1       5.460   2.914  15.236  0.00  0.00    +0.000 HD
BRANCH  14  17
ATOM     17  C   UNL     1       5.917   3.609  12.973  0.00  0.00    +0.000 A 
ATOM     18  C   UNL     1       6.571   2.693  12.171  0.00  0.00    +0.000 A 
ATOM     19  C   UNL     1       5.636   2.260  11.200  0.00  0.00    +0.000 A 
ATOM     20  C   UNL     1       4.474   2.947  11.455  0.00  0.00    +0.000 A 
ATOM     21  O   UNL     1       4.625   3.760  12.534  0.00  0.00    +0.000 OA
ENDBRANCH  14  17
ENDBRANCH   1  15
TORSDOF 2
ENDMDL
MODEL 4
REMARK VINA RESULT:      -7.1      1.610      3.294
REMARK  Name = 
REMARK  2 active torsions:
REMARK  status: ('A' for Active; 'I' for Inactive)
REMARK    1  A    between atoms: C_2  and  C_16
REMARK    2  A    between atoms: N_3  and  C_4
REMARK                            x       y       z     vdW  Elec       q    Type
REMARK                         _______ _______ _______ _____ _____    ______ ____
ROOT
ATOM      1  C   UNL     1       3.694   6.368  17.453  0.00  0.00    +0.000 A 
ATOM      2  N   UNL     1       3.459   7.686  17.593  0.00  0.00    +0.000 NA
ATOM      3  C   UNL     1       2.726   8.107  18.632  0.00  0.00    +0.000 A 
ATOM      4  N   UNL     1       2.170   7.365  19.591  0.00  0.00    +0.000 NA
ATOM      5  C   UNL     1       2.425   6.055  19.434  0.00  0.00    +0.000 A 
ATOM      6  S   UNL     1       1.843   4.910  20.579  0.00  0.00    +0.000 S 
ATOM      7  C   UNL     1       2.576   3.668  19.739  0.00  0.00    +0.000 A 
ATOM      8  C   UNL     1       3.234   4.066  18.606  0.00  0.00    +0.000 A 
ATOM      9  C   UNL     1       3.165   5.475  18.401  0.00  0.00    +0.000 A 
ATOM     10  C   UNL     1       3.873   2.903  17.939  0.00  0.00    +0.000 C 
ATOM     11  C   UNL     1       3.185   1.693  18.644  0.00  0.00    +0.000 C 
ATOM     12  C   UNL     1       2.664   2.215  20.015  0.00  0.00    +0.000 C 
ENDROOT
BRANCH   1  15
ATOM     13  O   UNL     1       6.568   5.868  17.353  0.00  0.00    +0.000 OA
ATOM     14  C   UNL     1       5.819   5.678  16.401  0.00  0.00    +0.000 C 
ATOM     15  N   UNL     1       4.456   5.883  16.389  0.00  0.00    +0.000 N 
ATOM     16  H   UNL     1       3.974   5.586  15.554  0.00  0.00    +0.000 HD
BRANCH  14  17
ATOM     17  C   UNL     1       6.306   5.133  15.145  0.00  0.00    +0.000 A 
ATOM     18  C   UNL     1       5.781   4.157  14.319  0.00  0.00    +0.000 A 
ATOM     19  C   UNL     1       6.657   4.041  13.215  0.00  0.00    +0.000 A 
ATOM     20  C   UNL     1       7.674   4.937  13.437  0.00  0.00    +0.000 A 
ATOM     21  O   UNL     1       7.469   5.616  14.597  0.00  0.00    +0.000 OA
ENDBRANCH  14  17
ENDBRANCH   1  15
TORSDOF 2
ENDMDL
MODEL 5
REMARK VINA RESULT:      -7.0      3.561      6.907
REMARK  Name = 
REMARK  2 active torsions:
REMARK  status: ('A' for Active; 'I' for Inactive)
REMARK    1  A    between atoms: C_2  and  C_16
REMARK    2  A    between atoms: N_3  and  C_4
REMARK                            x       y       z     vdW  Elec       q    Type
REMARK                         _______ _______ _______ _____ _____    ______ ____
ROOT
ATOM      1  C   UNL     1       3.009   6.788  18.539  0.00  0.00    +0.000 A 
ATOM      2  N   UNL     1       3.788   7.382  17.616  0.00  0.00    +0.000 NA
ATOM      3  C   UNL     1       4.495   6.616  16.774  0.00  0.00    +0.000 A 
ATOM      4  N   UNL     1       4.537   5.284  16.725  0.00  0.00    +0.000 NA
ATOM      5  C   UNL     1       3.745   4.715  17.650  0.00  0.00    +0.000 A 
ATOM      6  S   UNL     1       3.606   3.002  17.743  0.00  0.00    +0.000 S 
ATOM      7  C   UNL     1       2.507   3.140  18.993  0.00  0.00    +0.000 A 
ATOM      8  C   UNL     1       2.245   4.430  19.371  0.00  0.00    +0.000 A 
ATOM      9  C   UNL     1       2.960   5.384  18.591  0.00  0.00    +0.000 A 
ATOM     10  C   UNL     1       1.242   4.456  20.467  0.00  0.00    +0.000 C 
ATOM     11  C   UNL     1       1.223   2.970  20.940  0.00  0.00    +0.000 C 
ATOM     12  C   UNL     1       1.746   2.117  19.746  0.00  0.00    +0.000 C 
ENDROOT
BRANCH   1  15
ATOM     13  O   UNL     1       1.748   9.385  18.110  0.00  0.00    +0.000 OA
ATOM     14  C   UNL     1       1.688   8.776  19.172  0.00  0.00    +0.000 C 
ATOM     15  N   UNL     1       2.251   7.546  19.434  0.00  0.00    +0.000 N 
ATOM     16  H   UNL     1       2.026   7.140  20.330  0.00  0.00    +0.000 HD
BRANCH  14  17
ATOM     17  C   UNL     1       0.930   9.287  20.302  0.00  0.00    +0.000 A 
ATOM     18  C   UNL     1       0.096  10.384  20.409  0.00  0.00    +0.000 A 
ATOM     19  C   UNL     1      -0.399  10.394  21.734  0.00  0.00    +0.000 A 
ATOM     20  C   UNL     1       0.172   9.314  22.364  0.00  0.00    +0.000 A 
ATOM     21  O   UNL     1       0.970   8.626  21.505  0.00  0.00    +0.000 OA
ENDBRANCH  14  17
ENDBRANCH   1  15
TORSDOF 2
ENDMDL
MODEL 6
REMARK VINA RESULT:      -6.9      0.997      1.099
REMARK  Name = 
REMARK  2 active torsions:
REMARK  status: ('A' for Active; 'I' for Inactive)
REMARK    1  A    between atoms: C_2  and  C_16
REMARK    2  A    between atoms: N_3  and  C_4
REMARK                            x       y       z     vdW  Elec       q    Type
REMARK                         _______ _______ _______ _____ _____    ______ ____
ROOT
ATOM      1  C   UNL     1       3.572   4.408  18.899  0.00  0.00    +0.000 A 
ATOM      2  N   UNL     1       3.535   3.300  19.662  0.00  0.00    +0.000 NA
ATOM      3  C   UNL     1       2.841   3.324  20.808  0.00  0.00    +0.000 A 
ATOM      4  N   UNL     1       2.151   4.344  21.321  0.00  0.00    +0.000 NA
ATOM      5  C   UNL     1       2.196   5.434  20.538  0.00  0.00    +0.000 A 
ATOM      6  S   UNL     1       1.339   6.860  20.979  0.00  0.00    +0.000 S 
ATOM      7  C   UNL     1       1.843   7.620  19.581  0.00  0.00    +0.000 A 
ATOM      8  C   UNL     1       2.657   6.855  18.788  0.00  0.00    +0.000 A 
ATOM      9  C   UNL     1       2.880   5.555  19.326  0.00  0.00    +0.000 A 
ATOM     10  C   UNL     1       3.035   7.601  17.559  0.00  0.00    +0.000 C 
ATOM     11  C   UNL     1       2.627   9.063  17.915  0.00  0.00    +0.000 C 
ATOM     12  C   UNL     1       1.546   8.964  19.033  0.00  0.00    +0.000 C 
ENDROOT
BRANCH   1  15
ATOM     13  O   UNL     1       6.460   4.484  18.486  0.00  0.00    +0.000 OA
ATOM     14  C   UNL     1       5.649   4.475  17.567  0.00  0.00    +0.000 C 
ATOM     15  N   UNL     1       4.278   4.428  17.695  0.00  0.00    +0.000 N 
ATOM     16  H   UNL     1       3.758   4.329  16.836  0.00  0.00    +0.000 HD
BRANCH  14  17
ATOM     17  C   UNL     1       6.074   4.449  16.176  0.00  0.00    +0.000 A 
ATOM     18  C   UNL     1       5.436   3.975  15.045  0.00  0.00    +0.000 A 
ATOM     19  C   UNL     1       6.299   4.228  13.953  0.00  0.00    +0.000 A 
ATOM     20  C   UNL     1       7.418   4.826  14.480  0.00  0.00    +0.000 A 
ATOM     21  O   UNL     1       7.292   4.978  15.825  0.00  0.00    +0.000 OA
ENDBRANCH  14  17
ENDBRANCH   1  15
TORSDOF 2
ENDMDL
MODEL 7
REMARK VINA RESULT:      -6.5      2.681      3.858
REMARK  Name = 
REMARK  2 active torsions:
REMARK  status: ('A' for Active; 'I' for Inactive)
REMARK    1  A    between atoms: C_2  and  C_16
REMARK    2  A    between atoms: N_3  and  C_4
REMARK                            x       y       z     vdW  Elec       q    Type
REMARK                         _______ _______ _______ _____ _____    ______ ____
ROOT
ATOM      1  C   UNL     1       6.072   5.010  16.028  0.00  0.00    +0.000 A 
ATOM      2  N   UNL     1       7.181   5.767  16.121  0.00  0.00    +0.000 NA
ATOM      3  C   UNL     1       7.428   6.418  17.265  0.00  0.00    +0.000 A 
ATOM      4  N   UNL     1       6.691   6.420  18.377  0.00  0.00    +0.000 NA
ATOM      5  C   UNL     1       5.595   5.651  18.263  0.00  0.00    +0.000 A 
ATOM      6  S   UNL     1       4.516   5.468  19.591  0.00  0.00    +0.000 S 
ATOM      7  C   UNL     1       3.565   4.424  18.700  0.00  0.00    +0.000 A 
ATOM      8  C   UNL     1       4.008   4.213  17.422  0.00  0.00    +0.000 A 
ATOM      9  C   UNL     1       5.209   4.923  17.135  0.00  0.00    +0.000 A 
ATOM     10  C   UNL     1       3.117   3.257  16.715  0.00  0.00    +0.000 C 
ATOM     11  C   UNL     1       1.865   3.215  17.643  0.00  0.00    +0.000 C 
ATOM     12  C   UNL     1       2.344   3.665  19.055  0.00  0.00    +0.000 C 
ENDROOT
BRANCH   1  15
ATOM     13  O   UNL     1       7.416   5.143  13.441  0.00  0.00    +0.000 OA
ATOM     14  C   UNL     1       6.446   4.426  13.658  0.00  0.00    +0.000 C 
ATOM     15  N   UNL     1       5.776   4.310  14.857  0.00  0.00    +0.000 N 
ATOM     16  H   UNL     1       5.058   3.602  14.894  0.00  0.00    +0.000 HD
BRANCH  14  17
ATOM     17  C   UNL     1       5.914   3.534  12.641  0.00  0.00    +0.000 A 
ATOM     18  C   UNL     1       4.669   3.485  12.044  0.00  0.00    +0.000 A 
ATOM     19  C   UNL     1       4.708   2.430  11.102  0.00  0.00    +0.000 A 
ATOM     20  C   UNL     1       5.966   1.885  11.190  0.00  0.00    +0.000 A 
ATOM     21  O   UNL     1       6.713   2.551  12.110  0.00  0.00    +0.000 OA
ENDBRANCH  14  17
ENDBRANCH   1  15
TORSDOF 2
ENDMDL
MODEL 8
REMARK VINA RESULT:      -6.5      2.208      3.599
REMARK  Name = 
REMARK  2 active torsions:
REMARK  status: ('A' for Active; 'I' for Inactive)
REMARK    1  A    between atoms: C_2  and  C_16
REMARK    2  A    between atoms: N_3  and  C_4
REMARK                            x       y       z     vdW  Elec       q    Type
REMARK                         _______ _______ _______ _____ _____    ______ ____
ROOT
ATOM      1  C   UNL     1       3.196   7.349  17.624  0.00  0.00    +0.000 A 
ATOM      2  N   UNL     1       2.934   8.637  17.333  0.00  0.00    +0.000 NA
ATOM      3  C   UNL     1       2.169   9.349  18.172  0.00  0.00    +0.000 A 
ATOM      4  N   UNL     1       1.604   8.936  19.307  0.00  0.00    +0.000 NA
ATOM      5  C   UNL     1       1.887   7.651  19.580  0.00  0.00    +0.000 A 
ATOM      6  S   UNL     1       1.298   6.915  21.020  0.00  0.00    +0.000 S 
ATOM      7  C   UNL     1       2.074   5.489  20.632  0.00  0.00    +0.000 A 
ATOM      8  C   UNL     1       2.751   5.523  19.442  0.00  0.00    +0.000 A 
ATOM      9  C   UNL     1       2.662   6.791  18.798  0.00  0.00    +0.000 A 
ATOM     10  C   UNL     1       3.427   4.224  19.191  0.00  0.00    +0.000 C 
ATOM     11  C   UNL     1       2.745   3.284  20.232  0.00  0.00    +0.000 C 
ATOM     12  C   UNL     1       2.182   4.202  21.358  0.00  0.00    +0.000 C 
ENDROOT
BRANCH   1  15
ATOM     13  O   UNL     1       6.106   7.130  17.561  0.00  0.00    +0.000 OA
ATOM     14  C   UNL     1       5.369   6.519  16.796  0.00  0.00    +0.000 C 
ATOM     15  N   UNL     1       3.992   6.570  16.782  0.00  0.00    +0.000 N 
ATOM     16  H   UNL     1       3.534   5.931  16.150  0.00  0.00    +0.000 HD
BRANCH  14  17
ATOM     17  C   UNL     1       5.896   5.584  15.815  0.00  0.00    +0.000 A 
ATOM     18  C   UNL     1       5.343   4.441  15.268  0.00  0.00    +0.000 A 
ATOM     19  C   UNL     1       6.285   3.934  14.343  0.00  0.00    +0.000 A 
ATOM     20  C   UNL     1       7.364   4.783  14.390  0.00  0.00    +0.000 A 
ATOM     21  O   UNL     1       7.138   5.796  15.269  0.00  0.00    +0.000 OA
ENDBRANCH  14  17
ENDBRANCH   1  15
TORSDOF 2
ENDMDL
MODEL 9
REMARK VINA RESULT:      -6.3      3.507      4.867
REMARK  Name = 
REMARK  2 active torsions:
REMARK  status: ('A' for Active; 'I' for Inactive)
REMARK    1  A    between atoms: C_2  and  C_16
REMARK    2  A    between atoms: N_3  and  C_4
REMARK                            x       y       z     vdW  Elec       q    Type
REMARK                         _______ _______ _______ _____ _____    ______ ____
ROOT
ATOM      1  C   UNL     1       6.682   5.924  16.319  0.00  0.00    +0.000 A 
ATOM      2  N   UNL     1       7.389   5.199  15.432  0.00  0.00    +0.000 NA
ATOM      3  C   UNL     1       6.879   4.043  14.986  0.00  0.00    +0.000 A 
ATOM      4  N   UNL     1       5.713   3.486  15.317  0.00  0.00    +0.000 NA
ATOM      5  C   UNL     1       5.023   4.232  16.196  0.00  0.00    +0.000 A 
ATOM      6  S   UNL     1       3.467   3.730  16.733  0.00  0.00    +0.000 S 
ATOM      7  C   UNL     1       3.321   5.109  17.663  0.00  0.00    +0.000 A 
ATOM      8  C   UNL     1       4.409   5.939  17.612  0.00  0.00    +0.000 A 
ATOM      9  C   UNL     1       5.431   5.449  16.748  0.00  0.00    +0.000 A 
ATOM     10  C   UNL     1       4.182   7.147  18.447  0.00  0.00    +0.000 C 
ATOM     11  C   UNL     1       2.944   6.735  19.301  0.00  0.00    +0.000 C 
ATOM     12  C   UNL     1       2.215   5.606  18.513  0.00  0.00    +0.000 C 
ENDROOT
BRANCH   1  15
ATOM     13  O   UNL     1       8.120   6.435  18.807  0.00  0.00    +0.000 OA
ATOM     14  C   UNL     1       7.837   7.314  18.001  0.00  0.00    +0.000 C 
ATOM     15  N   UNL     1       7.172   7.137  16.807  0.00  0.00    +0.000 N 
ATOM     16  H   UNL     1       7.104   7.951  16.215  0.00  0.00    +0.000 HD
BRANCH  14  17
ATOM     17  C   UNL     1       8.247   8.694  18.203  0.00  0.00    +0.000 A 
ATOM     18  C   UNL     1       7.955   9.839  17.485  0.00  0.00    +0.000 A 
ATOM     19  C   UNL     1       8.601  10.911  18.144  0.00  0.00    +0.000 A 
ATOM     20  C   UNL     1       9.262  10.359  19.215  0.00  0.00    +0.000 A 
ATOM     21  O   UNL     1       9.047   9.018  19.272  0.00  0.00    +0.000 OA
ENDBRANCH  14  17
ENDBRANCH   1  15
TORSDOF 2
ENDMDL
