MODEL 1
REMARK VINA RESULT:      -6.0      0.000      0.000
REMARK  Name = 
REMARK  9 active torsions:
REMARK  status: ('A' for Active; 'I' for Inactive)
REMARK    1  A    between atoms: C_1  and  O_2
REMARK    2  A    between atoms: O_2  and  C_3
REMARK    3  A    between atoms: C_3  and  C_4
REMARK    4  A    between atoms: C_4  and  N_5
REMARK    5  A    between atoms: C_6  and  C_7
REMARK    6  A    between atoms: C_7  and  N_8
REMARK    7  A    between atoms: N_11  and  C_12
REMARK    8  A    between atoms: N_20  and  C_21
REMARK    9  A    between atoms: N_24  and  C_25
REMARK                            x       y       z     vdW  Elec       q    Type
REMARK                         _______ _______ _______ _____ _____    ______ ____
ROOT
ATOM      1  N   UNL     1       2.906   5.055  18.288  0.00  0.00    +0.000 N 
ATOM      2  C   UNL     1       3.175   5.792  19.438  0.00  0.00    +0.000 A 
ATOM      3  N   UNL     1       4.480   5.974  19.564  0.00  0.00    +0.000 NA
ATOM      4  C   UNL     1       5.046   5.351  18.509  0.00  0.00    +0.000 A 
ATOM      5  C   UNL     1       4.115   4.794  17.681  0.00  0.00    +0.000 A 
ATOM      6  C   UNL     1       4.495   4.115  16.481  0.00  0.00    +0.000 A 
ATOM      7  O   UNL     1       3.678   3.625  15.702  0.00  0.00    +0.000 OA
ATOM      8  N   UNL     1       5.877   4.073  16.280  0.00  0.00    +0.000 N 
ATOM      9  C   UNL     1       6.391   3.408  15.099  0.00  0.00    +0.000 C 
ATOM     10  C   UNL     1       6.851   4.637  17.133  0.00  0.00    +0.000 A 
ATOM     11  O   UNL     1       8.053   4.554  16.866  0.00  0.00    +0.000 OA
ATOM     12  N   UNL     1       6.394   5.284  18.271  0.00  0.00    +0.000 N 
ATOM     13  C   UNL     1       7.322   5.884  19.211  0.00  0.00    +0.000 C 
ENDROOT
BRANCH   1  14
ATOM     14  C   UNL     1       1.608   4.590  17.831  0.00  0.00    +0.000 C 
BRANCH  14  15
ATOM     15  C   UNL     1       1.264   3.180  18.316  0.00  0.00    +0.000 C 
BRANCH  15  17
ATOM     16  C   UNL     1       1.444   2.659  20.599  0.00  0.00    +0.000 C 
ATOM     17  O   UNL     1       0.624   3.248  19.593  0.00  0.00    +0.000 OA
ENDBRANCH  15  17
ENDBRANCH  14  15
ENDBRANCH   1  14
BRANCH   2  18
ATOM     18  C   UNL     1       2.147   6.318  20.421  0.00  0.00    +0.000 C 
BRANCH  18  19
ATOM     19  N   UNL     1       2.008   7.784  20.370  0.00  0.00    +0.000 NA
ATOM     20  C   UNL     1       0.971   8.264  21.300  0.00  0.00    +0.000 C 
ATOM     21  C   UNL     1       0.773   9.796  21.247  0.00  0.00    +0.000 C 
ATOM     22  N   UNL     1       0.549  10.354  19.898  0.00  0.00    +0.000 NA
ATOM     23  C   UNL     1      -0.803  10.081  19.416  0.00  0.00    +0.000 C 
ATOM     24  C   UNL     1       1.574   9.820  18.981  0.00  0.00    +0.000 C 
ATOM     25  C   UNL     1       1.738   8.278  19.010  0.00  0.00    +0.000 C 
ENDBRANCH  18  19
ENDBRANCH   2  18
TORSDOF 5
ENDMDL
MODEL 2
REMARK VINA RESULT:      -5.9      1.822      4.114
REMARK  Name = 
REMARK  9 active torsions:
REMARK  status: ('A' for Active; 'I' for Inactive)
REMARK    1  A    between atoms: C_1  and  O_2
REMARK    2  A    between atoms: O_2  and  C_3
REMARK    3  A    between atoms: C_3  and  C_4
REMARK    4  A    between atoms: C_4  and  N_5
REMARK    5  A    between atoms: C_6  and  C_7
REMARK    6  A    between atoms: C_7  and  N_8
REMARK    7  A    between atoms: N_11  and  C_12
REMARK    8  A    between atoms: N_20  and  C_21
REMARK    9  A    between atoms: N_24  and  C_25
REMARK                            x       y       z     vdW  Elec       q    Type
REMARK                         _______ _______ _______ _____ _____    ______ ____
ROOT
ATOM      1  N   UNL     1       3.752   6.170  17.549  0.00  0.00    +0.000 N 
ATOM      2  C   UNL     1       2.860   6.987  18.239  0.00  0.00    +0.000 A 
ATOM      3  N   UNL     1       2.084   6.252  19.020  0.00  0.00    +0.000 NA
ATOM      4  C   UNL     1       2.467   4.973  18.827  0.00  0.00    +0.000 A 
ATOM      5  C   UNL     1       3.508   4.875  17.950  0.00  0.00    +0.000 A 
ATOM      6  C   UNL     1       4.096   3.611  17.629  0.00  0.00    +0.000 A 
ATOM      7  O   UNL     1       5.053   3.493  16.863  0.00  0.00    +0.000 OA
ATOM      8  N   UNL     1       3.486   2.533  18.276  0.00  0.00    +0.000 N 
ATOM      9  C   UNL     1       3.989   1.197  18.030  0.00  0.00    +0.000 C 
ATOM     10  C   UNL     1       2.403   2.620  19.178  0.00  0.00    +0.000 A 
ATOM     11  O   UNL     1       1.934   1.608  19.706  0.00  0.00    +0.000 OA
ATOM     12  N   UNL     1       1.899   3.886  19.438  0.00  0.00    +0.000 N 
ATOM     13  C   UNL     1       0.780   4.071  20.343  0.00  0.00    +0.000 C 
ENDROOT
BRANCH   1  14
ATOM     14  C   UNL     1       4.721   6.582  16.549  0.00  0.00    +0.000 C 
BRANCH  14  15
ATOM     15  C   UNL     1       6.046   7.057  17.149  0.00  0.00    +0.000 C 
BRANCH  15  17
ATOM     16  C   UNL     1       7.518   5.601  18.260  0.00  0.00    +0.000 C 
ATOM     17  O   UNL     1       7.043   6.044  16.990  0.00  0.00    +0.000 OA
ENDBRANCH  15  17
ENDBRANCH  14  15
ENDBRANCH   1  14
BRANCH   2  18
ATOM     18  C   UNL     1       2.767   8.497  18.129  0.00  0.00    +0.000 C 
BRANCH  18  19
ATOM     19  N   UNL     1       1.492   9.027  18.644  0.00  0.00    +0.000 NA
ATOM     20  C   UNL     1       1.255  10.408  18.187  0.00  0.00    +0.000 C 
ATOM     21  C   UNL     1      -0.057  11.011  18.740  0.00  0.00    +0.000 C 
ATOM     22  N   UNL     1      -0.223  10.920  20.204  0.00  0.00    +0.000 NA
ATOM     23  C   UNL     1       0.613  11.892  20.905  0.00  0.00    +0.000 C 
ATOM     24  C   UNL     1       0.065   9.539  20.636  0.00  0.00    +0.000 C 
ATOM     25  C   UNL     1       1.404   8.956  20.111  0.00  0.00    +0.000 C 
ENDBRANCH  18  19
ENDBRANCH   2  18
TORSDOF 5
ENDMDL
MODEL 3
REMARK VINA RESULT:      -5.9      1.036      1.036
REMARK  Name = 
REMARK  9 active torsions:
REMARK  status: ('A' for Active; 'I' for Inactive)
REMARK    1  A    between atoms: C_1  and  O_2
REMARK    2  A    between atoms: O_2  and  C_3
REMARK    3  A    between atoms: C_3  and  C_4
REMARK    4  A    between atoms: C_4  and  N_5
REMARK    5  A    between atoms: C_6  and  C_7
REMARK    6  A    between atoms: C_7  and  N_8
REMARK    7  A    between atoms: N_11  and  C_12
REMARK    8  A    between atoms: N_20  and  C_21
REMARK    9  A    between atoms: N_24  and  C_25
REMARK                            x       y       z     vdW  Elec       q    Type
REMARK                         _______ _______ _______ _____ _____    ______ ____
ROOT
ATOM      1  N   UNL     1       2.916   5.224  18.164  0.00  0.00    +0.000 N 
ATOM      2  C   UNL     1       3.061   6.374  18.935  0.00  0.00    +0.000 A 
ATOM      3  N   UNL     1       4.209   6.970  18.649  0.00  0.00    +0.000 NA
ATOM      4  C   UNL     1       4.800   6.204  17.709  0.00  0.00    +0.000 A 
ATOM      5  C   UNL     1       4.031   5.132  17.359  0.00  0.00    +0.000 A 
ATOM      6  C   UNL     1       4.453   4.208  16.352  0.00  0.00    +0.000 A 
ATOM      7  O   UNL     1       3.769   3.248  15.997  0.00  0.00    +0.000 OA
ATOM      8  N   UNL     1       5.705   4.509  15.810  0.00  0.00    +0.000 N 
ATOM      9  C   UNL     1       6.246   3.644  14.781  0.00  0.00    +0.000 C 
ATOM     10  C   UNL     1       6.515   5.608  16.169  0.00  0.00    +0.000 A 
ATOM     11  O   UNL     1       7.608   5.795  15.627  0.00  0.00    +0.000 OA
ATOM     12  N   UNL     1       6.026   6.459  17.150  0.00  0.00    +0.000 N 
ATOM     13  C   UNL     1       6.794   7.608  17.590  0.00  0.00    +0.000 C 
ENDROOT
BRANCH   1  14
ATOM     14  C   UNL     1       1.832   4.261  18.226  0.00  0.00    +0.000 C 
BRANCH  14  15
ATOM     15  C   UNL     1       2.048   3.171  19.278  0.00  0.00    +0.000 C 
BRANCH  15  17
ATOM     16  C   UNL     1       1.726   2.887  21.588  0.00  0.00    +0.000 C 
ATOM     17  O   UNL     1       1.152   3.369  20.375  0.00  0.00    +0.000 OA
ENDBRANCH  15  17
ENDBRANCH  14  15
ENDBRANCH   1  14
BRANCH   2  18
ATOM     18  C   UNL     1       2.070   6.892  19.959  0.00  0.00    +0.000 C 
BRANCH  18  19
ATOM     19  N   UNL     1       1.901   8.354  19.901  0.00  0.00    +0.000 NA
ATOM     20  C   UNL     1       0.955   8.832  20.924  0.00  0.00    +0.000 C 
ATOM     21  C   UNL     1       0.725  10.360  20.868  0.00  0.00    +0.000 C 
ATOM     22  N   UNL     1       0.357  10.892  19.541  0.00  0.00    +0.000 NA
ATOM     23  C   UNL     1      -1.033  10.589  19.203  0.00  0.00    +0.000 C 
ATOM     24  C   UNL     1       1.293  10.360  18.533  0.00  0.00    +0.000 C 
ATOM     25  C   UNL     1       1.486   8.821  18.569  0.00  0.00    +0.000 C 
ENDBRANCH  18  19
ENDBRANCH   2  18
TORSDOF 5
ENDMDL
MODEL 4
REMARK VINA RESULT:      -5.9      1.993      4.341
REMARK  Name = 
REMARK  9 active torsions:
REMARK  status: ('A' for Active; 'I' for Inactive)
REMARK    1  A    between atoms: C_1  and  O_2
REMARK    2  A    between atoms: O_2  and  C_3
REMARK    3  A    between atoms: C_3  and  C_4
REMARK    4  A    between atoms: C_4  and  N_5
REMARK    5  A    between atoms: C_6  and  C_7
REMARK    6  A    between atoms: C_7  and  N_8
REMARK    7  A    between atoms: N_11  and  C_12
REMARK    8  A    between atoms: N_20  and  C_21
REMARK    9  A    between atoms: N_24  and  C_25
REMARK                            x       y       z     vdW  Elec       q    Type
REMARK                         _______ _______ _______ _____ _____    ______ ____
ROOT
ATOM      1  N   UNL     1       4.117   6.311  18.255  0.00  0.00    +0.000 N 
ATOM      2  C   UNL     1       2.918   7.008  18.376  0.00  0.00    +0.000 A 
ATOM      3  N   UNL     1       2.042   6.288  19.060  0.00  0.00    +0.000 NA
ATOM      4  C   UNL     1       2.670   5.135  19.368  0.00  0.00    +0.000 A 
ATOM      5  C   UNL     1       3.957   5.113  18.917  0.00  0.00    +0.000 A 
ATOM      6  C   UNL     1       4.817   3.997  19.167  0.00  0.00    +0.000 A 
ATOM      7  O   UNL     1       5.990   3.960  18.796  0.00  0.00    +0.000 OA
ATOM      8  N   UNL     1       4.197   2.966  19.878  0.00  0.00    +0.000 N 
ATOM      9  C   UNL     1       4.963   1.776  20.191  0.00  0.00    +0.000 C 
ATOM     10  C   UNL     1       2.864   2.971  20.342  0.00  0.00    +0.000 A 
ATOM     11  O   UNL     1       2.406   2.013  20.970  0.00  0.00    +0.000 OA
ATOM     12  N   UNL     1       2.103   4.097  20.062  0.00  0.00    +0.000 N 
ATOM     13  C   UNL     1       0.720   4.187  20.490  0.00  0.00    +0.000 C 
ENDROOT
BRANCH   1  14
ATOM     14  C   UNL     1       5.300   6.726  17.524  0.00  0.00    +0.000 C 
BRANCH  14  15
ATOM     15  C   UNL     1       5.334   6.212  16.083  0.00  0.00    +0.000 C 
BRANCH  15  17
ATOM     16  C   UNL     1       6.918   4.614  15.407  0.00  0.00    +0.000 C 
ATOM     17  O   UNL     1       6.688   5.995  15.676  0.00  0.00    +0.000 OA
ENDBRANCH  15  17
ENDBRANCH  14  15
ENDBRANCH   1  14
BRANCH   2  18
ATOM     18  C   UNL     1       2.628   8.387  17.814  0.00  0.00    +0.000 C 
BRANCH  18  19
ATOM     19  N   UNL     1       1.450   9.018  18.435  0.00  0.00    +0.000 NA
ATOM     20  C   UNL     1       1.299  10.421  18.009  0.00  0.00    +0.000 C 
ATOM     21  C   UNL     1       0.094  11.127  18.671  0.00  0.00    +0.000 C 
ATOM     22  N   UNL     1       0.039  11.030  20.143  0.00  0.00    +0.000 NA
ATOM     23  C   UNL     1       1.010  11.916  20.781  0.00  0.00    +0.000 C 
ATOM     24  C   UNL     1       0.238   9.623  20.539  0.00  0.00    +0.000 C 
ATOM     25  C   UNL     1       1.474   8.934  19.904  0.00  0.00    +0.000 C 
ENDBRANCH  18  19
ENDBRANCH   2  18
TORSDOF 5
ENDMDL
MODEL 5
REMARK VINA RESULT:      -5.7      4.184      8.727
REMARK  Name = 
REMARK  9 active torsions:
REMARK  status: ('A' for Active; 'I' for Inactive)
REMARK    1  A    between atoms: C_1  and  O_2
REMARK    2  A    between atoms: O_2  and  C_3
REMARK    3  A    between atoms: C_3  and  C_4
REMARK    4  A    between atoms: C_4  and  N_5
REMARK    5  A    between atoms: C_6  and  C_7
REMARK    6  A    between atoms: C_7  and  N_8
REMARK    7  A    between atoms: N_11  and  C_12
REMARK    8  A    between atoms: N_20  and  C_21
REMARK    9  A    between atoms: N_24  and  C_25
REMARK                            x       y       z     vdW  Elec       q    Type
REMARK                         _______ _______ _______ _____ _____    ______ ____
ROOT
ATOM      1  N   UNL     1      -0.199  10.772  19.585  0.00  0.00    +0.000 N 
ATOM      2  C   UNL     1       0.438  10.033  18.592  0.00  0.00    +0.000 A 
ATOM      3  N   UNL     1      -0.375   9.867  17.560  0.00  0.00    +0.000 NA
ATOM      4  C   UNL     1      -1.527  10.487  17.891  0.00  0.00    +0.000 A 
ATOM      5  C   UNL     1      -1.458  11.081  19.117  0.00  0.00    +0.000 A 
ATOM      6  C   UNL     1      -2.558  11.825  19.649  0.00  0.00    +0.000 A 
ATOM      7  O   UNL     1      -2.516  12.394  20.740  0.00  0.00    +0.000 OA
ATOM      8  N   UNL     1      -3.672  11.848  18.807  0.00  0.00    +0.000 N 
ATOM      9  C   UNL     1      -4.856  12.567  19.235  0.00  0.00    +0.000 C 
ATOM     10  C   UNL     1      -3.761  11.230  17.541  0.00  0.00    +0.000 A 
ATOM     11  O   UNL     1      -4.790  11.312  16.865  0.00  0.00    +0.000 OA
ATOM     12  N   UNL     1      -2.645  10.535  17.098  0.00  0.00    +0.000 N 
ATOM     13  C   UNL     1      -2.648   9.859  15.815  0.00  0.00    +0.000 C 
ENDROOT
BRANCH   1  14
ATOM     14  C   UNL     1       0.327  11.112  20.895  0.00  0.00    +0.000 C 
BRANCH  14  15
ATOM     15  C   UNL     1       0.439   9.909  21.834  0.00  0.00    +0.000 C 
BRANCH  15  17
ATOM     16  C   UNL     1      -1.206  10.865  23.211  0.00  0.00    +0.000 C 
ATOM     17  O   UNL     1       0.102  10.299  23.168  0.00  0.00    +0.000 OA
ENDBRANCH  15  17
ENDBRANCH  14  15
ENDBRANCH   1  14
BRANCH   2  18
ATOM     18  C   UNL     1       1.849   9.484  18.656  0.00  0.00    +0.000 C 
BRANCH  18  19
ATOM     19  N   UNL     1       1.889   8.011  18.633  0.00  0.00    +0.000 NA
ATOM     20  C   UNL     1       2.091   7.452  19.981  0.00  0.00    +0.000 C 
ATOM     21  C   UNL     1       2.175   5.909  19.989  0.00  0.00    +0.000 C 
ATOM     22  N   UNL     1       3.147   5.327  19.043  0.00  0.00    +0.000 NA
ATOM     23  C   UNL     1       4.522   5.484  19.514  0.00  0.00    +0.000 C 
ATOM     24  C   UNL     1       2.951   5.939  17.715  0.00  0.00    +0.000 C 
ATOM     25  C   UNL     1       2.910   7.489  17.710  0.00  0.00    +0.000 C 
ENDBRANCH  18  19
ENDBRANCH   2  18
TORSDOF 5
ENDMDL
MODEL 6
REMARK VINA RESULT:      -5.7      2.529      4.794
REMARK  Name = 
REMARK  9 active torsions:
REMARK  status: ('A' for Active; 'I' for Inactive)
REMARK    1  A    between atoms: C_1  and  O_2
REMARK    2  A    between atoms: O_2  and  C_3
REMARK    3  A    between atoms: C_3  and  C_4
REMARK    4  A    between atoms: C_4  and  N_5
REMARK    5  A    between atoms: C_6  and  C_7
REMARK    6  A    between atoms: C_7  and  N_8
REMARK    7  A    between atoms: N_11  and  C_12
REMARK    8  A    between atoms: N_20  and  C_21
REMARK    9  A    between atoms: N_24  and  C_25
REMARK                            x       y       z     vdW  Elec       q    Type
REMARK                         _______ _______ _______ _____ _____    ______ ____
ROOT
ATOM      1  N   UNL     1       1.507   8.225  19.908  0.00  0.00    +0.000 N 
ATOM      2  C   UNL     1       1.739   9.165  18.908  0.00  0.00    +0.000 A 
ATOM      3  N   UNL     1       2.555   8.663  17.994  0.00  0.00    +0.000 NA
ATOM      4  C   UNL     1       2.853   7.414  18.409  0.00  0.00    +0.000 A 
ATOM      5  C   UNL     1       2.210   7.089  19.568  0.00  0.00    +0.000 A 
ATOM      6  C   UNL     1       2.355   5.798  20.166  0.00  0.00    +0.000 A 
ATOM      7  O   UNL     1       1.768   5.467  21.196  0.00  0.00    +0.000 OA
ATOM      8  N   UNL     1       3.216   4.953  19.460  0.00  0.00    +0.000 N 
ATOM      9  C   UNL     1       3.450   3.615  19.967  0.00  0.00    +0.000 C 
ATOM     10  C   UNL     1       3.895   5.278  18.266  0.00  0.00    +0.000 A 
ATOM     11  O   UNL     1       4.632   4.459  17.711  0.00  0.00    +0.000 OA
ATOM     12  N   UNL     1       3.691   6.551  17.752  0.00  0.00    +0.000 N 
ATOM     13  C   UNL     1       4.354   6.977  16.534  0.00  0.00    +0.000 C 
ENDROOT
BRANCH   1  14
ATOM     14  C   UNL     1       0.724   8.409  21.117  0.00  0.00    +0.000 C 
BRANCH  14  15
ATOM     15  C   UNL     1       1.458   9.202  22.200  0.00  0.00    +0.000 C 
BRANCH  15  17
ATOM     16  C   UNL     1      -0.456  10.478  22.675  0.00  0.00    +0.000 C 
ATOM     17  O   UNL     1       0.536   9.609  23.215  0.00  0.00    +0.000 OA
ENDBRANCH  15  17
ENDBRANCH  14  15
ENDBRANCH   1  14
BRANCH   2  18
ATOM     18  C   UNL     1       1.160  10.565  18.849  0.00  0.00    +0.000 C 
BRANCH  18  19
ATOM     19  N   UNL     1      -0.312  10.571  18.790  0.00  0.00    +0.000 NA
ATOM     20  C   UNL     1      -0.818   9.630  17.774  0.00  0.00    +0.000 C 
ATOM     21  C   UNL     1      -2.360   9.637  17.659  0.00  0.00    +0.000 C 
ATOM     22  N   UNL     1      -2.970  10.968  17.474  0.00  0.00    +0.000 NA
ATOM     23  C   UNL     1      -2.786  11.464  16.111  0.00  0.00    +0.000 C 
ATOM     24  C   UNL     1      -2.411  11.897  18.474  0.00  0.00    +0.000 C 
ATOM     25  C   UNL     1      -0.862  11.915  18.554  0.00  0.00    +0.000 C 
ENDBRANCH  18  19
ENDBRANCH   2  18
TORSDOF 5
ENDMDL
MODEL 7
REMARK VINA RESULT:      -5.7      2.175      4.328
REMARK  Name = 
REMARK  9 active torsions:
REMARK  status: ('A' for Active; 'I' for Inactive)
REMARK    1  A    between atoms: C_1  and  O_2
REMARK    2  A    between atoms: O_2  and  C_3
REMARK    3  A    between atoms: C_3  and  C_4
REMARK    4  A    between atoms: C_4  and  N_5
REMARK    5  A    between atoms: C_6  and  C_7
REMARK    6  A    between atoms: C_7  and  N_8
REMARK    7  A    between atoms: N_11  and  C_12
REMARK    8  A    between atoms: N_20  and  C_21
REMARK    9  A    between atoms: N_24  and  C_25
REMARK                            x       y       z     vdW  Elec       q    Type
REMARK                         _______ _______ _______ _____ _____    ______ ____
ROOT
ATOM      1  N   UNL     1       4.016   6.563  18.028  0.00  0.00    +0.000 N 
ATOM      2  C   UNL     1       2.827   7.274  18.173  0.00  0.00    +0.000 A 
ATOM      3  N   UNL     1       1.974   6.584  18.915  0.00  0.00    +0.000 NA
ATOM      4  C   UNL     1       2.606   5.437  19.237  0.00  0.00    +0.000 A 
ATOM      5  C   UNL     1       3.874   5.389  18.736  0.00  0.00    +0.000 A 
ATOM      6  C   UNL     1       4.735   4.275  18.989  0.00  0.00    +0.000 A 
ATOM      7  O   UNL     1       5.892   4.215  18.573  0.00  0.00    +0.000 OA
ATOM      8  N   UNL     1       4.137   3.274  19.758  0.00  0.00    +0.000 N 
ATOM      9  C   UNL     1       4.906   2.088  20.080  0.00  0.00    +0.000 C 
ATOM     10  C   UNL     1       2.823   3.305  20.275  0.00  0.00    +0.000 A 
ATOM     11  O   UNL     1       2.385   2.372  20.952  0.00  0.00    +0.000 OA
ATOM     12  N   UNL     1       2.060   4.427  19.988  0.00  0.00    +0.000 N 
ATOM     13  C   UNL     1       0.696   4.543  20.467  0.00  0.00    +0.000 C 
ENDROOT
BRANCH   1  14
ATOM     14  C   UNL     1       5.171   6.944  17.237  0.00  0.00    +0.000 C 
BRANCH  14  15
ATOM     15  C   UNL     1       5.241   6.232  15.884  0.00  0.00    +0.000 C 
BRANCH  15  17
ATOM     16  C   UNL     1       6.620   4.684  14.779  0.00  0.00    +0.000 C 
ATOM     17  O   UNL     1       6.590   5.844  15.608  0.00  0.00    +0.000 OA
ENDBRANCH  15  17
ENDBRANCH  14  15
ENDBRANCH   1  14
BRANCH   2  18
ATOM     18  C   UNL     1       2.525   8.635  17.578  0.00  0.00    +0.000 C 
BRANCH  18  19
ATOM     19  N   UNL     1       1.806   9.519  18.512  0.00  0.00    +0.000 NA
ATOM     20  C   UNL     1       0.346   9.374  18.382  0.00  0.00    +0.000 C 
ATOM     21  C   UNL     1      -0.441  10.314  19.323  0.00  0.00    +0.000 C 
ATOM     22  N   UNL     1      -0.060  11.738  19.251  0.00  0.00    +0.000 NA
ATOM     23  C   UNL     1      -0.580  12.379  18.045  0.00  0.00    +0.000 C 
ATOM     24  C   UNL     1       1.409  11.848  19.338  0.00  0.00    +0.000 C 
ATOM     25  C   UNL     1       2.191  10.931  18.362  0.00  0.00    +0.000 C 
ENDBRANCH  18  19
ENDBRANCH   2  18
TORSDOF 5
ENDMDL
MODEL 8
REMARK VINA RESULT:      -5.7      2.962      4.797
REMARK  Name = 
REMARK  9 active torsions:
REMARK  status: ('A' for Active; 'I' for Inactive)
REMARK    1  A    between atoms: C_1  and  O_2
REMARK    2  A    between atoms: O_2  and  C_3
REMARK    3  A    between atoms: C_3  and  C_4
REMARK    4  A    between atoms: C_4  and  N_5
REMARK    5  A    between atoms: C_6  and  C_7
REMARK    6  A    between atoms: C_7  and  N_8
REMARK    7  A    between atoms: N_11  and  C_12
REMARK    8  A    between atoms: N_20  and  C_21
REMARK    9  A    between atoms: N_24  and  C_25
REMARK                            x       y       z     vdW  Elec       q    Type
REMARK                         _______ _______ _______ _____ _____    ______ ____
ROOT
ATOM      1  N   UNL     1       1.470   8.322  19.614  0.00  0.00    +0.000 N 
ATOM      2  C   UNL     1       1.704   9.224  18.579  0.00  0.00    +0.000 A 
ATOM      3  N   UNL     1       2.563   8.707  17.714  0.00  0.00    +0.000 NA
ATOM      4  C   UNL     1       2.886   7.488  18.194  0.00  0.00    +0.000 A 
ATOM      5  C   UNL     1       2.218   7.196  19.347  0.00  0.00    +0.000 A 
ATOM      6  C   UNL     1       2.384   5.938  20.008  0.00  0.00    +0.000 A 
ATOM      7  O   UNL     1       1.775   5.636  21.035  0.00  0.00    +0.000 OA
ATOM      8  N   UNL     1       3.292   5.090  19.368  0.00  0.00    +0.000 N 
ATOM      9  C   UNL     1       3.551   3.785  19.943  0.00  0.00    +0.000 C 
ATOM     10  C   UNL     1       3.997   5.383  18.181  0.00  0.00    +0.000 A 
ATOM     11  O   UNL     1       4.776   4.564  17.686  0.00  0.00    +0.000 OA
ATOM     12  N   UNL     1       3.770   6.624  17.602  0.00  0.00    +0.000 N 
ATOM     13  C   UNL     1       4.457   7.016  16.387  0.00  0.00    +0.000 C 
ENDROOT
BRANCH   1  14
ATOM     14  C   UNL     1       0.644   8.536  20.789  0.00  0.00    +0.000 C 
BRANCH  14  15
ATOM     15  C   UNL     1       1.432   9.039  22.000  0.00  0.00    +0.000 C 
BRANCH  15  17
ATOM     16  C   UNL     1      -0.571   9.630  23.076  0.00  0.00    +0.000 C 
ATOM     17  O   UNL     1       0.710  10.089  22.649  0.00  0.00    +0.000 OA
ENDBRANCH  15  17
ENDBRANCH  14  15
ENDBRANCH   1  14
BRANCH   2  18
ATOM     18  C   UNL     1       1.084  10.600  18.438  0.00  0.00    +0.000 C 
BRANCH  18  19
ATOM     19  N   UNL     1       1.930  11.667  19.001  0.00  0.00    +0.000 NA
ATOM     20  C   UNL     1       1.255  12.368  20.108  0.00  0.00    +0.000 C 
ATOM     21  C   UNL     1       2.100  13.519  20.698  0.00  0.00    +0.000 C 
ATOM     22  N   UNL     1       2.615  14.491  19.713  0.00  0.00    +0.000 NA
ATOM     23  C   UNL     1       1.565  15.395  19.245  0.00  0.00    +0.000 C 
ATOM     24  C   UNL     1       3.243  13.759  18.598  0.00  0.00    +0.000 C 
ATOM     25  C   UNL     1       2.372  12.633  17.983  0.00  0.00    +0.000 C 
ENDBRANCH  18  19
ENDBRANCH   2  18
TORSDOF 5
ENDMDL
MODEL 9
REMARK VINA RESULT:      -5.5      2.507      6.810
REMARK  Name = 
REMARK  9 active torsions:
REMARK  status: ('A' for Active; 'I' for Inactive)
REMARK    1  A    between atoms: C_1  and  O_2
REMARK    2  A    between atoms: O_2  and  C_3
REMARK    3  A    between atoms: C_3  and  C_4
REMARK    4  A    between atoms: C_4  and  N_5
REMARK    5  A    between atoms: C_6  and  C_7
REMARK    6  A    between atoms: C_7  and  N_8
REMARK    7  A    between atoms: N_11  and  C_12
REMARK    8  A    between atoms: N_20  and  C_21
REMARK    9  A    between atoms: N_24  and  C_25
REMARK                            x       y       z     vdW  Elec       q    Type
REMARK                         _______ _______ _______ _____ _____    ______ ____
ROOT
ATOM      1  N   UNL     1       1.957   6.792  19.997  0.00  0.00    +0.000 N 
ATOM      2  C   UNL     1       2.584   6.804  18.753  0.00  0.00    +0.000 A 
ATOM      3  N   UNL     1       2.510   8.014  18.220  0.00  0.00    +0.000 NA
ATOM      4  C   UNL     1       1.834   8.770  19.109  0.00  0.00    +0.000 A 
ATOM      5  C   UNL     1       1.496   8.069  20.230  0.00  0.00    +0.000 A 
ATOM      6  C   UNL     1       0.805   8.689  21.318  0.00  0.00    +0.000 A 
ATOM      7  O   UNL     1       0.510   8.090  22.353  0.00  0.00    +0.000 OA
ATOM      8  N   UNL     1       0.510  10.036  21.094  0.00  0.00    +0.000 N 
ATOM      9  C   UNL     1      -0.194  10.777  22.122  0.00  0.00    +0.000 C 
ATOM     10  C   UNL     1       0.844  10.771  19.936  0.00  0.00    +0.000 A 
ATOM     11  O   UNL     1       0.545  11.964  19.833  0.00  0.00    +0.000 OA
ATOM     12  N   UNL     1       1.521  10.093  18.933  0.00  0.00    +0.000 N 
ATOM     13  C   UNL     1       1.897  10.764  17.702  0.00  0.00    +0.000 C 
ENDROOT
BRANCH   1  14
ATOM     14  C   UNL     1       1.766   5.647  20.868  0.00  0.00    +0.000 C 
BRANCH  14  15
ATOM     15  C   UNL     1       0.860   4.571  20.265  0.00  0.00    +0.000 C 
BRANCH  15  17
ATOM     16  C   UNL     1       2.181   3.206  21.647  0.00  0.00    +0.000 C 
ATOM     17  O   UNL     1       1.465   3.284  20.417  0.00  0.00    +0.000 OA
ENDBRANCH  15  17
ENDBRANCH  14  15
ENDBRANCH   1  14
BRANCH   2  18
ATOM     18  C   UNL     1       3.256   5.622  18.082  0.00  0.00    +0.000 C 
BRANCH  18  19
ATOM     19  N   UNL     1       4.723   5.754  18.033  0.00  0.00    +0.000 NA
ATOM     20  C   UNL     1       5.153   6.622  16.922  0.00  0.00    +0.000 C 
ATOM     21  C   UNL     1       6.690   6.752  16.818  0.00  0.00    +0.000 C 
ATOM     22  N   UNL     1       7.428   5.475  16.785  0.00  0.00    +0.000 NA
ATOM     23  C   UNL     1       7.315   4.817  15.485  0.00  0.00    +0.000 C 
ATOM     24  C   UNL     1       6.944   4.611  17.878  0.00  0.00    +0.000 C 
ATOM     25  C   UNL     1       5.403   4.451  17.951  0.00  0.00    +0.000 C 
ENDBRANCH  18  19
ENDBRANCH   2  18
TORSDOF 5
ENDMDL
