MODEL 1
REMARK VINA RESULT:      -7.6      0.000      0.000
REMARK  Name = 
REMARK  6 active torsions:
REMARK  status: ('A' for Active; 'I' for Inactive)
REMARK    1  A    between atoms: C_1  and  C_2
REMARK    2  A    between atoms: C_7  and  C_8
REMARK    3  A    between atoms: C_8  and  N_9
REMARK    4  A    between atoms: C_10  and  C_12
REMARK    5  A    between atoms: C_20  and  C_22
REMARK    6  A    between atoms: C_25  and  C_26
REMARK                            x       y       z     vdW  Elec       q    Type
REMARK                         _______ _______ _______ _____ _____    ______ ____
ROOT
ATOM      1  C   UNL     1       0.572  14.600  21.891  0.00  0.00    +0.000 C 
ATOM      2  C   UNL     1       0.820  13.500  20.900  0.00  0.00    +0.000 A 
ATOM      3  N   UNL     1       1.592  13.867  19.845  0.00  0.00    +0.000 NA
ATOM      4  C   UNL     1       1.916  12.930  18.935  0.00  0.00    +0.000 A 
ATOM      5  C   UNL     1       1.474  11.620  18.990  0.00  0.00    +0.000 A 
ATOM      6  C   UNL     1       0.602  11.266  20.042  0.00  0.00    +0.000 A 
ATOM      7  C   UNL     1       0.310  12.203  21.062  0.00  0.00    +0.000 A 
ATOM      8  C   UNL     1       0.078   9.845  20.106  0.00  0.00    +0.000 C 
ATOM      9  C   UNL     1       0.227   9.119  18.765  0.00  0.00    +0.000 C 
ATOM     10  N   UNL     1       1.603   9.266  18.295  0.00  0.00    +0.000 N 
ATOM     11  C   UNL     1       2.590   8.281  18.194  0.00  0.00    +0.000 C 
ATOM     12  O   UNL     1       3.677   8.494  17.655  0.00  0.00    +0.000 OA
ATOM     13  C   UNL     1       1.932  10.640  17.931  0.00  0.00    +0.000 C 
ENDROOT
BRANCH  11  14
ATOM     14  C   UNL     1       2.349   6.904  18.719  0.00  0.00    +0.000 A 
ATOM     15  C   UNL     1       2.365   5.820  17.832  0.00  0.00    +0.000 A 
ATOM     16  C   UNL     1       2.034   4.533  18.282  0.00  0.00    +0.000 A 
ATOM     17  C   UNL     1       1.670   4.318  19.620  0.00  0.00    +0.000 A 
ATOM     18  C   UNL     1       1.753   5.386  20.517  0.00  0.00    +0.000 A 
ATOM     19  C   UNL     1       2.142   6.648  20.075  0.00  0.00    +0.000 A 
BRANCH  17  20
ATOM     20  C   UNL     1       1.183   2.981  20.120  0.00  0.00    +0.000 C 
ATOM     21  F   UNL     1       0.064   2.533  19.490  0.00  0.00    +0.000 F 
ATOM     22  F   UNL     1       2.116   2.001  19.981  0.00  0.00    +0.000 F 
ATOM     23  F   UNL     1       0.876   3.017  21.447  0.00  0.00    +0.000 F 
ENDBRANCH  17  20
ENDBRANCH  11  14
BRANCH   7  24
ATOM     24  C   UNL     1      -0.483  11.796  22.287  0.00  0.00    +0.000 C 
BRANCH  24  25
ATOM     25  N   UNL     1      -1.912  11.895  22.074  0.00  0.00    +0.000 N 
ATOM     26  C   UNL     1      -2.711  12.765  22.787  0.00  0.00    +0.000 C 
ATOM     27  O   UNL     1      -2.267  13.432  23.714  0.00  0.00    +0.000 OA
ATOM     28  H   UNL     1      -2.301  11.466  21.246  0.00  0.00    +0.000 HD
BRANCH  26  29
ATOM     29  C   UNL     1      -4.106  12.823  22.375  0.00  0.00    +0.000 A 
ATOM     30  C   UNL     1      -4.624  12.632  21.109  0.00  0.00    +0.000 A 
ATOM     31  N   UNL     1      -5.998  12.765  20.990  0.00  0.00    +0.000 NA
ATOM     32  C   UNL     1      -6.504  13.052  22.168  0.00  0.00    +0.000 A 
ATOM     33  S   UNL     1      -5.390  13.167  23.463  0.00  0.00    +0.000 S 
ENDBRANCH  26  29
ENDBRANCH  24  25
ENDBRANCH   7  24
TORSDOF 5
ENDMDL
MODEL 2
REMARK VINA RESULT:      -7.5      0.404      1.187
REMARK  Name = 
REMARK  6 active torsions:
REMARK  status: ('A' for Active; 'I' for Inactive)
REMARK    1  A    between atoms: C_1  and  C_2
REMARK    2  A    between atoms: C_7  and  C_8
REMARK    3  A    between atoms: C_8  and  N_9
REMARK    4  A    between atoms: C_10  and  C_12
REMARK    5  A    between atoms: C_20  and  C_22
REMARK    6  A    between atoms: C_25  and  C_26
REMARK                            x       y       z     vdW  Elec       q    Type
REMARK                         _______ _______ _______ _____ _____    ______ ____
ROOT
ATOM      1  C   UNL     1       0.707  14.534  21.792  0.00  0.00    +0.000 C 
ATOM      2  C   UNL     1       0.930  13.412  20.820  0.00  0.00    +0.000 A 
ATOM      3  N   UNL     1       1.735  13.735  19.775  0.00  0.00    +0.000 NA
ATOM      4  C   UNL     1       2.038  12.773  18.883  0.00  0.00    +0.000 A 
ATOM      5  C   UNL     1       1.544  11.483  18.946  0.00  0.00    +0.000 A 
ATOM      6  C   UNL     1       0.639  11.177  19.986  0.00  0.00    +0.000 A 
ATOM      7  C   UNL     1       0.366  12.138  20.989  0.00  0.00    +0.000 A 
ATOM      8  C   UNL     1       0.058   9.779  20.058  0.00  0.00    +0.000 C 
ATOM      9  C   UNL     1       0.203   9.029  18.730  0.00  0.00    +0.000 C 
ATOM     10  N   UNL     1       1.593   9.116  18.283  0.00  0.00    +0.000 N 
ATOM     11  C   UNL     1       2.542   8.092  18.214  0.00  0.00    +0.000 C 
ATOM     12  O   UNL     1       3.646   8.255  17.693  0.00  0.00    +0.000 OA
ATOM     13  C   UNL     1       1.981  10.471  17.908  0.00  0.00    +0.000 C 
ENDROOT
BRANCH  11  14
ATOM     14  C   UNL     1       2.237   6.732  18.752  0.00  0.00    +0.000 A 
ATOM     15  C   UNL     1       2.105   6.557  20.135  0.00  0.00    +0.000 A 
ATOM     16  C   UNL     1       1.928   5.272  20.672  0.00  0.00    +0.000 A 
ATOM     17  C   UNL     1       1.894   4.148  19.832  0.00  0.00    +0.000 A 
ATOM     18  C   UNL     1       1.928   4.344  18.448  0.00  0.00    +0.000 A 
ATOM     19  C   UNL     1       2.042   5.628  17.922  0.00  0.00    +0.000 A 
BRANCH  17  20
ATOM     20  C   UNL     1       1.835   2.740  20.369  0.00  0.00    +0.000 C 
ATOM     21  F   UNL     1       3.004   2.311  20.915  0.00  0.00    +0.000 F 
ATOM     22  F   UNL     1       0.887   2.589  21.332  0.00  0.00    +0.000 F 
ATOM     23  F   UNL     1       1.523   1.839  19.396  0.00  0.00    +0.000 F 
ENDBRANCH  17  20
ENDBRANCH  11  14
BRANCH   7  24
ATOM     24  C   UNL     1      -0.465  11.779  22.203  0.00  0.00    +0.000 C 
BRANCH  24  25
ATOM     25  N   UNL     1      -1.885  11.925  21.960  0.00  0.00    +0.000 N 
ATOM     26  C   UNL     1      -2.674  12.807  22.669  0.00  0.00    +0.000 C 
ATOM     27  O   UNL     1      -2.231  13.446  23.617  0.00  0.00    +0.000 OA
ATOM     28  H   UNL     1      -2.267  11.521  21.116  0.00  0.00    +0.000 HD
BRANCH  26  29
ATOM     29  C   UNL     1      -4.056  12.914  22.227  0.00  0.00    +0.000 A 
ATOM     30  C   UNL     1      -4.550  12.768  20.946  0.00  0.00    +0.000 A 
ATOM     31  N   UNL     1      -5.916  12.943  20.799  0.00  0.00    +0.000 NA
ATOM     32  C   UNL     1      -6.442  13.215  21.972  0.00  0.00    +0.000 A 
ATOM     33  S   UNL     1      -5.356  13.267  23.294  0.00  0.00    +0.000 S 
ENDBRANCH  26  29
ENDBRANCH  24  25
ENDBRANCH   7  24
TORSDOF 5
ENDMDL
MODEL 3
REMARK VINA RESULT:      -7.4      0.973      1.390
REMARK  Name = 
REMARK  6 active torsions:
REMARK  status: ('A' for Active; 'I' for Inactive)
REMARK    1  A    between atoms: C_1  and  C_2
REMARK    2  A    between atoms: C_7  and  C_8
REMARK    3  A    between atoms: C_8  and  N_9
REMARK    4  A    between atoms: C_10  and  C_12
REMARK    5  A    between atoms: C_20  and  C_22
REMARK    6  A    between atoms: C_25  and  C_26
REMARK                            x       y       z     vdW  Elec       q    Type
REMARK                         _______ _______ _______ _____ _____    ______ ____
ROOT
ATOM      1  C   UNL     1       1.069  14.607  21.325  0.00  0.00    +0.000 C 
ATOM      2  C   UNL     1       1.216  13.410  20.431  0.00  0.00    +0.000 A 
ATOM      3  N   UNL     1       1.970  13.632  19.324  0.00  0.00    +0.000 NA
ATOM      4  C   UNL     1       2.204  12.600  18.493  0.00  0.00    +0.000 A 
ATOM      5  C   UNL     1       1.687  11.330  18.680  0.00  0.00    +0.000 A 
ATOM      6  C   UNL     1       0.834  11.126  19.786  0.00  0.00    +0.000 A 
ATOM      7  C   UNL     1       0.635  12.166  20.726  0.00  0.00    +0.000 A 
ATOM      8  C   UNL     1       0.228   9.752  19.995  0.00  0.00    +0.000 C 
ATOM      9  C   UNL     1       0.286   8.902  18.722  0.00  0.00    +0.000 C 
ATOM     10  N   UNL     1       1.650   8.920  18.198  0.00  0.00    +0.000 N 
ATOM     11  C   UNL     1       2.573   7.870  18.158  0.00  0.00    +0.000 C 
ATOM     12  O   UNL     1       3.650   7.966  17.569  0.00  0.00    +0.000 OA
ATOM     13  C   UNL     1       2.047  10.233  17.701  0.00  0.00    +0.000 C 
ENDROOT
BRANCH  11  14
ATOM     14  C   UNL     1       2.269   6.563  18.813  0.00  0.00    +0.000 A 
ATOM     15  C   UNL     1       2.117   6.513  20.205  0.00  0.00    +0.000 A 
ATOM     16  C   UNL     1       1.940   5.281  20.853  0.00  0.00    +0.000 A 
ATOM     17  C   UNL     1       1.927   4.085  20.119  0.00  0.00    +0.000 A 
ATOM     18  C   UNL     1       1.981   4.154  18.724  0.00  0.00    +0.000 A 
ATOM     19  C   UNL     1       2.094   5.386  18.084  0.00  0.00    +0.000 A 
BRANCH  17  20
ATOM     20  C   UNL     1       1.870   2.732  20.782  0.00  0.00    +0.000 C 
ATOM     21  F   UNL     1       0.918   2.632  21.748  0.00  0.00    +0.000 F 
ATOM     22  F   UNL     1       1.620   1.729  19.897  0.00  0.00    +0.000 F 
ATOM     23  F   UNL     1       3.050   2.411  21.383  0.00  0.00    +0.000 F 
ENDBRANCH  17  20
ENDBRANCH  11  14
BRANCH   7  24
ATOM     24  C   UNL     1      -0.137  11.920  22.005  0.00  0.00    +0.000 C 
BRANCH  24  25
ATOM     25  N   UNL     1      -1.566  11.863  21.784  0.00  0.00    +0.000 N 
ATOM     26  C   UNL     1      -2.409  12.911  22.091  0.00  0.00    +0.000 C 
ATOM     27  O   UNL     1      -2.002  13.915  22.666  0.00  0.00    +0.000 OA
ATOM     28  H   UNL     1      -1.928  11.120  21.202  0.00  0.00    +0.000 HD
BRANCH  26  29
ATOM     29  C   UNL     1      -3.801  12.737  21.703  0.00  0.00    +0.000 A 
ATOM     30  C   UNL     1      -4.894  12.555  22.525  0.00  0.00    +0.000 A 
ATOM     31  N   UNL     1      -6.113  12.393  21.887  0.00  0.00    +0.000 NA
ATOM     32  C   UNL     1      -5.929  12.458  20.588  0.00  0.00    +0.000 A 
ATOM     33  S   UNL     1      -4.320  12.721  20.064  0.00  0.00    +0.000 S 
ENDBRANCH  26  29
ENDBRANCH  24  25
ENDBRANCH   7  24
TORSDOF 5
ENDMDL
MODEL 4
REMARK VINA RESULT:      -7.3      0.813      1.097
REMARK  Name = 
REMARK  6 active torsions:
REMARK  status: ('A' for Active; 'I' for Inactive)
REMARK    1  A    between atoms: C_1  and  C_2
REMARK    2  A    between atoms: C_7  and  C_8
REMARK    3  A    between atoms: C_8  and  N_9
REMARK    4  A    between atoms: C_10  and  C_12
REMARK    5  A    between atoms: C_20  and  C_22
REMARK    6  A    between atoms: C_25  and  C_26
REMARK                            x       y       z     vdW  Elec       q    Type
REMARK                         _______ _______ _______ _____ _____    ______ ____
ROOT
ATOM      1  C   UNL     1       0.581  14.697  21.367  0.00  0.00    +0.000 C 
ATOM      2  C   UNL     1       0.886  13.549  20.449  0.00  0.00    +0.000 A 
ATOM      3  N   UNL     1       1.741  13.856  19.441  0.00  0.00    +0.000 NA
ATOM      4  C   UNL     1       2.118  12.873  18.602  0.00  0.00    +0.000 A 
ATOM      5  C   UNL     1       1.652  11.573  18.682  0.00  0.00    +0.000 A 
ATOM      6  C   UNL     1       0.697  11.279  19.680  0.00  0.00    +0.000 A 
ATOM      7  C   UNL     1       0.344  12.267  20.632  0.00  0.00    +0.000 A 
ATOM      8  C   UNL     1       0.147   9.870  19.769  0.00  0.00    +0.000 C 
ATOM      9  C   UNL     1       0.386   9.080  18.478  0.00  0.00    +0.000 C 
ATOM     10  N   UNL     1       1.795   9.188  18.108  0.00  0.00    +0.000 N 
ATOM     11  C   UNL     1       2.771   8.187  18.128  0.00  0.00    +0.000 C 
ATOM     12  O   UNL     1       3.899   8.361  17.665  0.00  0.00    +0.000 OA
ATOM     13  C   UNL     1       2.172  10.539  17.708  0.00  0.00    +0.000 C 
ENDROOT
BRANCH  11  14
ATOM     14  C   UNL     1       2.469   6.839  18.696  0.00  0.00    +0.000 A 
ATOM     15  C   UNL     1       2.511   5.718  17.858  0.00  0.00    +0.000 A 
ATOM     16  C   UNL     1       2.125   4.458  18.342  0.00  0.00    +0.000 A 
ATOM     17  C   UNL     1       1.681   4.309  19.665  0.00  0.00    +0.000 A 
ATOM     18  C   UNL     1       1.737   5.413  20.519  0.00  0.00    +0.000 A 
ATOM     19  C   UNL     1       2.180   6.646  20.048  0.00  0.00    +0.000 A 
BRANCH  17  20
ATOM     20  C   UNL     1       1.135   3.005  20.191  0.00  0.00    +0.000 C 
ATOM     21  F   UNL     1       1.985   1.954  20.045  0.00  0.00    +0.000 F 
ATOM     22  F   UNL     1       0.829   3.065  21.515  0.00  0.00    +0.000 F 
ATOM     23  F   UNL     1      -0.017   2.646  19.558  0.00  0.00    +0.000 F 
ENDBRANCH  17  20
ENDBRANCH  11  14
BRANCH   7  24
ATOM     24  C   UNL     1      -0.546  11.928  21.809  0.00  0.00    +0.000 C 
BRANCH  24  25
ATOM     25  N   UNL     1      -1.892  12.433  21.644  0.00  0.00    +0.000 N 
ATOM     26  C   UNL     1      -2.861  12.300  22.618  0.00  0.00    +0.000 C 
ATOM     27  O   UNL     1      -2.659  11.654  23.640  0.00  0.00    +0.000 OA
ATOM     28  H   UNL     1      -2.070  13.077  20.886  0.00  0.00    +0.000 HD
BRANCH  26  29
ATOM     29  C   UNL     1      -4.128  12.962  22.343  0.00  0.00    +0.000 A 
ATOM     30  C   UNL     1      -4.727  13.977  23.061  0.00  0.00    +0.000 A 
ATOM     31  N   UNL     1      -5.953  14.413  22.587  0.00  0.00    +0.000 NA
ATOM     32  C   UNL     1      -6.267  13.725  21.512  0.00  0.00    +0.000 A 
ATOM     33  S   UNL     1      -5.131  12.546  21.011  0.00  0.00    +0.000 S 
ENDBRANCH  26  29
ENDBRANCH  24  25
ENDBRANCH   7  24
TORSDOF 5
ENDMDL
MODEL 5
REMARK VINA RESULT:      -7.3      0.971      1.316
REMARK  Name = 
REMARK  6 active torsions:
REMARK  status: ('A' for Active; 'I' for Inactive)
REMARK    1  A    between atoms: C_1  and  C_2
REMARK    2  A    between atoms: C_7  and  C_8
REMARK    3  A    between atoms: C_8  and  N_9
REMARK    4  A    between atoms: C_10  and  C_12
REMARK    5  A    between atoms: C_20  and  C_22
REMARK    6  A    between atoms: C_25  and  C_26
REMARK                            x       y       z     vdW  Elec       q    Type
REMARK                         _______ _______ _______ _____ _____    ______ ____
ROOT
ATOM      1  C   UNL     1       1.023  14.676  21.095  0.00  0.00    +0.000 C 
ATOM      2  C   UNL     1       1.248  13.478  20.219  0.00  0.00    +0.000 A 
ATOM      3  N   UNL     1       2.119  13.691  19.199  0.00  0.00    +0.000 NA
ATOM      4  C   UNL     1       2.426  12.656  18.396  0.00  0.00    +0.000 A 
ATOM      5  C   UNL     1       1.875  11.393  18.523  0.00  0.00    +0.000 A 
ATOM      6  C   UNL     1       0.905  11.200  19.531  0.00  0.00    +0.000 A 
ATOM      7  C   UNL     1       0.622  12.242  20.447  0.00  0.00    +0.000 A 
ATOM      8  C   UNL     1       0.262   9.835  19.670  0.00  0.00    +0.000 C 
ATOM      9  C   UNL     1       0.444   8.985  18.408  0.00  0.00    +0.000 C 
ATOM     10  N   UNL     1       1.856   8.985  18.034  0.00  0.00    +0.000 N 
ATOM     11  C   UNL     1       2.763   7.922  18.089  0.00  0.00    +0.000 C 
ATOM     12  O   UNL     1       3.898   8.003  17.619  0.00  0.00    +0.000 OA
ATOM     13  C   UNL     1       2.322  10.293  17.585  0.00  0.00    +0.000 C 
ENDROOT
BRANCH  11  14
ATOM     14  C   UNL     1       2.373   6.618  18.705  0.00  0.00    +0.000 A 
ATOM     15  C   UNL     1       2.203   6.540  20.092  0.00  0.00    +0.000 A 
ATOM     16  C   UNL     1       1.944   5.304  20.705  0.00  0.00    +0.000 A 
ATOM     17  C   UNL     1       1.866   4.132  19.937  0.00  0.00    +0.000 A 
ATOM     18  C   UNL     1       1.939   4.235  18.545  0.00  0.00    +0.000 A 
ATOM     19  C   UNL     1       2.135   5.475  17.941  0.00  0.00    +0.000 A 
BRANCH  17  20
ATOM     20  C   UNL     1       1.719   2.766  20.561  0.00  0.00    +0.000 C 
ATOM     21  F   UNL     1       1.481   1.774  19.663  0.00  0.00    +0.000 F 
ATOM     22  F   UNL     1       2.825   2.391  21.259  0.00  0.00    +0.000 F 
ATOM     23  F   UNL     1       0.687   2.724  21.450  0.00  0.00    +0.000 F 
ENDBRANCH  17  20
ENDBRANCH  11  14
BRANCH   7  24
ATOM     24  C   UNL     1      -0.285  12.006  21.636  0.00  0.00    +0.000 C 
BRANCH  24  25
ATOM     25  N   UNL     1      -1.606  12.564  21.440  0.00  0.00    +0.000 N 
ATOM     26  C   UNL     1      -2.613  12.440  22.375  0.00  0.00    +0.000 C 
ATOM     27  O   UNL     1      -2.471  11.759  23.385  0.00  0.00    +0.000 OA
ATOM     28  H   UNL     1      -1.734  13.235  20.695  0.00  0.00    +0.000 HD
BRANCH  26  29
ATOM     29  C   UNL     1      -3.845  13.155  22.076  0.00  0.00    +0.000 A 
ATOM     30  C   UNL     1      -5.141  12.695  22.193  0.00  0.00    +0.000 A 
ATOM     31  N   UNL     1      -6.136  13.583  21.818  0.00  0.00    +0.000 NA
ATOM     32  C   UNL     1      -5.581  14.707  21.426  0.00  0.00    +0.000 A 
ATOM     33  S   UNL     1      -3.871  14.770  21.490  0.00  0.00    +0.000 S 
ENDBRANCH  26  29
ENDBRANCH  24  25
ENDBRANCH   7  24
TORSDOF 5
ENDMDL
MODEL 6
REMARK VINA RESULT:      -7.2      4.572      7.230
REMARK  Name = 
REMARK  6 active torsions:
REMARK  status: ('A' for Active; 'I' for Inactive)
REMARK    1  A    between atoms: C_1  and  C_2
REMARK    2  A    between atoms: C_7  and  C_8
REMARK    3  A    between atoms: C_8  and  N_9
REMARK    4  A    between atoms: C_10  and  C_12
REMARK    5  A    between atoms: C_20  and  C_22
REMARK    6  A    between atoms: C_25  and  C_26
REMARK                            x       y       z     vdW  Elec       q    Type
REMARK                         _______ _______ _______ _____ _____    ______ ____
ROOT
ATOM      1  C   UNL     1       1.312  18.137  17.363  0.00  0.00    +0.000 C 
ATOM      2  C   UNL     1       0.995  16.887  18.132  0.00  0.00    +0.000 A 
ATOM      3  N   UNL     1      -0.257  16.861  18.657  0.00  0.00    +0.000 NA
ATOM      4  C   UNL     1      -0.650  15.754  19.313  0.00  0.00    +0.000 A 
ATOM      5  C   UNL     1       0.162  14.654  19.521  0.00  0.00    +0.000 A 
ATOM      6  C   UNL     1       1.490  14.720  19.047  0.00  0.00    +0.000 A 
ATOM      7  C   UNL     1       1.910  15.833  18.279  0.00  0.00    +0.000 A 
ATOM      8  C   UNL     1       2.410  13.541  19.290  0.00  0.00    +0.000 C 
ATOM      9  C   UNL     1       1.886  12.626  20.402  0.00  0.00    +0.000 C 
ATOM     10  N   UNL     1       0.489  12.294  20.126  0.00  0.00    +0.000 N 
ATOM     11  C   UNL     1      -0.046  11.058  19.753  0.00  0.00    +0.000 C 
ATOM     12  O   UNL     1      -1.260  10.864  19.678  0.00  0.00    +0.000 OA
ATOM     13  C   UNL     1      -0.398  13.446  20.242  0.00  0.00    +0.000 C 
ENDROOT
BRANCH  11  14
ATOM     14  C   UNL     1       0.847   9.899  19.454  0.00  0.00    +0.000 A 
ATOM     15  C   UNL     1       1.422   9.787  18.181  0.00  0.00    +0.000 A 
ATOM     16  C   UNL     1       2.175   8.653  17.842  0.00  0.00    +0.000 A 
ATOM     17  C   UNL     1       2.351   7.612  18.767  0.00  0.00    +0.000 A 
ATOM     18  C   UNL     1       1.857   7.777  20.064  0.00  0.00    +0.000 A 
ATOM     19  C   UNL     1       1.163   8.934  20.411  0.00  0.00    +0.000 A 
BRANCH  17  20
ATOM     20  C   UNL     1       3.040   6.320  18.408  0.00  0.00    +0.000 C 
ATOM     21  F   UNL     1       2.186   5.307  18.100  0.00  0.00    +0.000 F 
ATOM     22  F   UNL     1       3.872   6.453  17.340  0.00  0.00    +0.000 F 
ATOM     23  F   UNL     1       3.817   5.859  19.428  0.00  0.00    +0.000 F 
ENDBRANCH  17  20
ENDBRANCH  11  14
BRANCH   7  24
ATOM     24  C   UNL     1       3.273  15.851  17.619  0.00  0.00    +0.000 C 
BRANCH  24  25
ATOM     25  N   UNL     1       4.260  16.553  18.412  0.00  0.00    +0.000 N 
ATOM     26  C   UNL     1       5.565  16.121  18.527  0.00  0.00    +0.000 C 
ATOM     27  O   UNL     1       5.936  15.059  18.040  0.00  0.00    +0.000 OA
ATOM     28  H   UNL     1       4.042  17.489  18.723  0.00  0.00    +0.000 HD
BRANCH  26  29
ATOM     29  C   UNL     1       6.458  17.000  19.268  0.00  0.00    +0.000 A 
ATOM     30  C   UNL     1       7.731  17.404  18.921  0.00  0.00    +0.000 A 
ATOM     31  N   UNL     1       8.373  18.233  19.826  0.00  0.00    +0.000 NA
ATOM     32  C   UNL     1       7.576  18.450  20.848  0.00  0.00    +0.000 A 
ATOM     33  S   UNL     1       6.039  17.698  20.781  0.00  0.00    +0.000 S 
ENDBRANCH  26  29
ENDBRANCH  24  25
ENDBRANCH   7  24
TORSDOF 5
ENDMDL
MODEL 7
REMARK VINA RESULT:      -7.1      6.138     10.465
REMARK  Name = 
REMARK  6 active torsions:
REMARK  status: ('A' for Active; 'I' for Inactive)
REMARK    1  A    between atoms: C_1  and  C_2
REMARK    2  A    between atoms: C_7  and  C_8
REMARK    3  A    between atoms: C_8  and  N_9
REMARK    4  A    between atoms: C_10  and  C_12
REMARK    5  A    between atoms: C_20  and  C_22
REMARK    6  A    between atoms: C_25  and  C_26
REMARK                            x       y       z     vdW  Elec       q    Type
REMARK                         _______ _______ _______ _____ _____    ______ ____
ROOT
ATOM      1  C   UNL     1       3.092   5.582  19.602  0.00  0.00    +0.000 C 
ATOM      2  C   UNL     1       2.245   6.799  19.833  0.00  0.00    +0.000 A 
ATOM      3  N   UNL     1       1.578   6.795  21.016  0.00  0.00    +0.000 NA
ATOM      4  C   UNL     1       0.839   7.873  21.335  0.00  0.00    +0.000 A 
ATOM      5  C   UNL     1       0.684   8.972  20.509  0.00  0.00    +0.000 A 
ATOM      6  C   UNL     1       1.310   8.934  19.243  0.00  0.00    +0.000 A 
ATOM      7  C   UNL     1       2.163   7.854  18.911  0.00  0.00    +0.000 A 
ATOM      8  C   UNL     1       1.129  10.110  18.306  0.00  0.00    +0.000 C 
ATOM      9  C   UNL     1      -0.069  10.979  18.702  0.00  0.00    +0.000 C 
ATOM     10  N   UNL     1       0.031  11.310  20.122  0.00  0.00    +0.000 N 
ATOM     11  C   UNL     1       0.293  12.555  20.701  0.00  0.00    +0.000 C 
ATOM     12  O   UNL     1       0.220  12.741  21.916  0.00  0.00    +0.000 OA
ATOM     13  C   UNL     1      -0.142  10.147  20.986  0.00  0.00    +0.000 C 
ENDROOT
BRANCH  11  14
ATOM     14  C   UNL     1       0.648  13.731  19.852  0.00  0.00    +0.000 A 
ATOM     15  C   UNL     1       1.976  13.906  19.446  0.00  0.00    +0.000 A 
ATOM     16  C   UNL     1       2.355  15.059  18.741  0.00  0.00    +0.000 A 
ATOM     17  C   UNL     1       1.411  16.056  18.447  0.00  0.00    +0.000 A 
ATOM     18  C   UNL     1       0.071  15.826  18.771  0.00  0.00    +0.000 A 
ATOM     19  C   UNL     1      -0.306  14.651  19.415  0.00  0.00    +0.000 A 
BRANCH  17  20
ATOM     20  C   UNL     1       1.794  17.367  17.808  0.00  0.00    +0.000 C 
ATOM     21  F   UNL     1       1.851  18.409  18.681  0.00  0.00    +0.000 F 
ATOM     22  F   UNL     1       3.009  17.315  17.199  0.00  0.00    +0.000 F 
ATOM     23  F   UNL     1       0.908  17.737  16.841  0.00  0.00    +0.000 F 
ENDBRANCH  17  20
ENDBRANCH  11  14
BRANCH   7  24
ATOM     24  C   UNL     1       2.976   7.872  17.633  0.00  0.00    +0.000 C 
BRANCH  24  25
ATOM     25  N   UNL     1       4.096   6.955  17.681  0.00  0.00    +0.000 N 
ATOM     26  C   UNL     1       4.929   6.743  16.602  0.00  0.00    +0.000 C 
ATOM     27  O   UNL     1       4.704   7.247  15.507  0.00  0.00    +0.000 OA
ATOM     28  H   UNL     1       4.397   6.619  18.584  0.00  0.00    +0.000 HD
BRANCH  26  29
ATOM     29  C   UNL     1       6.073   5.878  16.848  0.00  0.00    +0.000 A 
ATOM     30  C   UNL     1       6.797   5.146  15.928  0.00  0.00    +0.000 A 
ATOM     31  N   UNL     1       7.834   4.384  16.440  0.00  0.00    +0.000 NA
ATOM     32  C   UNL     1       7.887   4.550  17.742  0.00  0.00    +0.000 A 
ATOM     33  S   UNL     1       6.727   5.615  18.416  0.00  0.00    +0.000 S 
ENDBRANCH  26  29
ENDBRANCH  24  25
ENDBRANCH   7  24
TORSDOF 5
ENDMDL
MODEL 8
REMARK VINA RESULT:      -7.0      1.578      2.048
REMARK  Name = 
REMARK  6 active torsions:
REMARK  status: ('A' for Active; 'I' for Inactive)
REMARK    1  A    between atoms: C_1  and  C_2
REMARK    2  A    between atoms: C_7  and  C_8
REMARK    3  A    between atoms: C_8  and  N_9
REMARK    4  A    between atoms: C_10  and  C_12
REMARK    5  A    between atoms: C_20  and  C_22
REMARK    6  A    between atoms: C_25  and  C_26
REMARK                            x       y       z     vdW  Elec       q    Type
REMARK                         _______ _______ _______ _____ _____    ______ ____
ROOT
ATOM      1  C   UNL     1       0.360  14.807  20.746  0.00  0.00    +0.000 C 
ATOM      2  C   UNL     1       0.785  13.619  19.931  0.00  0.00    +0.000 A 
ATOM      3  N   UNL     1       1.860  13.848  19.135  0.00  0.00    +0.000 NA
ATOM      4  C   UNL     1       2.348  12.824  18.411  0.00  0.00    +0.000 A 
ATOM      5  C   UNL     1       1.792  11.557  18.400  0.00  0.00    +0.000 A 
ATOM      6  C   UNL     1       0.622  11.347  19.163  0.00  0.00    +0.000 A 
ATOM      7  C   UNL     1       0.133  12.378  20.001  0.00  0.00    +0.000 A 
ATOM      8  C   UNL     1      -0.025   9.978  19.141  0.00  0.00    +0.000 C 
ATOM      9  C   UNL     1       0.441   9.143  17.944  0.00  0.00    +0.000 C 
ATOM     10  N   UNL     1       1.902   9.154  17.896  0.00  0.00    +0.000 N 
ATOM     11  C   UNL     1       2.781   8.096  18.144  0.00  0.00    +0.000 C 
ATOM     12  O   UNL     1       3.992   8.188  17.941  0.00  0.00    +0.000 OA
ATOM     13  C   UNL     1       2.446  10.469  17.576  0.00  0.00    +0.000 C 
ENDROOT
BRANCH  11  14
ATOM     14  C   UNL     1       2.273   6.783  18.644  0.00  0.00    +0.000 A 
ATOM     15  C   UNL     1       2.086   6.600  20.020  0.00  0.00    +0.000 A 
ATOM     16  C   UNL     1       1.715   5.344  20.523  0.00  0.00    +0.000 A 
ATOM     17  C   UNL     1       1.540   4.254  19.657  0.00  0.00    +0.000 A 
ATOM     18  C   UNL     1       1.633   4.470  18.279  0.00  0.00    +0.000 A 
ATOM     19  C   UNL     1       1.941   5.735  17.785  0.00  0.00    +0.000 A 
BRANCH  17  20
ATOM     20  C   UNL     1       1.268   2.858  20.160  0.00  0.00    +0.000 C 
ATOM     21  F   UNL     1       2.332   2.019  20.054  0.00  0.00    +0.000 F 
ATOM     22  F   UNL     1       0.897   2.839  21.468  0.00  0.00    +0.000 F 
ATOM     23  F   UNL     1       0.251   2.262  19.476  0.00  0.00    +0.000 F 
ENDBRANCH  17  20
ENDBRANCH  11  14
BRANCH   7  24
ATOM     24  C   UNL     1      -1.016  12.124  20.954  0.00  0.00    +0.000 C 
BRANCH  24  25
ATOM     25  N   UNL     1      -2.273  11.932  20.262  0.00  0.00    +0.000 N 
ATOM     26  C   UNL     1      -3.349  12.780  20.426  0.00  0.00    +0.000 C 
ATOM     27  O   UNL     1      -3.331  13.690  21.248  0.00  0.00    +0.000 OA
ATOM     28  H   UNL     1      -2.296  11.283  19.488  0.00  0.00    +0.000 HD
BRANCH  26  29
ATOM     29  C   UNL     1      -4.498  12.514  19.574  0.00  0.00    +0.000 A 
ATOM     30  C   UNL     1      -5.788  12.984  19.718  0.00  0.00    +0.000 A 
ATOM     31  N   UNL     1      -6.700  12.555  18.768  0.00  0.00    +0.000 NA
ATOM     32  C   UNL     1      -6.089  11.767  17.912  0.00  0.00    +0.000 A 
ATOM     33  S   UNL     1      -4.418  11.507  18.183  0.00  0.00    +0.000 S 
ENDBRANCH  26  29
ENDBRANCH  24  25
ENDBRANCH   7  24
TORSDOF 5
ENDMDL
MODEL 9
REMARK VINA RESULT:      -7.0      1.357      1.707
REMARK  Name = 
REMARK  6 active torsions:
REMARK  status: ('A' for Active; 'I' for Inactive)
REMARK    1  A    between atoms: C_1  and  C_2
REMARK    2  A    between atoms: C_7  and  C_8
REMARK    3  A    between atoms: C_8  and  N_9
REMARK    4  A    between atoms: C_10  and  C_12
REMARK    5  A    between atoms: C_20  and  C_22
REMARK    6  A    between atoms: C_25  and  C_26
REMARK                            x       y       z     vdW  Elec       q    Type
REMARK                         _______ _______ _______ _____ _____    ______ ____
ROOT
ATOM      1  C   UNL     1       0.564  14.626  21.705  0.00  0.00    +0.000 C 
ATOM      2  C   UNL     1       0.840  13.511  20.738  0.00  0.00    +0.000 A 
ATOM      3  N   UNL     1       1.654  13.859  19.709  0.00  0.00    +0.000 NA
ATOM      4  C   UNL     1       2.005  12.907  18.823  0.00  0.00    +0.000 A 
ATOM      5  C   UNL     1       1.551  11.602  18.878  0.00  0.00    +0.000 A 
ATOM      6  C   UNL     1       0.637  11.267  19.901  0.00  0.00    +0.000 A 
ATOM      7  C   UNL     1       0.314  12.219  20.898  0.00  0.00    +0.000 A 
ATOM      8  C   UNL     1       0.099   9.852  19.963  0.00  0.00    +0.000 C 
ATOM      9  C   UNL     1       0.293   9.107  18.638  0.00  0.00    +0.000 C 
ATOM     10  N   UNL     1       1.687   9.238  18.218  0.00  0.00    +0.000 N 
ATOM     11  C   UNL     1       2.670   8.245  18.168  0.00  0.00    +0.000 C 
ATOM     12  O   UNL     1       3.777   8.442  17.667  0.00  0.00    +0.000 OA
ATOM     13  C   UNL     1       2.040  10.605  17.849  0.00  0.00    +0.000 C 
ENDROOT
BRANCH  11  14
ATOM     14  C   UNL     1       2.398   6.876  18.701  0.00  0.00    +0.000 A 
ATOM     15  C   UNL     1       2.376   5.789  17.818  0.00  0.00    +0.000 A 
ATOM     16  C   UNL     1       2.016   4.512  18.276  0.00  0.00    +0.000 A 
ATOM     17  C   UNL     1       1.661   4.312  19.619  0.00  0.00    +0.000 A 
ATOM     18  C   UNL     1       1.781   5.381  20.511  0.00  0.00    +0.000 A 
ATOM     19  C   UNL     1       2.199   6.631  20.060  0.00  0.00    +0.000 A 
BRANCH  17  20
ATOM     20  C   UNL     1       1.144   2.990  20.129  0.00  0.00    +0.000 C 
ATOM     21  F   UNL     1       2.020   1.961  19.976  0.00  0.00    +0.000 F 
ATOM     22  F   UNL     1       0.830   3.029  21.452  0.00  0.00    +0.000 F 
ATOM     23  F   UNL     1       0.004   2.610  19.487  0.00  0.00    +0.000 F 
ENDBRANCH  17  20
ENDBRANCH  11  14
BRANCH   7  24
ATOM     24  C   UNL     1      -0.528  11.835  22.096  0.00  0.00    +0.000 C 
BRANCH  24  25
ATOM     25  N   UNL     1      -1.380  12.917  22.540  0.00  0.00    +0.000 N 
ATOM     26  C   UNL     1      -2.504  12.710  23.314  0.00  0.00    +0.000 C 
ATOM     27  O   UNL     1      -2.898  11.581  23.583  0.00  0.00    +0.000 OA
ATOM     28  H   UNL     1      -1.033  13.862  22.455  0.00  0.00    +0.000 HD
BRANCH  26  29
ATOM     29  C   UNL     1      -3.187  13.911  23.770  0.00  0.00    +0.000 A 
ATOM     30  C   UNL     1      -2.755  14.828  24.707  0.00  0.00    +0.000 A 
ATOM     31  N   UNL     1      -3.619  15.878  24.971  0.00  0.00    +0.000 NA
ATOM     32  C   UNL     1      -4.693  15.747  24.227  0.00  0.00    +0.000 A 
ATOM     33  S   UNL     1      -4.729  14.391  23.181  0.00  0.00    +0.000 S 
ENDBRANCH  26  29
ENDBRANCH  24  25
ENDBRANCH   7  24
TORSDOF 5
ENDMDL
