MODEL 1
REMARK VINA RESULT:      -7.3      0.000      0.000
REMARK  Name = 
REMARK  8 active torsions:
REMARK  status: ('A' for Active; 'I' for Inactive)
REMARK    1  A    between atoms: C_1  and  C_2
REMARK    2  A    between atoms: N_4  and  C_5
REMARK    3  A    between atoms: C_5  and  C_6
REMARK    4  A    between atoms: C_5  and  C_7
REMARK    5  A    between atoms: C_5  and  C_8
REMARK    6  A    between atoms: C_9  and  N_10
REMARK    7  A    between atoms: C_11  and  C_13
REMARK    8  A    between atoms: C_19  and  C_20
REMARK                            x       y       z     vdW  Elec       q    Type
REMARK                         _______ _______ _______ _____ _____    ______ ____
ROOT
ATOM      1  C   UNL     1       2.724   5.290  20.426  0.00  0.00    +0.000 C 
ATOM      2  C   UNL     1       3.797   5.160  19.407  0.00  0.00    +0.000 A 
ATOM      3  N   UNL     1       5.060   5.509  19.673  0.00  0.00    +0.000 NA
ATOM      4  N   UNL     1       5.754   5.218  18.542  0.00  0.00    +0.000 N 
ATOM      5  C   UNL     1       4.929   4.691  17.556  0.00  0.00    +0.000 A 
ATOM      6  C   UNL     1       3.660   4.636  18.106  0.00  0.00    +0.000 A 
ENDROOT
BRANCH   4   7
ATOM      7  C   UNL     1       7.200   5.547  18.490  0.00  0.00    +0.000 C 
ATOM      8  C   UNL     1       7.994   4.468  17.703  0.00  0.00    +0.000 C 
ATOM      9  C   UNL     1       7.430   6.892  17.773  0.00  0.00    +0.000 C 
ATOM     10  C   UNL     1       7.844   5.615  19.893  0.00  0.00    +0.000 C 
ENDBRANCH   4   7
BRANCH   5  11
ATOM     11  N   UNL     1       5.370   4.283  16.309  0.00  0.00    +0.000 N 
ATOM     12  C   UNL     1       5.469   5.193  15.270  0.00  0.00    +0.000 C 
ATOM     13  O   UNL     1       5.232   6.390  15.363  0.00  0.00    +0.000 OA
ATOM     14  H   UNL     1       5.762   3.362  16.207  0.00  0.00    +0.000 HD
BRANCH  12  15
ATOM     15  C   UNL     1       5.927   4.631  13.958  0.00  0.00    +0.000 A 
ATOM     16  C   UNL     1       5.093   3.701  13.325  0.00  0.00    +0.000 A 
ATOM     17  C   UNL     1       5.504   3.069  12.152  0.00  0.00    +0.000 A 
ATOM     18  C   UNL     1       6.743   3.376  11.588  0.00  0.00    +0.000 A 
ATOM     19  C   UNL     1       7.561   4.334  12.183  0.00  0.00    +0.000 A 
ATOM     20  C   UNL     1       7.153   4.968  13.361  0.00  0.00    +0.000 A 
ENDBRANCH  12  15
ENDBRANCH   5  11
BRANCH   6  21
ATOM     21  C   UNL     1       2.465   4.032  17.596  0.00  0.00    +0.000 C 
ATOM     22  N   UNL     1       1.428   3.668  17.236  0.00  0.00    +0.000 NA
ENDBRANCH   6  21
TORSDOF 4
ENDMDL
MODEL 2
REMARK VINA RESULT:      -7.3      0.114      1.420
REMARK  Name = 
REMARK  8 active torsions:
REMARK  status: ('A' for Active; 'I' for Inactive)
REMARK    1  A    between atoms: C_1  and  C_2
REMARK    2  A    between atoms: N_4  and  C_5
REMARK    3  A    between atoms: C_5  and  C_6
REMARK    4  A    between atoms: C_5  and  C_7
REMARK    5  A    between atoms: C_5  and  C_8
REMARK    6  A    between atoms: C_9  and  N_10
REMARK    7  A    between atoms: C_11  and  C_13
REMARK    8  A    between atoms: C_19  and  C_20
REMARK                            x       y       z     vdW  Elec       q    Type
REMARK                         _______ _______ _______ _____ _____    ______ ____
ROOT
ATOM      1  C   UNL     1       2.752   5.404  20.461  0.00  0.00    +0.000 C 
ATOM      2  C   UNL     1       3.819   5.235  19.442  0.00  0.00    +0.000 A 
ATOM      3  N   UNL     1       5.085   5.587  19.691  0.00  0.00    +0.000 NA
ATOM      4  N   UNL     1       5.772   5.255  18.566  0.00  0.00    +0.000 N 
ATOM      5  C   UNL     1       4.940   4.699  17.602  0.00  0.00    +0.000 A 
ATOM      6  C   UNL     1       3.674   4.668  18.161  0.00  0.00    +0.000 A 
ENDROOT
BRANCH   4   7
ATOM      7  C   UNL     1       7.219   5.575  18.497  0.00  0.00    +0.000 C 
ATOM      8  C   UNL     1       7.840   5.681  19.917  0.00  0.00    +0.000 C 
ATOM      9  C   UNL     1       7.990   4.471  17.747  0.00  0.00    +0.000 C 
ATOM     10  C   UNL     1       7.495   6.929  17.805  0.00  0.00    +0.000 C 
ENDBRANCH   4   7
BRANCH   5  11
ATOM     11  N   UNL     1       5.373   4.248  16.368  0.00  0.00    +0.000 N 
ATOM     12  C   UNL     1       5.469   5.121  15.298  0.00  0.00    +0.000 C 
ATOM     13  O   UNL     1       5.237   6.322  15.352  0.00  0.00    +0.000 OA
ATOM     14  H   UNL     1       5.761   3.322  16.295  0.00  0.00    +0.000 HD
BRANCH  12  15
ATOM     15  C   UNL     1       5.918   4.513  14.003  0.00  0.00    +0.000 A 
ATOM     16  C   UNL     1       7.153   4.926  13.488  0.00  0.00    +0.000 A 
ATOM     17  C   UNL     1       7.584   4.472  12.242  0.00  0.00    +0.000 A 
ATOM     18  C   UNL     1       6.796   3.585  11.509  0.00  0.00    +0.000 A 
ATOM     19  C   UNL     1       5.587   3.131  12.032  0.00  0.00    +0.000 A 
ATOM     20  C   UNL     1       5.150   3.585  13.280  0.00  0.00    +0.000 A 
ENDBRANCH  12  15
ENDBRANCH   5  11
BRANCH   6  21
ATOM     21  C   UNL     1       2.473   4.053  17.677  0.00  0.00    +0.000 C 
ATOM     22  N   UNL     1       1.576   3.544  17.153  0.00  0.00    +0.000 NA
ENDBRANCH   6  21
TORSDOF 4
ENDMDL
MODEL 3
REMARK VINA RESULT:      -7.1      2.329      3.866
REMARK  Name = 
REMARK  8 active torsions:
REMARK  status: ('A' for Active; 'I' for Inactive)
REMARK    1  A    between atoms: C_1  and  C_2
REMARK    2  A    between atoms: N_4  and  C_5
REMARK    3  A    between atoms: C_5  and  C_6
REMARK    4  A    between atoms: C_5  and  C_7
REMARK    5  A    between atoms: C_5  and  C_8
REMARK    6  A    between atoms: C_9  and  N_10
REMARK    7  A    between atoms: C_11  and  C_13
REMARK    8  A    between atoms: C_19  and  C_20
REMARK                            x       y       z     vdW  Elec       q    Type
REMARK                         _______ _______ _______ _____ _____    ______ ____
ROOT
ATOM      1  C   UNL     1       1.186   7.841  21.031  0.00  0.00    +0.000 C 
ATOM      2  C   UNL     1       1.857   6.772  20.249  0.00  0.00    +0.000 A 
ATOM      3  N   UNL     1       1.900   5.508  20.685  0.00  0.00    +0.000 NA
ATOM      4  N   UNL     1       2.544   4.817  19.708  0.00  0.00    +0.000 N 
ATOM      5  C   UNL     1       2.916   5.644  18.656  0.00  0.00    +0.000 A 
ATOM      6  C   UNL     1       2.466   6.911  18.986  0.00  0.00    +0.000 A 
ENDROOT
BRANCH   4   7
ATOM      7  C   UNL     1       2.809   3.372  19.916  0.00  0.00    +0.000 C 
ATOM      8  C   UNL     1       4.321   3.052  19.765  0.00  0.00    +0.000 C 
ATOM      9  C   UNL     1       2.393   2.937  21.335  0.00  0.00    +0.000 C 
ATOM     10  C   UNL     1       2.076   2.480  18.889  0.00  0.00    +0.000 C 
ENDBRANCH   4   7
BRANCH   5  11
ATOM     11  N   UNL     1       3.566   5.207  17.516  0.00  0.00    +0.000 N 
ATOM     12  C   UNL     1       4.919   5.449  17.345  0.00  0.00    +0.000 C 
ATOM     13  O   UNL     1       5.640   6.003  18.165  0.00  0.00    +0.000 OA
ATOM     14  H   UNL     1       3.086   4.583  16.889  0.00  0.00    +0.000 HD
BRANCH  12  15
ATOM     15  C   UNL     1       5.508   4.957  16.057  0.00  0.00    +0.000 A 
ATOM     16  C   UNL     1       6.844   5.279  15.791  0.00  0.00    +0.000 A 
ATOM     17  C   UNL     1       7.423   4.935  14.570  0.00  0.00    +0.000 A 
ATOM     18  C   UNL     1       6.678   4.247  13.612  0.00  0.00    +0.000 A 
ATOM     19  C   UNL     1       5.363   3.879  13.883  0.00  0.00    +0.000 A 
ATOM     20  C   UNL     1       4.778   4.224  15.106  0.00  0.00    +0.000 A 
ENDBRANCH  12  15
ENDBRANCH   5  11
BRANCH   6  21
ATOM     21  C   UNL     1       2.433   8.107  18.197  0.00  0.00    +0.000 C 
ATOM     22  N   UNL     1       2.313   9.128  17.667  0.00  0.00    +0.000 NA
ENDBRANCH   6  21
TORSDOF 4
ENDMDL
MODEL 4
REMARK VINA RESULT:      -7.0      2.293      3.754
REMARK  Name = 
REMARK  8 active torsions:
REMARK  status: ('A' for Active; 'I' for Inactive)
REMARK    1  A    between atoms: C_1  and  C_2
REMARK    2  A    between atoms: N_4  and  C_5
REMARK    3  A    between atoms: C_5  and  C_6
REMARK    4  A    between atoms: C_5  and  C_7
REMARK    5  A    between atoms: C_5  and  C_8
REMARK    6  A    between atoms: C_9  and  N_10
REMARK    7  A    between atoms: C_11  and  C_13
REMARK    8  A    between atoms: C_19  and  C_20
REMARK                            x       y       z     vdW  Elec       q    Type
REMARK                         _______ _______ _______ _____ _____    ______ ____
ROOT
ATOM      1  C   UNL     1       1.280   7.645  20.998  0.00  0.00    +0.000 C 
ATOM      2  C   UNL     1       1.944   6.615  20.159  0.00  0.00    +0.000 A 
ATOM      3  N   UNL     1       1.985   5.331  20.530  0.00  0.00    +0.000 NA
ATOM      4  N   UNL     1       2.622   4.689  19.515  0.00  0.00    +0.000 N 
ATOM      5  C   UNL     1       2.991   5.568  18.505  0.00  0.00    +0.000 A 
ATOM      6  C   UNL     1       2.547   6.817  18.902  0.00  0.00    +0.000 A 
ENDROOT
BRANCH   4   7
ATOM      7  C   UNL     1       2.884   3.235  19.648  0.00  0.00    +0.000 C 
ATOM      8  C   UNL     1       2.105   2.630  20.848  0.00  0.00    +0.000 C 
ATOM      9  C   UNL     1       2.428   2.479  18.384  0.00  0.00    +0.000 C 
ATOM     10  C   UNL     1       4.376   2.921  19.902  0.00  0.00    +0.000 C 
ENDBRANCH   4   7
BRANCH   5  11
ATOM     11  N   UNL     1       3.634   5.188  17.340  0.00  0.00    +0.000 N 
ATOM     12  C   UNL     1       5.015   5.240  17.254  0.00  0.00    +0.000 C 
ATOM     13  O   UNL     1       5.762   5.565  18.168  0.00  0.00    +0.000 OA
ATOM     14  H   UNL     1       3.104   4.731  16.616  0.00  0.00    +0.000 HD
BRANCH  12  15
ATOM     15  C   UNL     1       5.598   4.834  15.933  0.00  0.00    +0.000 A 
ATOM     16  C   UNL     1       6.916   5.221  15.661  0.00  0.00    +0.000 A 
ATOM     17  C   UNL     1       7.484   4.959  14.415  0.00  0.00    +0.000 A 
ATOM     18  C   UNL     1       6.748   4.290  13.436  0.00  0.00    +0.000 A 
ATOM     19  C   UNL     1       5.453   3.859  13.711  0.00  0.00    +0.000 A 
ATOM     20  C   UNL     1       4.879   4.121  14.959  0.00  0.00    +0.000 A 
ENDBRANCH  12  15
ENDBRANCH   5  11
BRANCH   6  21
ATOM     21  C   UNL     1       2.513   8.052  18.175  0.00  0.00    +0.000 C 
ATOM     22  N   UNL     1       2.374   8.985  17.506  0.00  0.00    +0.000 NA
ENDBRANCH   6  21
TORSDOF 4
ENDMDL
MODEL 5
REMARK VINA RESULT:      -7.0      2.316      3.634
REMARK  Name = 
REMARK  8 active torsions:
REMARK  status: ('A' for Active; 'I' for Inactive)
REMARK    1  A    between atoms: C_1  and  C_2
REMARK    2  A    between atoms: N_4  and  C_5
REMARK    3  A    between atoms: C_5  and  C_6
REMARK    4  A    between atoms: C_5  and  C_7
REMARK    5  A    between atoms: C_5  and  C_8
REMARK    6  A    between atoms: C_9  and  N_10
REMARK    7  A    between atoms: C_11  and  C_13
REMARK    8  A    between atoms: C_19  and  C_20
REMARK                            x       y       z     vdW  Elec       q    Type
REMARK                         _______ _______ _______ _____ _____    ______ ____
ROOT
ATOM      1  C   UNL     1       1.175   7.760  21.072  0.00  0.00    +0.000 C 
ATOM      2  C   UNL     1       1.868   6.729  20.259  0.00  0.00    +0.000 A 
ATOM      3  N   UNL     1       1.920   5.450  20.648  0.00  0.00    +0.000 NA
ATOM      4  N   UNL     1       2.583   4.803  19.654  0.00  0.00    +0.000 N 
ATOM      5  C   UNL     1       2.958   5.673  18.637  0.00  0.00    +0.000 A 
ATOM      6  C   UNL     1       2.489   6.922  19.009  0.00  0.00    +0.000 A 
ENDROOT
BRANCH   4   7
ATOM      7  C   UNL     1       2.863   3.355  19.811  0.00  0.00    +0.000 C 
ATOM      8  C   UNL     1       2.131   2.520  18.724  0.00  0.00    +0.000 C 
ATOM      9  C   UNL     1       4.371   3.069  19.663  0.00  0.00    +0.000 C 
ATOM     10  C   UNL     1       2.384   2.802  21.172  0.00  0.00    +0.000 C 
ENDBRANCH   4   7
BRANCH   5  11
ATOM     11  N   UNL     1       3.626   5.286  17.490  0.00  0.00    +0.000 N 
ATOM     12  C   UNL     1       4.968   5.586  17.326  0.00  0.00    +0.000 C 
ATOM     13  O   UNL     1       5.665   6.151  18.158  0.00  0.00    +0.000 OA
ATOM     14  H   UNL     1       3.172   4.656  16.849  0.00  0.00    +0.000 HD
BRANCH  12  15
ATOM     15  C   UNL     1       5.577   5.144  16.029  0.00  0.00    +0.000 A 
ATOM     16  C   UNL     1       4.758   4.448  15.132  0.00  0.00    +0.000 A 
ATOM     17  C   UNL     1       5.288   3.926  13.953  0.00  0.00    +0.000 A 
ATOM     18  C   UNL     1       6.636   4.115  13.648  0.00  0.00    +0.000 A 
ATOM     19  C   UNL     1       7.450   4.846  14.509  0.00  0.00    +0.000 A 
ATOM     20  C   UNL     1       6.923   5.369  15.694  0.00  0.00    +0.000 A 
ENDBRANCH  12  15
ENDBRANCH   5  11
BRANCH   6  21
ATOM     21  C   UNL     1       2.451   8.145  18.265  0.00  0.00    +0.000 C 
ATOM     22  N   UNL     1       2.320   9.064  17.573  0.00  0.00    +0.000 NA
ENDBRANCH   6  21
TORSDOF 4
ENDMDL
MODEL 6
REMARK VINA RESULT:      -7.0      0.386      1.020
REMARK  Name = 
REMARK  8 active torsions:
REMARK  status: ('A' for Active; 'I' for Inactive)
REMARK    1  A    between atoms: C_1  and  C_2
REMARK    2  A    between atoms: N_4  and  C_5
REMARK    3  A    between atoms: C_5  and  C_6
REMARK    4  A    between atoms: C_5  and  C_7
REMARK    5  A    between atoms: C_5  and  C_8
REMARK    6  A    between atoms: C_9  and  N_10
REMARK    7  A    between atoms: C_11  and  C_13
REMARK    8  A    between atoms: C_19  and  C_20
REMARK                            x       y       z     vdW  Elec       q    Type
REMARK                         _______ _______ _______ _____ _____    ______ ____
ROOT
ATOM      1  C   UNL     1       2.847   4.590  20.494  0.00  0.00    +0.000 C 
ATOM      2  C   UNL     1       3.897   4.636  19.445  0.00  0.00    +0.000 A 
ATOM      3  N   UNL     1       5.112   5.135  19.693  0.00  0.00    +0.000 NA
ATOM      4  N   UNL     1       5.805   4.975  18.535  0.00  0.00    +0.000 N 
ATOM      5  C   UNL     1       5.025   4.381  17.550  0.00  0.00    +0.000 A 
ATOM      6  C   UNL     1       3.791   4.144  18.129  0.00  0.00    +0.000 A 
ENDROOT
BRANCH   4   7
ATOM      7  C   UNL     1       7.194   5.490  18.460  0.00  0.00    +0.000 C 
ATOM      8  C   UNL     1       7.803   5.670  19.878  0.00  0.00    +0.000 C 
ATOM      9  C   UNL     1       8.103   4.504  17.699  0.00  0.00    +0.000 C 
ATOM     10  C   UNL     1       7.280   6.873  17.777  0.00  0.00    +0.000 C 
ENDBRANCH   4   7
BRANCH   5  11
ATOM     11  N   UNL     1       5.478   4.078  16.278  0.00  0.00    +0.000 N 
ATOM     12  C   UNL     1       5.473   5.043  15.285  0.00  0.00    +0.000 C 
ATOM     13  O   UNL     1       5.130   6.208  15.442  0.00  0.00    +0.000 OA
ATOM     14  H   UNL     1       5.951   3.203  16.123  0.00  0.00    +0.000 HD
BRANCH  12  15
ATOM     15  C   UNL     1       5.956   4.591  13.939  0.00  0.00    +0.000 A 
ATOM     16  C   UNL     1       5.148   3.695  13.228  0.00  0.00    +0.000 A 
ATOM     17  C   UNL     1       5.584   3.162  12.016  0.00  0.00    +0.000 A 
ATOM     18  C   UNL     1       6.822   3.535  11.492  0.00  0.00    +0.000 A 
ATOM     19  C   UNL     1       7.613   4.462  12.166  0.00  0.00    +0.000 A 
ATOM     20  C   UNL     1       7.181   4.997  13.383  0.00  0.00    +0.000 A 
ENDBRANCH  12  15
ENDBRANCH   5  11
BRANCH   6  21
ATOM     21  C   UNL     1       2.668   3.409  17.625  0.00  0.00    +0.000 C 
ATOM     22  N   UNL     1       1.796   2.711  17.323  0.00  0.00    +0.000 NA
ENDBRANCH   6  21
TORSDOF 4
ENDMDL
MODEL 7
REMARK VINA RESULT:      -6.8      2.829      6.954
REMARK  Name = 
REMARK  8 active torsions:
REMARK  status: ('A' for Active; 'I' for Inactive)
REMARK    1  A    between atoms: C_1  and  C_2
REMARK    2  A    between atoms: N_4  and  C_5
REMARK    3  A    between atoms: C_5  and  C_6
REMARK    4  A    between atoms: C_5  and  C_7
REMARK    5  A    between atoms: C_5  and  C_8
REMARK    6  A    between atoms: C_9  and  N_10
REMARK    7  A    between atoms: C_11  and  C_13
REMARK    8  A    between atoms: C_19  and  C_20
REMARK                            x       y       z     vdW  Elec       q    Type
REMARK                         _______ _______ _______ _____ _____    ______ ____
ROOT
ATOM      1  C   UNL     1       6.674   4.196  15.777  0.00  0.00    +0.000 C 
ATOM      2  C   UNL     1       5.541   4.500  16.688  0.00  0.00    +0.000 A 
ATOM      3  N   UNL     1       4.676   3.554  17.069  0.00  0.00    +0.000 NA
ATOM      4  N   UNL     1       3.818   4.178  17.918  0.00  0.00    +0.000 N 
ATOM      5  C   UNL     1       4.134   5.523  18.069  0.00  0.00    +0.000 A 
ATOM      6  C   UNL     1       5.256   5.743  17.288  0.00  0.00    +0.000 A 
ENDROOT
BRANCH   4   7
ATOM      7  C   UNL     1       2.685   3.403  18.481  0.00  0.00    +0.000 C 
ATOM      8  C   UNL     1       1.327   3.904  17.917  0.00  0.00    +0.000 C 
ATOM      9  C   UNL     1       2.806   1.911  18.113  0.00  0.00    +0.000 C 
ATOM     10  C   UNL     1       2.585   3.529  20.017  0.00  0.00    +0.000 C 
ENDBRANCH   4   7
BRANCH   5  11
ATOM     11  N   UNL     1       3.445   6.396  18.890  0.00  0.00    +0.000 N 
ATOM     12  C   UNL     1       2.575   7.328  18.348  0.00  0.00    +0.000 C 
ATOM     13  O   UNL     1       2.312   7.430  17.157  0.00  0.00    +0.000 OA
ATOM     14  H   UNL     1       3.462   6.248  19.885  0.00  0.00    +0.000 HD
BRANCH  12  15
ATOM     15  C   UNL     1       1.908   8.242  19.332  0.00  0.00    +0.000 A 
ATOM     16  C   UNL     1       1.749   7.777  20.643  0.00  0.00    +0.000 A 
ATOM     17  C   UNL     1       1.051   8.538  21.580  0.00  0.00    +0.000 A 
ATOM     18  C   UNL     1       0.526   9.780  21.223  0.00  0.00    +0.000 A 
ATOM     19  C   UNL     1       0.719  10.274  19.936  0.00  0.00    +0.000 A 
ATOM     20  C   UNL     1       1.415   9.513  18.992  0.00  0.00    +0.000 A 
ENDBRANCH  12  15
ENDBRANCH   5  11
BRANCH   6  21
ATOM     21  C   UNL     1       6.097   6.899  17.197  0.00  0.00    +0.000 C 
ATOM     22  N   UNL     1       6.879   7.752  17.203  0.00  0.00    +0.000 NA
ENDBRANCH   6  21
TORSDOF 4
ENDMDL
MODEL 8
REMARK VINA RESULT:      -6.7      3.025      6.785
REMARK  Name = 
REMARK  8 active torsions:
REMARK  status: ('A' for Active; 'I' for Inactive)
REMARK    1  A    between atoms: C_1  and  C_2
REMARK    2  A    between atoms: N_4  and  C_5
REMARK    3  A    between atoms: C_5  and  C_6
REMARK    4  A    between atoms: C_5  and  C_7
REMARK    5  A    between atoms: C_5  and  C_8
REMARK    6  A    between atoms: C_9  and  N_10
REMARK    7  A    between atoms: C_11  and  C_13
REMARK    8  A    between atoms: C_19  and  C_20
REMARK                            x       y       z     vdW  Elec       q    Type
REMARK                         _______ _______ _______ _____ _____    ______ ____
ROOT
ATOM      1  C   UNL     1       7.235   4.389  16.373  0.00  0.00    +0.000 C 
ATOM      2  C   UNL     1       5.951   4.706  17.047  0.00  0.00    +0.000 A 
ATOM      3  N   UNL     1       5.067   3.750  17.353  0.00  0.00    +0.000 NA
ATOM      4  N   UNL     1       4.053   4.395  17.987  0.00  0.00    +0.000 N 
ATOM      5  C   UNL     1       4.290   5.761  18.076  0.00  0.00    +0.000 A 
ATOM      6  C   UNL     1       5.522   5.975  17.483  0.00  0.00    +0.000 A 
ENDROOT
BRANCH   4   7
ATOM      7  C   UNL     1       2.867   3.611  18.411  0.00  0.00    +0.000 C 
ATOM      8  C   UNL     1       3.006   2.118  18.004  0.00  0.00    +0.000 C 
ATOM      9  C   UNL     1       2.704   3.649  19.944  0.00  0.00    +0.000 C 
ATOM     10  C   UNL     1       1.559   4.113  17.761  0.00  0.00    +0.000 C 
ENDBRANCH   4   7
BRANCH   5  11
ATOM     11  N   UNL     1       3.437   6.660  18.691  0.00  0.00    +0.000 N 
ATOM     12  C   UNL     1       2.854   7.682  17.961  0.00  0.00    +0.000 C 
ATOM     13  O   UNL     1       2.993   7.851  16.757  0.00  0.00    +0.000 OA
ATOM     14  H   UNL     1       3.125   6.474  19.630  0.00  0.00    +0.000 HD
BRANCH  12  15
ATOM     15  C   UNL     1       1.973   8.614  18.740  0.00  0.00    +0.000 A 
ATOM     16  C   UNL     1       1.646   8.250  20.052  0.00  0.00    +0.000 A 
ATOM     17  C   UNL     1       0.754   9.023  20.795  0.00  0.00    +0.000 A 
ATOM     18  C   UNL     1       0.199  10.177  20.243  0.00  0.00    +0.000 A 
ATOM     19  C   UNL     1       0.554  10.575  18.956  0.00  0.00    +0.000 A 
ATOM     20  C   UNL     1       1.445   9.801  18.206  0.00  0.00    +0.000 A 
ENDBRANCH  12  15
ENDBRANCH   5  11
BRANCH   6  21
ATOM     21  C   UNL     1       6.325   7.161  17.441  0.00  0.00    +0.000 C 
ATOM     22  N   UNL     1       7.031   8.063  17.278  0.00  0.00    +0.000 NA
ENDBRANCH   6  21
TORSDOF 4
ENDMDL
MODEL 9
REMARK VINA RESULT:      -6.6      2.977      6.894
REMARK  Name = 
REMARK  8 active torsions:
REMARK  status: ('A' for Active; 'I' for Inactive)
REMARK    1  A    between atoms: C_1  and  C_2
REMARK    2  A    between atoms: N_4  and  C_5
REMARK    3  A    between atoms: C_5  and  C_6
REMARK    4  A    between atoms: C_5  and  C_7
REMARK    5  A    between atoms: C_5  and  C_8
REMARK    6  A    between atoms: C_9  and  N_10
REMARK    7  A    between atoms: C_11  and  C_13
REMARK    8  A    between atoms: C_19  and  C_20
REMARK                            x       y       z     vdW  Elec       q    Type
REMARK                         _______ _______ _______ _____ _____    ______ ____
ROOT
ATOM      1  C   UNL     1       7.002   4.395  15.893  0.00  0.00    +0.000 C 
ATOM      2  C   UNL     1       5.790   4.702  16.694  0.00  0.00    +0.000 A 
ATOM      3  N   UNL     1       4.891   3.758  16.992  0.00  0.00    +0.000 NA
ATOM      4  N   UNL     1       3.959   4.384  17.758  0.00  0.00    +0.000 N 
ATOM      5  C   UNL     1       4.264   5.728  17.940  0.00  0.00    +0.000 A 
ATOM      6  C   UNL     1       5.455   5.945  17.267  0.00  0.00    +0.000 A 
ENDROOT
BRANCH   4   7
ATOM      7  C   UNL     1       2.776   3.613  18.212  0.00  0.00    +0.000 C 
ATOM      8  C   UNL     1       2.594   3.717  19.752  0.00  0.00    +0.000 C 
ATOM      9  C   UNL     1       1.487   4.156  17.566  0.00  0.00    +0.000 C 
ATOM     10  C   UNL     1       2.893   2.105  17.895  0.00  0.00    +0.000 C 
ENDBRANCH   4   7
BRANCH   5  11
ATOM     11  N   UNL     1       3.504   6.603  18.694  0.00  0.00    +0.000 N 
ATOM     12  C   UNL     1       2.753   7.589  18.077  0.00  0.00    +0.000 C 
ATOM     13  O   UNL     1       2.659   7.743  16.866  0.00  0.00    +0.000 OA
ATOM     14  H   UNL     1       3.380   6.420  19.676  0.00  0.00    +0.000 HD
BRANCH  12  15
ATOM     15  C   UNL     1       1.994   8.498  18.997  0.00  0.00    +0.000 A 
ATOM     16  C   UNL     1       1.628   9.757  18.507  0.00  0.00    +0.000 A 
ATOM     17  C   UNL     1       1.007  10.685  19.342  0.00  0.00    +0.000 A 
ATOM     18  C   UNL     1       0.726  10.356  20.668  0.00  0.00    +0.000 A 
ATOM     19  C   UNL     1       1.042   9.090  21.154  0.00  0.00    +0.000 A 
ATOM     20  C   UNL     1       1.668   8.157  20.321  0.00  0.00    +0.000 A 
ENDBRANCH  12  15
ENDBRANCH   5  11
BRANCH   6  21
ATOM     21  C   UNL     1       6.304   7.099  17.257  0.00  0.00    +0.000 C 
ATOM     22  N   UNL     1       7.078   7.954  17.347  0.00  0.00    +0.000 NA
ENDBRANCH   6  21
TORSDOF 4
ENDMDL
