MODEL 1
REMARK VINA RESULT:      -7.3      0.000      0.000
REMARK  Name = 
REMARK  2 active torsions:
REMARK  status: ('A' for Active; 'I' for Inactive)
REMARK    1  A    between atoms: C_1  and  N_2
REMARK    2  A    between atoms: N_11  and  C_12
REMARK                            x       y       z     vdW  Elec       q    Type
REMARK                         _______ _______ _______ _____ _____    ______ ____
ROOT
ATOM      1  C   UNL     1       7.599   4.517  17.687  0.00  0.00    +0.000 C 
ATOM      2  N   UNL     1       6.801   5.087  18.751  0.00  0.00    +0.000 N 
ATOM      3  C   UNL     1       5.531   4.590  18.984  0.00  0.00    +0.000 A 
ATOM      4  C   UNL     1       5.210   3.250  18.850  0.00  0.00    +0.000 A 
ATOM      5  C   UNL     1       3.919   2.825  19.154  0.00  0.00    +0.000 A 
ATOM      6  C   UNL     1       2.966   3.715  19.606  0.00  0.00    +0.000 A 
ATOM      7  N   UNL     1       1.748   3.239  19.898  0.00  0.00    +0.000 NA
ATOM      8  C   UNL     1       0.857   4.133  20.326  0.00  0.00    +0.000 A 
ATOM      9  N   UNL     1       1.080   5.438  20.455  0.00  0.00    +0.000 NA
ATOM     10  C   UNL     1       2.319   5.891  20.140  0.00  0.00    +0.000 A 
ATOM     11  N   UNL     1       2.543   7.295  20.175  0.00  0.00    +0.000 N 
ATOM     12  C   UNL     1       3.357   5.056  19.713  0.00  0.00    +0.000 A 
ATOM     13  N   UNL     1       4.623   5.487  19.414  0.00  0.00    +0.000 NA
ATOM     14  H   UNL     1       6.745   6.102  18.760  0.00  0.00    +0.000 HD
ATOM     15  H   UNL     1       3.453   7.523  20.560  0.00  0.00    +0.000 HD
ENDROOT
BRANCH  11  16
ATOM     16  C   UNL     1       1.556   8.296  20.210  0.00  0.00    +0.000 A 
ATOM     17  C   UNL     1       1.191   8.990  19.052  0.00  0.00    +0.000 A 
ATOM     18  C   UNL     1       0.256  10.033  19.107  0.00  0.00    +0.000 A 
ATOM     19  C   UNL     1      -0.327  10.392  20.324  0.00  0.00    +0.000 A 
ATOM     20  C   UNL     1       0.019   9.696  21.477  0.00  0.00    +0.000 A 
ATOM     21 BR   UNL     1      -0.757  10.164  23.136  0.00  0.00    +0.000 Br
ATOM     22  C   UNL     1       0.945   8.658  21.421  0.00  0.00    +0.000 A 
ENDBRANCH  11  16
TORSDOF 1
ENDMDL
MODEL 2
REMARK VINA RESULT:      -7.2      3.610      6.988
REMARK  Name = 
REMARK  2 active torsions:
REMARK  status: ('A' for Active; 'I' for Inactive)
REMARK    1  A    between atoms: C_1  and  N_2
REMARK    2  A    between atoms: N_11  and  C_12
REMARK                            x       y       z     vdW  Elec       q    Type
REMARK                         _______ _______ _______ _____ _____    ______ ____
ROOT
ATOM      1  C   UNL     1       1.158  11.957  18.935  0.00  0.00    +0.000 C 
ATOM      2  N   UNL     1       1.293  10.703  18.226  0.00  0.00    +0.000 N 
ATOM      3  C   UNL     1       1.452   9.532  18.945  0.00  0.00    +0.000 A 
ATOM      4  C   UNL     1       0.821   9.298  20.154  0.00  0.00    +0.000 A 
ATOM      5  C   UNL     1       0.996   8.071  20.789  0.00  0.00    +0.000 A 
ATOM      6  C   UNL     1       1.771   7.082  20.219  0.00  0.00    +0.000 A 
ATOM      7  N   UNL     1       1.885   5.918  20.872  0.00  0.00    +0.000 NA
ATOM      8  C   UNL     1       2.648   4.992  20.290  0.00  0.00    +0.000 A 
ATOM      9  N   UNL     1       3.307   5.149  19.146  0.00  0.00    +0.000 NA
ATOM     10  C   UNL     1       3.181   6.343  18.515  0.00  0.00    +0.000 A 
ATOM     11  N   UNL     1       3.961   6.563  17.345  0.00  0.00    +0.000 N 
ATOM     12  C   UNL     1       2.386   7.387  18.998  0.00  0.00    +0.000 A 
ATOM     13  N   UNL     1       2.224   8.592  18.365  0.00  0.00    +0.000 NA
ATOM     14  H   UNL     1       1.971  10.700  17.468  0.00  0.00    +0.000 HD
ATOM     15  H   UNL     1       3.439   7.061  16.632  0.00  0.00    +0.000 HD
ENDROOT
BRANCH  11  16
ATOM     16  C   UNL     1       5.069   5.805  16.927  0.00  0.00    +0.000 A 
ATOM     17  C   UNL     1       6.187   5.646  17.753  0.00  0.00    +0.000 A 
ATOM     18  C   UNL     1       7.315   4.947  17.302  0.00  0.00    +0.000 A 
ATOM     19  C   UNL     1       7.336   4.396  16.020  0.00  0.00    +0.000 A 
ATOM     20  C   UNL     1       6.223   4.537  15.200  0.00  0.00    +0.000 A 
ATOM     21 BR   UNL     1       6.229   3.800  13.458  0.00  0.00    +0.000 Br
ATOM     22  C   UNL     1       5.101   5.229  15.648  0.00  0.00    +0.000 A 
ENDBRANCH  11  16
TORSDOF 1
ENDMDL
MODEL 3
REMARK VINA RESULT:      -7.1      1.663      1.983
REMARK  Name = 
REMARK  2 active torsions:
REMARK  status: ('A' for Active; 'I' for Inactive)
REMARK    1  A    between atoms: C_1  and  N_2
REMARK    2  A    between atoms: N_11  and  C_12
REMARK                            x       y       z     vdW  Elec       q    Type
REMARK                         _______ _______ _______ _____ _____    ______ ____
ROOT
ATOM      1  C   UNL     1       5.845   5.110  14.996  0.00  0.00    +0.000 C 
ATOM      2  N   UNL     1       5.619   5.562  16.352  0.00  0.00    +0.000 N 
ATOM      3  C   UNL     1       4.617   4.975  17.103  0.00  0.00    +0.000 A 
ATOM      4  C   UNL     1       4.303   3.629  17.020  0.00  0.00    +0.000 A 
ATOM      5  C   UNL     1       3.313   3.108  17.850  0.00  0.00    +0.000 A 
ATOM      6  C   UNL     1       2.658   3.908  18.763  0.00  0.00    +0.000 A 
ATOM      7  N   UNL     1       1.728   3.341  19.543  0.00  0.00    +0.000 NA
ATOM      8  C   UNL     1       1.116   4.151  20.408  0.00  0.00    +0.000 A 
ATOM      9  N   UNL     1       1.341   5.456  20.528  0.00  0.00    +0.000 NA
ATOM     10  C   UNL     1       2.279   6.003  19.716  0.00  0.00    +0.000 A 
ATOM     11  N   UNL     1       2.458   7.413  19.761  0.00  0.00    +0.000 N 
ATOM     12  C   UNL     1       3.020   5.261  18.790  0.00  0.00    +0.000 A 
ATOM     13  N   UNL     1       3.990   5.787  17.977  0.00  0.00    +0.000 NA
ATOM     14  H   UNL     1       5.549   6.570  16.470  0.00  0.00    +0.000 HD
ATOM     15  H   UNL     1       3.437   7.671  19.699  0.00  0.00    +0.000 HD
ENDROOT
BRANCH  11  16
ATOM     16  C   UNL     1       1.576   8.347  20.331  0.00  0.00    +0.000 A 
ATOM     17  C   UNL     1       1.348   8.375  21.711  0.00  0.00    +0.000 A 
ATOM     18  C   UNL     1       0.415   9.263  22.264  0.00  0.00    +0.000 A 
ATOM     19  C   UNL     1      -0.300  10.136  21.442  0.00  0.00    +0.000 A 
ATOM     20  C   UNL     1      -0.067  10.125  20.071  0.00  0.00    +0.000 A 
ATOM     21 BR   UNL     1      -1.024  11.297  18.937  0.00  0.00    +0.000 Br
ATOM     22  C   UNL     1       0.861   9.245  19.523  0.00  0.00    +0.000 A 
ENDBRANCH  11  16
TORSDOF 1
ENDMDL
MODEL 4
REMARK VINA RESULT:      -7.1      1.805      1.837
REMARK  Name = 
REMARK  2 active torsions:
REMARK  status: ('A' for Active; 'I' for Inactive)
REMARK    1  A    between atoms: C_1  and  N_2
REMARK    2  A    between atoms: N_11  and  C_12
REMARK                            x       y       z     vdW  Elec       q    Type
REMARK                         _______ _______ _______ _____ _____    ______ ____
ROOT
ATOM      1  C   UNL     1       6.362   5.089  14.212  0.00  0.00    +0.000 C 
ATOM      2  N   UNL     1       6.078   5.749  15.468  0.00  0.00    +0.000 N 
ATOM      3  C   UNL     1       5.196   5.162  16.356  0.00  0.00    +0.000 A 
ATOM      4  C   UNL     1       5.110   3.793  16.540  0.00  0.00    +0.000 A 
ATOM      5  C   UNL     1       4.229   3.286  17.493  0.00  0.00    +0.000 A 
ATOM      6  C   UNL     1       3.459   4.129  18.267  0.00  0.00    +0.000 A 
ATOM      7  N   UNL     1       2.645   3.580  19.178  0.00  0.00    +0.000 NA
ATOM      8  C   UNL     1       1.915   4.430  19.901  0.00  0.00    +0.000 A 
ATOM      9  N   UNL     1       1.921   5.752  19.766  0.00  0.00    +0.000 NA
ATOM     10  C   UNL     1       2.747   6.278  18.827  0.00  0.00    +0.000 A 
ATOM     11  N   UNL     1       2.688   7.682  18.600  0.00  0.00    +0.000 N 
ATOM     12  C   UNL     1       3.591   5.503  18.025  0.00  0.00    +0.000 A 
ATOM     13  N   UNL     1       4.452   6.014  17.089  0.00  0.00    +0.000 NA
ATOM     14  H   UNL     1       5.842   6.736  15.399  0.00  0.00    +0.000 HD
ATOM     15  H   UNL     1       3.610   8.078  18.451  0.00  0.00    +0.000 HD
ENDROOT
BRANCH  11  16
ATOM     16  C   UNL     1       1.669   8.552  19.023  0.00  0.00    +0.000 A 
ATOM     17  C   UNL     1       1.037   9.415  18.121  0.00  0.00    +0.000 A 
ATOM     18  C   UNL     1       0.070  10.328  18.562  0.00  0.00    +0.000 A 
ATOM     19  C   UNL     1      -0.278  10.387  19.913  0.00  0.00    +0.000 A 
ATOM     20  C   UNL     1       0.334   9.522  20.812  0.00  0.00    +0.000 A 
ATOM     21 BR   UNL     1      -0.120   9.584  22.647  0.00  0.00    +0.000 Br
ATOM     22  C   UNL     1       1.292   8.613  20.373  0.00  0.00    +0.000 A 
ENDBRANCH  11  16
TORSDOF 1
ENDMDL
MODEL 5
REMARK VINA RESULT:      -7.0      3.916      6.940
REMARK  Name = 
REMARK  2 active torsions:
REMARK  status: ('A' for Active; 'I' for Inactive)
REMARK    1  A    between atoms: C_1  and  N_2
REMARK    2  A    between atoms: N_11  and  C_12
REMARK                            x       y       z     vdW  Elec       q    Type
REMARK                         _______ _______ _______ _____ _____    ______ ____
ROOT
ATOM      1  C   UNL     1       1.472   8.544  21.406  0.00  0.00    +0.000 C 
ATOM      2  N   UNL     1       1.545   7.876  20.124  0.00  0.00    +0.000 N 
ATOM      3  C   UNL     1       1.899   6.540  20.076  0.00  0.00    +0.000 A 
ATOM      4  C   UNL     1       1.513   5.623  21.038  0.00  0.00    +0.000 A 
ATOM      5  C   UNL     1       1.869   4.285  20.887  0.00  0.00    +0.000 A 
ATOM      6  C   UNL     1       2.583   3.861  19.785  0.00  0.00    +0.000 A 
ATOM      7  N   UNL     1       2.879   2.558  19.691  0.00  0.00    +0.000 NA
ATOM      8  C   UNL     1       3.573   2.191  18.614  0.00  0.00    +0.000 A 
ATOM      9  N   UNL     1       4.004   3.013  17.662  0.00  0.00    +0.000 NA
ATOM     10  C   UNL     1       3.698   4.328  17.791  0.00  0.00    +0.000 A 
ATOM     11  N   UNL     1       4.238   5.235  16.837  0.00  0.00    +0.000 N 
ATOM     12  C   UNL     1       2.946   4.841  18.854  0.00  0.00    +0.000 A 
ATOM     13  N   UNL     1       2.604   6.161  18.992  0.00  0.00    +0.000 NA
ATOM     14  H   UNL     1       2.074   8.366  19.406  0.00  0.00    +0.000 HD
ATOM     15  H   UNL     1       3.568   5.948  16.573  0.00  0.00    +0.000 HD
ENDROOT
BRANCH  11  16
ATOM     16  C   UNL     1       5.293   4.974  15.944  0.00  0.00    +0.000 A 
ATOM     17  C   UNL     1       6.595   5.406  16.219  0.00  0.00    +0.000 A 
ATOM     18  C   UNL     1       7.626   5.203  15.293  0.00  0.00    +0.000 A 
ATOM     19  C   UNL     1       7.368   4.562  14.080  0.00  0.00    +0.000 A 
ATOM     20  C   UNL     1       6.080   4.116  13.806  0.00  0.00    +0.000 A 
ATOM     21 BR   UNL     1       5.705   3.245  12.170  0.00  0.00    +0.000 Br
ATOM     22  C   UNL     1       5.056   4.315  14.728  0.00  0.00    +0.000 A 
ENDBRANCH  11  16
TORSDOF 1
ENDMDL
MODEL 6
REMARK VINA RESULT:      -7.0      1.173      1.586
REMARK  Name = 
REMARK  2 active torsions:
REMARK  status: ('A' for Active; 'I' for Inactive)
REMARK    1  A    between atoms: C_1  and  N_2
REMARK    2  A    between atoms: N_11  and  C_12
REMARK                            x       y       z     vdW  Elec       q    Type
REMARK                         _______ _______ _______ _____ _____    ______ ____
ROOT
ATOM      1  C   UNL     1       7.449   4.752  17.449  0.00  0.00    +0.000 C 
ATOM      2  N   UNL     1       6.693   5.189  18.603  0.00  0.00    +0.000 N 
ATOM      3  C   UNL     1       5.425   4.679  18.815  0.00  0.00    +0.000 A 
ATOM      4  C   UNL     1       5.081   3.370  18.523  0.00  0.00    +0.000 A 
ATOM      5  C   UNL     1       3.795   2.922  18.814  0.00  0.00    +0.000 A 
ATOM      6  C   UNL     1       2.870   3.756  19.407  0.00  0.00    +0.000 A 
ATOM      7  N   UNL     1       1.656   3.258  19.678  0.00  0.00    +0.000 NA
ATOM      8  C   UNL     1       0.791   4.099  20.245  0.00  0.00    +0.000 A 
ATOM      9  N   UNL     1       1.036   5.374  20.532  0.00  0.00    +0.000 NA
ATOM     10  C   UNL     1       2.271   5.852  20.235  0.00  0.00    +0.000 A 
ATOM     11  N   UNL     1       2.515   7.239  20.440  0.00  0.00    +0.000 N 
ATOM     12  C   UNL     1       3.282   5.069  19.670  0.00  0.00    +0.000 A 
ATOM     13  N   UNL     1       4.544   5.522  19.386  0.00  0.00    +0.000 NA
ATOM     14  H   UNL     1       6.652   6.196  18.743  0.00  0.00    +0.000 HD
ATOM     15  H   UNL     1       3.440   7.407  20.820  0.00  0.00    +0.000 HD
ENDROOT
BRANCH  11  16
ATOM     16  C   UNL     1       1.543   8.236  20.635  0.00  0.00    +0.000 A 
ATOM     17  C   UNL     1       1.112   8.582  21.921  0.00  0.00    +0.000 A 
ATOM     18  C   UNL     1       0.094   9.528  22.103  0.00  0.00    +0.000 A 
ATOM     19  C   UNL     1      -0.504  10.140  21.001  0.00  0.00    +0.000 A 
ATOM     20  C   UNL     1      -0.071   9.812  19.721  0.00  0.00    +0.000 A 
ATOM     21 BR   UNL     1      -0.868  10.627  18.212  0.00  0.00    +0.000 Br
ATOM     22  C   UNL     1       0.942   8.875  19.540  0.00  0.00    +0.000 A 
ENDBRANCH  11  16
TORSDOF 1
ENDMDL
MODEL 7
REMARK VINA RESULT:      -6.9      3.412      5.633
REMARK  Name = 
REMARK  2 active torsions:
REMARK  status: ('A' for Active; 'I' for Inactive)
REMARK    1  A    between atoms: C_1  and  N_2
REMARK    2  A    between atoms: N_11  and  C_12
REMARK                            x       y       z     vdW  Elec       q    Type
REMARK                         _______ _______ _______ _____ _____    ______ ____
ROOT
ATOM      1  C   UNL     1       5.565   2.340  11.646  0.00  0.00    +0.000 C 
ATOM      2  N   UNL     1       4.915   3.340  12.465  0.00  0.00    +0.000 N 
ATOM      3  C   UNL     1       5.648   4.002  13.434  0.00  0.00    +0.000 A 
ATOM      4  C   UNL     1       6.976   4.354  13.265  0.00  0.00    +0.000 A 
ATOM      5  C   UNL     1       7.626   5.064  14.271  0.00  0.00    +0.000 A 
ATOM      6  C   UNL     1       6.961   5.438  15.420  0.00  0.00    +0.000 A 
ATOM      7  N   UNL     1       7.639   6.136  16.341  0.00  0.00    +0.000 NA
ATOM      8  C   UNL     1       6.960   6.472  17.438  0.00  0.00    +0.000 A 
ATOM      9  N   UNL     1       5.694   6.149  17.686  0.00  0.00    +0.000 NA
ATOM     10  C   UNL     1       5.038   5.432  16.740  0.00  0.00    +0.000 A 
ATOM     11  N   UNL     1       3.718   4.992  17.034  0.00  0.00    +0.000 N 
ATOM     12  C   UNL     1       5.621   5.045  15.529  0.00  0.00    +0.000 A 
ATOM     13  N   UNL     1       4.971   4.343  14.547  0.00  0.00    +0.000 NA
ATOM     14  H   UNL     1       4.031   3.057  12.881  0.00  0.00    +0.000 HD
ATOM     15  H   UNL     1       3.107   5.067  16.229  0.00  0.00    +0.000 HD
ENDROOT
BRANCH  11  16
ATOM     16  C   UNL     1       3.116   4.955  18.304  0.00  0.00    +0.000 A 
ATOM     17  C   UNL     1       2.905   3.742  18.968  0.00  0.00    +0.000 A 
ATOM     18  C   UNL     1       2.242   3.708  20.202  0.00  0.00    +0.000 A 
ATOM     19  C   UNL     1       1.784   4.889  20.788  0.00  0.00    +0.000 A 
ATOM     20  C   UNL     1       2.003   6.100  20.142  0.00  0.00    +0.000 A 
ATOM     21 BR   UNL     1       1.391   7.713  20.915  0.00  0.00    +0.000 Br
ATOM     22  C   UNL     1       2.665   6.134  18.917  0.00  0.00    +0.000 A 
ENDBRANCH  11  16
TORSDOF 1
ENDMDL
MODEL 8
REMARK VINA RESULT:      -6.9      4.114      7.147
REMARK  Name = 
REMARK  2 active torsions:
REMARK  status: ('A' for Active; 'I' for Inactive)
REMARK    1  A    between atoms: C_1  and  N_2
REMARK    2  A    between atoms: N_11  and  C_12
REMARK                            x       y       z     vdW  Elec       q    Type
REMARK                         _______ _______ _______ _____ _____    ______ ____
ROOT
ATOM      1  C   UNL     1       1.920   2.076  21.720  0.00  0.00    +0.000 C 
ATOM      2  N   UNL     1       3.086   2.701  21.131  0.00  0.00    +0.000 N 
ATOM      3  C   UNL     1       2.940   3.893  20.445  0.00  0.00    +0.000 A 
ATOM      4  C   UNL     1       2.048   4.879  20.827  0.00  0.00    +0.000 A 
ATOM      5  C   UNL     1       2.001   6.072  20.110  0.00  0.00    +0.000 A 
ATOM      6  C   UNL     1       2.843   6.290  19.039  0.00  0.00    +0.000 A 
ATOM      7  N   UNL     1       2.760   7.465  18.402  0.00  0.00    +0.000 NA
ATOM      8  C   UNL     1       3.588   7.633  17.371  0.00  0.00    +0.000 A 
ATOM      9  N   UNL     1       4.452   6.726  16.925  0.00  0.00    +0.000 NA
ATOM     10  C   UNL     1       4.504   5.541  17.584  0.00  0.00    +0.000 A 
ATOM     11  N   UNL     1       5.349   4.524  17.058  0.00  0.00    +0.000 N 
ATOM     12  C   UNL     1       3.717   5.248  18.702  0.00  0.00    +0.000 A 
ATOM     13  N   UNL     1       3.771   4.069  19.399  0.00  0.00    +0.000 NA
ATOM     14  H   UNL     1       3.674   2.088  20.572  0.00  0.00    +0.000 HD
ATOM     15  H   UNL     1       5.830   4.017  17.792  0.00  0.00    +0.000 HD
ENDROOT
BRANCH  11  16
ATOM     16  C   UNL     1       5.912   4.492  15.770  0.00  0.00    +0.000 A 
ATOM     17  C   UNL     1       7.169   5.053  15.519  0.00  0.00    +0.000 A 
ATOM     18  C   UNL     1       7.694   5.079  14.220  0.00  0.00    +0.000 A 
ATOM     19  C   UNL     1       6.967   4.541  13.156  0.00  0.00    +0.000 A 
ATOM     20  C   UNL     1       5.724   3.969  13.400  0.00  0.00    +0.000 A 
ATOM     21 BR   UNL     1       4.721   3.235  11.975  0.00  0.00    +0.000 Br
ATOM     22  C   UNL     1       5.205   3.940  14.691  0.00  0.00    +0.000 A 
ENDBRANCH  11  16
TORSDOF 1
ENDMDL
MODEL 9
REMARK VINA RESULT:      -6.9      2.334      2.690
REMARK  Name = 
REMARK  2 active torsions:
REMARK  status: ('A' for Active; 'I' for Inactive)
REMARK    1  A    between atoms: C_1  and  N_2
REMARK    2  A    between atoms: N_11  and  C_12
REMARK                            x       y       z     vdW  Elec       q    Type
REMARK                         _______ _______ _______ _____ _____    ______ ____
ROOT
ATOM      1  C   UNL     1       6.199   5.130  14.603  0.00  0.00    +0.000 C 
ATOM      2  N   UNL     1       5.878   6.068  15.657  0.00  0.00    +0.000 N 
ATOM      3  C   UNL     1       5.095   5.652  16.718  0.00  0.00    +0.000 A 
ATOM      4  C   UNL     1       5.171   4.380  17.258  0.00  0.00    +0.000 A 
ATOM      5  C   UNL     1       4.382   4.058  18.360  0.00  0.00    +0.000 A 
ATOM      6  C   UNL     1       3.545   4.994  18.931  0.00  0.00    +0.000 A 
ATOM      7  N   UNL     1       2.826   4.627  19.999  0.00  0.00    +0.000 NA
ATOM      8  C   UNL     1       2.025   5.559  20.516  0.00  0.00    +0.000 A 
ATOM      9  N   UNL     1       1.876   6.792  20.041  0.00  0.00    +0.000 NA
ATOM     10  C   UNL     1       2.609   7.130  18.950  0.00  0.00    +0.000 A 
ATOM     11  N   UNL     1       2.384   8.409  18.368  0.00  0.00    +0.000 N 
ATOM     12  C   UNL     1       3.512   6.260  18.331  0.00  0.00    +0.000 A 
ATOM     13  N   UNL     1       4.281   6.587  17.245  0.00  0.00    +0.000 NA
ATOM     14  H   UNL     1       5.530   6.972  15.347  0.00  0.00    +0.000 HD
ATOM     15  H   UNL     1       3.250   8.843  18.067  0.00  0.00    +0.000 HD
ENDROOT
BRANCH  11  16
ATOM     16  C   UNL     1       1.285   9.252  18.607  0.00  0.00    +0.000 A 
ATOM     17  C   UNL     1       1.207  10.024  19.771  0.00  0.00    +0.000 A 
ATOM     18  C   UNL     1       0.077  10.809  20.035  0.00  0.00    +0.000 A 
ATOM     19  C   UNL     1      -0.990  10.832  19.135  0.00  0.00    +0.000 A 
ATOM     20  C   UNL     1      -0.914  10.079  17.969  0.00  0.00    +0.000 A 
ATOM     21 BR   UNL     1      -2.347  10.092  16.736  0.00  0.00    +0.000 Br
ATOM     22  C   UNL     1       0.211   9.302  17.706  0.00  0.00    +0.000 A 
ENDBRANCH  11  16
TORSDOF 1
ENDMDL
