MODEL 1
REMARK VINA RESULT:      -7.4      0.000      0.000
REMARK  Name = 
REMARK  11 active torsions:
REMARK  status: ('A' for Active; 'I' for Inactive)
REMARK    1  A    between atoms: C_1  and  C_2
REMARK    2  A    between atoms: C_2  and  N_3
REMARK    3  A    between atoms: N_3  and  S_4
REMARK    4  A    between atoms: S_4  and  C_7
REMARK    5  A    between atoms: C_10  and  C_11
REMARK    6  A    between atoms: C_12  and  C_13
REMARK    7  A    between atoms: C_14  and  C_15
REMARK    8  A    between atoms: C_21  and  O_22
REMARK    9  A    between atoms: O_22  and  C_23
REMARK   10  A    between atoms: C_23  and  C_24
REMARK   11  A    between atoms: C_24  and  O_26
REMARK                            x       y       z     vdW  Elec       q    Type
REMARK                         _______ _______ _______ _____ _____    ______ ____
ROOT
ATOM      1  C   UNL     1       1.867   8.105  18.343  0.00  0.00    +0.000 C 
ATOM      2  C   UNL     1       1.027   8.961  18.317  0.00  0.00    +0.000 C 
ENDROOT
BRANCH   1   8
ATOM      3  C   UNL     1       4.773   5.984  17.371  0.00  0.00    +0.000 A 
ATOM      4  C   UNL     1       4.858   5.089  18.440  0.00  0.00    +0.000 A 
ATOM      5  C   UNL     1       3.943   5.183  19.488  0.00  0.00    +0.000 A 
ATOM      6  C   UNL     1       2.929   6.158  19.476  0.00  0.00    +0.000 A 
ATOM      7  C   UNL     1       1.908   6.165  20.582  0.00  0.00    +0.000 C 
ATOM      8  C   UNL     1       2.872   7.075  18.405  0.00  0.00    +0.000 A 
ATOM      9  C   UNL     1       3.791   6.978  17.352  0.00  0.00    +0.000 A 
BRANCH   3  10
ATOM     10  S   UNL     1       5.822   5.735  15.952  0.00  0.00    +0.000 S 
ATOM     11  O   UNL     1       5.417   6.669  14.924  0.00  0.00    +0.000 OA
ATOM     12  O   UNL     1       5.854   4.307  15.728  0.00  0.00    +0.000 OA
BRANCH  10  13
ATOM     13  N   UNL     1       7.357   6.185  16.511  0.00  0.00    +0.000 NA
ATOM     14  H   UNL     1       7.908   5.378  16.797  0.00  0.00    +0.000 HD
BRANCH  13  16
ATOM     15  C   UNL     1       8.126   6.883  18.717  0.00  0.00    +0.000 C 
ATOM     16  C   UNL     1       7.425   7.323  17.442  0.00  0.00    +0.000 C 
ENDBRANCH  13  16
ENDBRANCH  10  13
ENDBRANCH   3  10
ENDBRANCH   1   8
BRANCH   2  17
ATOM     17  C   UNL     1       0.043  10.012  18.328  0.00  0.00    +0.000 A 
ATOM     18  C   UNL     1      -1.036   9.928  17.433  0.00  0.00    +0.000 A 
ATOM     19  C   UNL     1      -1.995  10.941  17.395  0.00  0.00    +0.000 A 
ATOM     20 CL   UNL     1      -3.336  10.820  16.325  0.00  0.00    +0.000 Cl
ATOM     21  C   UNL     1      -1.875  12.056  18.216  0.00  0.00    +0.000 A 
ATOM     22  C   UNL     1      -0.806  12.147  19.107  0.00  0.00    +0.000 A 
ATOM     23  C   UNL     1       0.138  11.111  19.202  0.00  0.00    +0.000 A 
BRANCH  23  24
ATOM     24  O   UNL     1       1.162  11.113  20.123  0.00  0.00    +0.000 OA
BRANCH  24  25
ATOM     25  C   UNL     1       0.741  11.007  21.488  0.00  0.00    +0.000 C 
BRANCH  25  26
ATOM     26  C   UNL     1       0.772   9.567  21.964  0.00  0.00    +0.000 C 
ATOM     27  O   UNL     1      -0.131   8.768  21.762  0.00  0.00    +0.000 OA
BRANCH  26  28
ATOM     28  O   UNL     1       1.901   9.244  22.639  0.00  0.00    +0.000 OA
ATOM     29  H   UNL     1       2.689   9.463  22.094  0.00  0.00    +0.000 HD
ENDBRANCH  26  28
ENDBRANCH  25  26
ENDBRANCH  24  25
ENDBRANCH  23  24
ENDBRANCH   2  17
TORSDOF 9
ENDMDL
MODEL 2
REMARK VINA RESULT:      -7.4      2.479      3.485
REMARK  Name = 
REMARK  11 active torsions:
REMARK  status: ('A' for Active; 'I' for Inactive)
REMARK    1  A    between atoms: C_1  and  C_2
REMARK    2  A    between atoms: C_2  and  N_3
REMARK    3  A    between atoms: N_3  and  S_4
REMARK    4  A    between atoms: S_4  and  C_7
REMARK    5  A    between atoms: C_10  and  C_11
REMARK    6  A    between atoms: C_12  and  C_13
REMARK    7  A    between atoms: C_14  and  C_15
REMARK    8  A    between atoms: C_21  and  O_22
REMARK    9  A    between atoms: O_22  and  C_23
REMARK   10  A    between atoms: C_23  and  C_24
REMARK   11  A    between atoms: C_24  and  O_26
REMARK                            x       y       z     vdW  Elec       q    Type
REMARK                         _______ _______ _______ _____ _____    ______ ____
ROOT
ATOM      1  C   UNL     1       1.950   8.573  18.553  0.00  0.00    +0.000 C 
ATOM      2  C   UNL     1       1.263   9.553  18.642  0.00  0.00    +0.000 C 
ENDROOT
BRANCH   1   8
ATOM      3  C   UNL     1       4.451   6.121  17.283  0.00  0.00    +0.000 A 
ATOM      4  C   UNL     1       4.373   5.099  18.231  0.00  0.00    +0.000 A 
ATOM      5  C   UNL     1       3.480   5.218  19.296  0.00  0.00    +0.000 A 
ATOM      6  C   UNL     1       2.651   6.346  19.420  0.00  0.00    +0.000 A 
ATOM      7  C   UNL     1       1.639   6.391  20.534  0.00  0.00    +0.000 C 
ATOM      8  C   UNL     1       2.760   7.386  18.472  0.00  0.00    +0.000 A 
ATOM      9  C   UNL     1       3.656   7.264  17.402  0.00  0.00    +0.000 A 
BRANCH   3  10
ATOM     10  S   UNL     1       5.452   5.875  15.829  0.00  0.00    +0.000 S 
ATOM     11  O   UNL     1       5.221   6.986  14.931  0.00  0.00    +0.000 OA
ATOM     12  O   UNL     1       5.237   4.502  15.428  0.00  0.00    +0.000 OA
BRANCH  10  13
ATOM     13  N   UNL     1       7.037   5.978  16.416  0.00  0.00    +0.000 NA
ATOM     14  H   UNL     1       7.385   5.075  16.732  0.00  0.00    +0.000 HD
BRANCH  13  16
ATOM     15  C   UNL     1       7.851   6.538  18.646  0.00  0.00    +0.000 C 
ATOM     16  C   UNL     1       7.343   7.095  17.326  0.00  0.00    +0.000 C 
ENDBRANCH  13  16
ENDBRANCH  10  13
ENDBRANCH   3  10
ENDBRANCH   1   8
BRANCH   2  17
ATOM     17  C   UNL     1       0.453  10.733  18.803  0.00  0.00    +0.000 A 
ATOM     18  C   UNL     1       0.948  11.781  19.596  0.00  0.00    +0.000 A 
ATOM     19  C   UNL     1       0.182  12.930  19.798  0.00  0.00    +0.000 A 
ATOM     20 CL   UNL     1       0.804  14.228  20.739  0.00  0.00    +0.000 Cl
ATOM     21  C   UNL     1      -1.089  13.035  19.246  0.00  0.00    +0.000 A 
ATOM     22  C   UNL     1      -1.588  11.997  18.457  0.00  0.00    +0.000 A 
ATOM     23  C   UNL     1      -0.809  10.859  18.194  0.00  0.00    +0.000 A 
BRANCH  23  24
ATOM     24  O   UNL     1      -1.221   9.847  17.354  0.00  0.00    +0.000 OA
BRANCH  24  25
ATOM     25  C   UNL     1      -2.604   9.899  16.987  0.00  0.00    +0.000 C 
BRANCH  25  26
ATOM     26  C   UNL     1      -2.779  10.399  15.566  0.00  0.00    +0.000 C 
ATOM     27  O   UNL     1      -2.554   9.718  14.576  0.00  0.00    +0.000 OA
BRANCH  26  28
ATOM     28  O   UNL     1      -3.212  11.680  15.493  0.00  0.00    +0.000 OA
ATOM     29  H   UNL     1      -2.500  12.290  15.786  0.00  0.00    +0.000 HD
ENDBRANCH  26  28
ENDBRANCH  25  26
ENDBRANCH  24  25
ENDBRANCH  23  24
ENDBRANCH   2  17
TORSDOF 9
ENDMDL
MODEL 3
REMARK VINA RESULT:      -7.4      1.357      1.849
REMARK  Name = 
REMARK  11 active torsions:
REMARK  status: ('A' for Active; 'I' for Inactive)
REMARK    1  A    between atoms: C_1  and  C_2
REMARK    2  A    between atoms: C_2  and  N_3
REMARK    3  A    between atoms: N_3  and  S_4
REMARK    4  A    between atoms: S_4  and  C_7
REMARK    5  A    between atoms: C_10  and  C_11
REMARK    6  A    between atoms: C_12  and  C_13
REMARK    7  A    between atoms: C_14  and  C_15
REMARK    8  A    between atoms: C_21  and  O_22
REMARK    9  A    between atoms: O_22  and  C_23
REMARK   10  A    between atoms: C_23  and  C_24
REMARK   11  A    between atoms: C_24  and  O_26
REMARK                            x       y       z     vdW  Elec       q    Type
REMARK                         _______ _______ _______ _____ _____    ______ ____
ROOT
ATOM      1  C   UNL     1       1.715   8.302  18.647  0.00  0.00    +0.000 C 
ATOM      2  C   UNL     1       0.847   9.131  18.618  0.00  0.00    +0.000 C 
ENDROOT
BRANCH   1   8
ATOM      3  C   UNL     1       4.770   6.413  17.657  0.00  0.00    +0.000 A 
ATOM      4  C   UNL     1       4.792   5.374  18.590  0.00  0.00    +0.000 A 
ATOM      5  C   UNL     1       3.784   5.293  19.551  0.00  0.00    +0.000 A 
ATOM      6  C   UNL     1       2.741   6.236  19.584  0.00  0.00    +0.000 A 
ATOM      7  C   UNL     1       1.626   6.059  20.580  0.00  0.00    +0.000 C 
ATOM      8  C   UNL     1       2.746   7.298  18.654  0.00  0.00    +0.000 A 
ATOM      9  C   UNL     1       3.758   7.376  17.688  0.00  0.00    +0.000 A 
BRANCH   3  10
ATOM     10  S   UNL     1       5.949   6.398  16.321  0.00  0.00    +0.000 S 
ATOM     11  O   UNL     1       7.159   7.044  16.783  0.00  0.00    +0.000 OA
ATOM     12  O   UNL     1       5.230   6.853  15.152  0.00  0.00    +0.000 OA
BRANCH  10  13
ATOM     13  N   UNL     1       6.273   4.750  16.097  0.00  0.00    +0.000 NA
ATOM     14  H   UNL     1       7.271   4.566  16.024  0.00  0.00    +0.000 HD
BRANCH  13  16
ATOM     15  C   UNL     1       6.244   3.889  13.816  0.00  0.00    +0.000 C 
ATOM     16  C   UNL     1       5.452   4.035  15.105  0.00  0.00    +0.000 C 
ENDBRANCH  13  16
ENDBRANCH  10  13
ENDBRANCH   3  10
ENDBRANCH   1   8
BRANCH   2  17
ATOM     17  C   UNL     1      -0.230  10.086  18.569  0.00  0.00    +0.000 A 
ATOM     18  C   UNL     1      -1.105  10.050  17.471  0.00  0.00    +0.000 A 
ATOM     19  C   UNL     1      -2.145  10.976  17.373  0.00  0.00    +0.000 A 
ATOM     20 CL   UNL     1      -3.239  10.909  16.047  0.00  0.00    +0.000 Cl
ATOM     21  C   UNL     1      -2.304  11.961  18.341  0.00  0.00    +0.000 A 
ATOM     22  C   UNL     1      -1.438  12.003  19.433  0.00  0.00    +0.000 A 
ATOM     23  C   UNL     1      -0.422  11.045  19.580  0.00  0.00    +0.000 A 
BRANCH  23  24
ATOM     24  O   UNL     1       0.404  10.991  20.682  0.00  0.00    +0.000 OA
BRANCH  24  25
ATOM     25  C   UNL     1      -0.275  11.020  21.942  0.00  0.00    +0.000 C 
BRANCH  25  26
ATOM     26  C   UNL     1      -0.082   9.722  22.703  0.00  0.00    +0.000 C 
ATOM     27  O   UNL     1       0.345   9.666  23.847  0.00  0.00    +0.000 OA
BRANCH  26  28
ATOM     28  O   UNL     1      -0.430   8.622  21.994  0.00  0.00    +0.000 OA
ATOM     29  H   UNL     1      -1.387   8.654  21.775  0.00  0.00    +0.000 HD
ENDBRANCH  26  28
ENDBRANCH  25  26
ENDBRANCH  24  25
ENDBRANCH  23  24
ENDBRANCH   2  17
TORSDOF 9
ENDMDL
MODEL 4
REMARK VINA RESULT:      -7.3      4.370      8.015
REMARK  Name = 
REMARK  11 active torsions:
REMARK  status: ('A' for Active; 'I' for Inactive)
REMARK    1  A    between atoms: C_1  and  C_2
REMARK    2  A    between atoms: C_2  and  N_3
REMARK    3  A    between atoms: N_3  and  S_4
REMARK    4  A    between atoms: S_4  and  C_7
REMARK    5  A    between atoms: C_10  and  C_11
REMARK    6  A    between atoms: C_12  and  C_13
REMARK    7  A    between atoms: C_14  and  C_15
REMARK    8  A    between atoms: C_21  and  O_22
REMARK    9  A    between atoms: O_22  and  C_23
REMARK   10  A    between atoms: C_23  and  C_24
REMARK   11  A    between atoms: C_24  and  O_26
REMARK                            x       y       z     vdW  Elec       q    Type
REMARK                         _______ _______ _______ _____ _____    ______ ____
ROOT
ATOM      1  C   UNL     1       1.904   8.248  18.939  0.00  0.00    +0.000 C 
ATOM      2  C   UNL     1       2.616   7.427  18.430  0.00  0.00    +0.000 C 
ENDROOT
BRANCH   1   8
ATOM      3  C   UNL     1      -0.063  11.379  19.398  0.00  0.00    +0.000 A 
ATOM      4  C   UNL     1      -0.532  11.246  20.706  0.00  0.00    +0.000 A 
ATOM      5  C   UNL     1      -0.191  10.114  21.446  0.00  0.00    +0.000 A 
ATOM      6  C   UNL     1       0.630   9.113  20.896  0.00  0.00    +0.000 A 
ATOM      7  C   UNL     1       1.048   7.954  21.761  0.00  0.00    +0.000 C 
ATOM      8  C   UNL     1       1.074   9.245  19.563  0.00  0.00    +0.000 A 
ATOM      9  C   UNL     1       0.732  10.384  18.822  0.00  0.00    +0.000 A 
BRANCH   3  10
ATOM     10  S   UNL     1      -0.345  12.911  18.532  0.00  0.00    +0.000 S 
ATOM     11  O   UNL     1       0.930  13.397  18.051  0.00  0.00    +0.000 OA
ATOM     12  O   UNL     1      -1.197  13.701  19.392  0.00  0.00    +0.000 OA
BRANCH  10  13
ATOM     13  N   UNL     1      -1.280  12.445  17.198  0.00  0.00    +0.000 NA
ATOM     14  H   UNL     1      -1.484  13.231  16.585  0.00  0.00    +0.000 HD
BRANCH  13  16
ATOM     15  C   UNL     1      -2.273  10.283  16.663  0.00  0.00    +0.000 C 
ATOM     16  C   UNL     1      -2.433  11.568  17.461  0.00  0.00    +0.000 C 
ENDBRANCH  13  16
ENDBRANCH  10  13
ENDBRANCH   3  10
ENDBRANCH   1   8
BRANCH   2  17
ATOM     17  C   UNL     1       3.496   6.435  17.868  0.00  0.00    +0.000 A 
ATOM     18  C   UNL     1       4.796   6.822  17.506  0.00  0.00    +0.000 A 
ATOM     19  C   UNL     1       5.670   5.896  16.933  0.00  0.00    +0.000 A 
ATOM     20 CL   UNL     1       7.274   6.362  16.524  0.00  0.00    +0.000 Cl
ATOM     21  C   UNL     1       5.252   4.595  16.684  0.00  0.00    +0.000 A 
ATOM     22  C   UNL     1       3.961   4.203  17.040  0.00  0.00    +0.000 A 
ATOM     23  C   UNL     1       3.087   5.103  17.671  0.00  0.00    +0.000 A 
BRANCH  23  24
ATOM     24  O   UNL     1       1.835   4.742  18.119  0.00  0.00    +0.000 OA
BRANCH  24  25
ATOM     25  C   UNL     1       1.833   3.806  19.202  0.00  0.00    +0.000 C 
BRANCH  25  26
ATOM     26  C   UNL     1       1.327   2.447  18.755  0.00  0.00    +0.000 C 
ATOM     27  O   UNL     1       0.162   2.222  18.464  0.00  0.00    +0.000 OA
BRANCH  26  28
ATOM     28  O   UNL     1       2.293   1.499  18.707  0.00  0.00    +0.000 OA
ATOM     29  H   UNL     1       3.131   1.859  19.072  0.00  0.00    +0.000 HD
ENDBRANCH  26  28
ENDBRANCH  25  26
ENDBRANCH  24  25
ENDBRANCH  23  24
ENDBRANCH   2  17
TORSDOF 9
ENDMDL
MODEL 5
REMARK VINA RESULT:      -7.3      0.892      1.017
REMARK  Name = 
REMARK  11 active torsions:
REMARK  status: ('A' for Active; 'I' for Inactive)
REMARK    1  A    between atoms: C_1  and  C_2
REMARK    2  A    between atoms: C_2  and  N_3
REMARK    3  A    between atoms: N_3  and  S_4
REMARK    4  A    between atoms: S_4  and  C_7
REMARK    5  A    between atoms: C_10  and  C_11
REMARK    6  A    between atoms: C_12  and  C_13
REMARK    7  A    between atoms: C_14  and  C_15
REMARK    8  A    between atoms: C_21  and  O_22
REMARK    9  A    between atoms: O_22  and  C_23
REMARK   10  A    between atoms: C_23  and  C_24
REMARK   11  A    between atoms: C_24  and  O_26
REMARK                            x       y       z     vdW  Elec       q    Type
REMARK                         _______ _______ _______ _____ _____    ______ ____
ROOT
ATOM      1  C   UNL     1       2.040   8.020  18.503  0.00  0.00    +0.000 C 
ATOM      2  C   UNL     1       1.175   8.849  18.433  0.00  0.00    +0.000 C 
ENDROOT
BRANCH   1   8
ATOM      3  C   UNL     1       5.189   6.142  17.839  0.00  0.00    +0.000 A 
ATOM      4  C   UNL     1       5.110   5.095  18.760  0.00  0.00    +0.000 A 
ATOM      5  C   UNL     1       4.003   5.004  19.603  0.00  0.00    +0.000 A 
ATOM      6  C   UNL     1       2.961   5.946  19.529  0.00  0.00    +0.000 A 
ATOM      7  C   UNL     1       1.744   5.759  20.395  0.00  0.00    +0.000 C 
ATOM      8  C   UNL     1       3.066   7.016  18.615  0.00  0.00    +0.000 A 
ATOM      9  C   UNL     1       4.178   7.104  17.768  0.00  0.00    +0.000 A 
BRANCH   3  10
ATOM     10  S   UNL     1       6.508   6.140  16.641  0.00  0.00    +0.000 S 
ATOM     11  O   UNL     1       5.917   6.101  15.321  0.00  0.00    +0.000 OA
ATOM     12  O   UNL     1       7.452   5.141  17.093  0.00  0.00    +0.000 OA
BRANCH  10  13
ATOM     13  N   UNL     1       7.242   7.651  16.858  0.00  0.00    +0.000 NA
ATOM     14  H   UNL     1       7.688   7.982  16.004  0.00  0.00    +0.000 HD
BRANCH  13  16
ATOM     15  C   UNL     1       8.430   9.302  18.202  0.00  0.00    +0.000 C 
ATOM     16  C   UNL     1       8.052   7.835  18.073  0.00  0.00    +0.000 C 
ENDBRANCH  13  16
ENDBRANCH  10  13
ENDBRANCH   3  10
ENDBRANCH   1   8
BRANCH   2  17
ATOM     17  C   UNL     1       0.152   9.862  18.400  0.00  0.00    +0.000 A 
ATOM     18  C   UNL     1      -0.813   9.803  17.382  0.00  0.00    +0.000 A 
ATOM     19  C   UNL     1      -1.806  10.782  17.300  0.00  0.00    +0.000 A 
ATOM     20 CL   UNL     1      -3.009  10.689  16.075  0.00  0.00    +0.000 Cl
ATOM     21  C   UNL     1      -1.829  11.839  18.201  0.00  0.00    +0.000 A 
ATOM     22  C   UNL     1      -0.872  11.904  19.215  0.00  0.00    +0.000 A 
ATOM     23  C   UNL     1       0.099  10.898  19.350  0.00  0.00    +0.000 A 
BRANCH  23  24
ATOM     24  O   UNL     1       1.011  10.871  20.382  0.00  0.00    +0.000 OA
BRANCH  24  25
ATOM     25  C   UNL     1       0.433  10.894  21.693  0.00  0.00    +0.000 C 
BRANCH  25  26
ATOM     26  C   UNL     1       0.455   9.518  22.329  0.00  0.00    +0.000 C 
ATOM     27  O   UNL     1       1.350   8.705  22.152  0.00  0.00    +0.000 OA
BRANCH  26  28
ATOM     28  O   UNL     1      -0.617   9.270  23.119  0.00  0.00    +0.000 OA
ATOM     29  H   UNL     1      -1.384   9.004  22.566  0.00  0.00    +0.000 HD
ENDBRANCH  26  28
ENDBRANCH  25  26
ENDBRANCH  24  25
ENDBRANCH  23  24
ENDBRANCH   2  17
TORSDOF 9
ENDMDL
MODEL 6
REMARK VINA RESULT:      -7.3      1.459      2.281
REMARK  Name = 
REMARK  11 active torsions:
REMARK  status: ('A' for Active; 'I' for Inactive)
REMARK    1  A    between atoms: C_1  and  C_2
REMARK    2  A    between atoms: C_2  and  N_3
REMARK    3  A    between atoms: N_3  and  S_4
REMARK    4  A    between atoms: S_4  and  C_7
REMARK    5  A    between atoms: C_10  and  C_11
REMARK    6  A    between atoms: C_12  and  C_13
REMARK    7  A    between atoms: C_14  and  C_15
REMARK    8  A    between atoms: C_21  and  O_22
REMARK    9  A    between atoms: O_22  and  C_23
REMARK   10  A    between atoms: C_23  and  C_24
REMARK   11  A    between atoms: C_24  and  O_26
REMARK                            x       y       z     vdW  Elec       q    Type
REMARK                         _______ _______ _______ _____ _____    ______ ____
ROOT
ATOM      1  C   UNL     1       2.044   8.130  18.319  0.00  0.00    +0.000 C 
ATOM      2  C   UNL     1       1.210   8.987  18.224  0.00  0.00    +0.000 C 
ENDROOT
BRANCH   1   8
ATOM      3  C   UNL     1       4.973   5.967  17.523  0.00  0.00    +0.000 A 
ATOM      4  C   UNL     1       4.964   5.055  18.581  0.00  0.00    +0.000 A 
ATOM      5  C   UNL     1       3.978   5.151  19.562  0.00  0.00    +0.000 A 
ATOM      6  C   UNL     1       2.986   6.146  19.493  0.00  0.00    +0.000 A 
ATOM      7  C   UNL     1       1.889   6.157  20.524  0.00  0.00    +0.000 C 
ATOM      8  C   UNL     1       3.023   7.080  18.435  0.00  0.00    +0.000 A 
ATOM      9  C   UNL     1       4.013   6.980  17.450  0.00  0.00    +0.000 A 
BRANCH   3  10
ATOM     10  S   UNL     1       6.116   5.719  16.179  0.00  0.00    +0.000 S 
ATOM     11  O   UNL     1       5.467   6.132  14.954  0.00  0.00    +0.000 OA
ATOM     12  O   UNL     1       6.653   4.388  16.356  0.00  0.00    +0.000 OA
BRANCH  10  13
ATOM     13  N   UNL     1       7.368   6.809  16.518  0.00  0.00    +0.000 NA
ATOM     14  H   UNL     1       8.207   6.602  15.980  0.00  0.00    +0.000 HD
BRANCH  13  16
ATOM     15  C   UNL     1       8.155   8.541  18.043  0.00  0.00    +0.000 C 
ATOM     16  C   UNL     1       7.619   7.122  17.934  0.00  0.00    +0.000 C 
ENDBRANCH  13  16
ENDBRANCH  10  13
ENDBRANCH   3  10
ENDBRANCH   1   8
BRANCH   2  17
ATOM     17  C   UNL     1       0.185   9.997  18.157  0.00  0.00    +0.000 A 
ATOM     18  C   UNL     1      -1.011   9.691  17.487  0.00  0.00    +0.000 A 
ATOM     19  C   UNL     1      -2.017  10.652  17.377  0.00  0.00    +0.000 A 
ATOM     20 CL   UNL     1      -3.496  10.265  16.589  0.00  0.00    +0.000 Cl
ATOM     21  C   UNL     1      -1.834  11.927  17.898  0.00  0.00    +0.000 A 
ATOM     22  C   UNL     1      -0.648  12.238  18.563  0.00  0.00    +0.000 A 
ATOM     23  C   UNL     1       0.353  11.268  18.736  0.00  0.00    +0.000 A 
BRANCH  23  24
ATOM     24  O   UNL     1       1.503  11.499  19.458  0.00  0.00    +0.000 OA
BRANCH  24  25
ATOM     25  C   UNL     1       1.909  12.871  19.518  0.00  0.00    +0.000 C 
BRANCH  25  26
ATOM     26  C   UNL     1       2.609  13.295  18.240  0.00  0.00    +0.000 C 
ATOM     27  O   UNL     1       2.840  14.460  17.950  0.00  0.00    +0.000 OA
BRANCH  26  28
ATOM     28  O   UNL     1       2.957  12.257  17.444  0.00  0.00    +0.000 OA
ATOM     29  H   UNL     1       3.850  12.412  17.064  0.00  0.00    +0.000 HD
ENDBRANCH  26  28
ENDBRANCH  25  26
ENDBRANCH  24  25
ENDBRANCH  23  24
ENDBRANCH   2  17
TORSDOF 9
ENDMDL
MODEL 7
REMARK VINA RESULT:      -7.3      0.905      1.135
REMARK  Name = 
REMARK  11 active torsions:
REMARK  status: ('A' for Active; 'I' for Inactive)
REMARK    1  A    between atoms: C_1  and  C_2
REMARK    2  A    between atoms: C_2  and  N_3
REMARK    3  A    between atoms: N_3  and  S_4
REMARK    4  A    between atoms: S_4  and  C_7
REMARK    5  A    between atoms: C_10  and  C_11
REMARK    6  A    between atoms: C_12  and  C_13
REMARK    7  A    between atoms: C_14  and  C_15
REMARK    8  A    between atoms: C_21  and  O_22
REMARK    9  A    between atoms: O_22  and  C_23
REMARK   10  A    between atoms: C_23  and  C_24
REMARK   11  A    between atoms: C_24  and  O_26
REMARK                            x       y       z     vdW  Elec       q    Type
REMARK                         _______ _______ _______ _____ _____    ______ ____
ROOT
ATOM      1  C   UNL     1       2.012   7.962  18.796  0.00  0.00    +0.000 C 
ATOM      2  C   UNL     1       1.246   8.872  18.957  0.00  0.00    +0.000 C 
ENDROOT
BRANCH   1   8
ATOM      3  C   UNL     1       4.715   5.839  17.356  0.00  0.00    +0.000 A 
ATOM      4  C   UNL     1       4.741   4.754  18.236  0.00  0.00    +0.000 A 
ATOM      5  C   UNL     1       3.853   4.721  19.310  0.00  0.00    +0.000 A 
ATOM      6  C   UNL     1       2.925   5.758  19.512  0.00  0.00    +0.000 A 
ATOM      7  C   UNL     1       1.925   5.637  20.631  0.00  0.00    +0.000 C 
ATOM      8  C   UNL     1       2.927   6.863  18.633  0.00  0.00    +0.000 A 
ATOM      9  C   UNL     1       3.819   6.893  17.553  0.00  0.00    +0.000 A 
BRANCH   3  10
ATOM     10  S   UNL     1       5.718   5.780  15.884  0.00  0.00    +0.000 S 
ATOM     11  O   UNL     1       5.316   6.872  15.023  0.00  0.00    +0.000 OA
ATOM     12  O   UNL     1       5.696   4.403  15.444  0.00  0.00    +0.000 OA
BRANCH  10  13
ATOM     13  N   UNL     1       7.280   6.095  16.457  0.00  0.00    +0.000 NA
ATOM     14  H   UNL     1       7.788   5.237  16.665  0.00  0.00    +0.000 HD
BRANCH  13  16
ATOM     15  C   UNL     1       7.969   6.525  18.756  0.00  0.00    +0.000 C 
ATOM     16  C   UNL     1       7.421   7.144  17.480  0.00  0.00    +0.000 C 
ENDBRANCH  13  16
ENDBRANCH  10  13
ENDBRANCH   3  10
ENDBRANCH   1   8
BRANCH   2  17
ATOM     17  C   UNL     1       0.357   9.979  19.194  0.00  0.00    +0.000 A 
ATOM     18  C   UNL     1      -0.658  10.234  18.257  0.00  0.00    +0.000 A 
ATOM     19  C   UNL     1      -1.523  11.314  18.438  0.00  0.00    +0.000 A 
ATOM     20 CL   UNL     1      -2.789  11.604  17.309  0.00  0.00    +0.000 Cl
ATOM     21  C   UNL     1      -1.369  12.167  19.524  0.00  0.00    +0.000 A 
ATOM     22  C   UNL     1      -0.361  11.920  20.458  0.00  0.00    +0.000 A 
ATOM     23  C   UNL     1       0.482  10.805  20.326  0.00  0.00    +0.000 A 
BRANCH  23  24
ATOM     24  O   UNL     1       1.434  10.470  21.264  0.00  0.00    +0.000 OA
BRANCH  24  25
ATOM     25  C   UNL     1       1.137   9.294  22.026  0.00  0.00    +0.000 C 
BRANCH  25  26
ATOM     26  C   UNL     1      -0.083   9.500  22.905  0.00  0.00    +0.000 C 
ATOM     27  O   UNL     1      -0.260  10.494  23.593  0.00  0.00    +0.000 OA
BRANCH  26  28
ATOM     28  O   UNL     1      -0.964   8.474  22.855  0.00  0.00    +0.000 OA
ATOM     29  H   UNL     1      -0.531   7.680  22.473  0.00  0.00    +0.000 HD
ENDBRANCH  26  28
ENDBRANCH  25  26
ENDBRANCH  24  25
ENDBRANCH  23  24
ENDBRANCH   2  17
TORSDOF 9
ENDMDL
MODEL 8
REMARK VINA RESULT:      -7.3      1.427      1.928
REMARK  Name = 
REMARK  11 active torsions:
REMARK  status: ('A' for Active; 'I' for Inactive)
REMARK    1  A    between atoms: C_1  and  C_2
REMARK    2  A    between atoms: C_2  and  N_3
REMARK    3  A    between atoms: N_3  and  S_4
REMARK    4  A    between atoms: S_4  and  C_7
REMARK    5  A    between atoms: C_10  and  C_11
REMARK    6  A    between atoms: C_12  and  C_13
REMARK    7  A    between atoms: C_14  and  C_15
REMARK    8  A    between atoms: C_21  and  O_22
REMARK    9  A    between atoms: O_22  and  C_23
REMARK   10  A    between atoms: C_23  and  C_24
REMARK   11  A    between atoms: C_24  and  O_26
REMARK                            x       y       z     vdW  Elec       q    Type
REMARK                         _______ _______ _______ _____ _____    ______ ____
ROOT
ATOM      1  C   UNL     1       2.227   7.844  18.613  0.00  0.00    +0.000 C 
ATOM      2  C   UNL     1       1.378   8.688  18.535  0.00  0.00    +0.000 C 
ENDROOT
BRANCH   1   8
ATOM      3  C   UNL     1       5.375   5.992  17.871  0.00  0.00    +0.000 A 
ATOM      4  C   UNL     1       5.281   4.892  18.727  0.00  0.00    +0.000 A 
ATOM      5  C   UNL     1       4.164   4.758  19.551  0.00  0.00    +0.000 A 
ATOM      6  C   UNL     1       3.128   5.708  19.523  0.00  0.00    +0.000 A 
ATOM      7  C   UNL     1       1.900   5.475  20.363  0.00  0.00    +0.000 C 
ATOM      8  C   UNL     1       3.248   6.830  18.675  0.00  0.00    +0.000 A 
ATOM      9  C   UNL     1       4.369   6.962  17.847  0.00  0.00    +0.000 A 
BRANCH   3  10
ATOM     10  S   UNL     1       6.707   6.054  16.690  0.00  0.00    +0.000 S 
ATOM     11  O   UNL     1       7.566   4.912  16.919  0.00  0.00    +0.000 OA
ATOM     12  O   UNL     1       7.205   7.412  16.725  0.00  0.00    +0.000 OA
BRANCH  10  13
ATOM     13  N   UNL     1       5.926   5.849  15.201  0.00  0.00    +0.000 NA
ATOM     14  H   UNL     1       5.267   6.601  15.011  0.00  0.00    +0.000 HD
BRANCH  13  16
ATOM     15  C   UNL     1       6.176   3.940  13.704  0.00  0.00    +0.000 C 
ATOM     16  C   UNL     1       5.414   4.504  14.893  0.00  0.00    +0.000 C 
ENDBRANCH  13  16
ENDBRANCH  10  13
ENDBRANCH   3  10
ENDBRANCH   1   8
BRANCH   2  17
ATOM     17  C   UNL     1       0.332   9.669  18.405  0.00  0.00    +0.000 A 
ATOM     18  C   UNL     1      -0.589   9.529  17.354  0.00  0.00    +0.000 A 
ATOM     19  C   UNL     1      -1.601  10.474  17.178  0.00  0.00    +0.000 A 
ATOM     20 CL   UNL     1      -2.751  10.282  15.913  0.00  0.00    +0.000 Cl
ATOM     21  C   UNL     1      -1.687  11.578  18.017  0.00  0.00    +0.000 A 
ATOM     22  C   UNL     1      -0.775  11.724  19.063  0.00  0.00    +0.000 A 
ATOM     23  C   UNL     1       0.214  10.754  19.292  0.00  0.00    +0.000 A 
BRANCH  23  24
ATOM     24  O   UNL     1       1.083  10.808  20.360  0.00  0.00    +0.000 OA
BRANCH  24  25
ATOM     25  C   UNL     1       0.452  10.826  21.646  0.00  0.00    +0.000 C 
BRANCH  25  26
ATOM     26  C   UNL     1       0.444   9.445  22.275  0.00  0.00    +0.000 C 
ATOM     27  O   UNL     1       1.296   8.597  22.055  0.00  0.00    +0.000 OA
BRANCH  26  28
ATOM     28  O   UNL     1      -0.600   9.238  23.111  0.00  0.00    +0.000 OA
ATOM     29  H   UNL     1      -0.578   9.893  23.842  0.00  0.00    +0.000 HD
ENDBRANCH  26  28
ENDBRANCH  25  26
ENDBRANCH  24  25
ENDBRANCH  23  24
ENDBRANCH   2  17
TORSDOF 9
ENDMDL
MODEL 9
REMARK VINA RESULT:      -7.2      2.762      3.830
REMARK  Name = 
REMARK  11 active torsions:
REMARK  status: ('A' for Active; 'I' for Inactive)
REMARK    1  A    between atoms: C_1  and  C_2
REMARK    2  A    between atoms: C_2  and  N_3
REMARK    3  A    between atoms: N_3  and  S_4
REMARK    4  A    between atoms: S_4  and  C_7
REMARK    5  A    between atoms: C_10  and  C_11
REMARK    6  A    between atoms: C_12  and  C_13
REMARK    7  A    between atoms: C_14  and  C_15
REMARK    8  A    between atoms: C_21  and  O_22
REMARK    9  A    between atoms: O_22  and  C_23
REMARK   10  A    between atoms: C_23  and  C_24
REMARK   11  A    between atoms: C_24  and  O_26
REMARK                            x       y       z     vdW  Elec       q    Type
REMARK                         _______ _______ _______ _____ _____    ______ ____
ROOT
ATOM      1  C   UNL     1       2.592   6.924  18.825  0.00  0.00    +0.000 C 
ATOM      2  C   UNL     1       1.978   7.777  19.403  0.00  0.00    +0.000 C 
ENDROOT
BRANCH   1   8
ATOM      3  C   UNL     1       5.385   5.190  17.071  0.00  0.00    +0.000 A 
ATOM      4  C   UNL     1       4.849   3.920  16.842  0.00  0.00    +0.000 A 
ATOM      5  C   UNL     1       3.551   3.637  17.265  0.00  0.00    +0.000 A 
ATOM      6  C   UNL     1       2.772   4.616  17.907  0.00  0.00    +0.000 A 
ATOM      7  C   UNL     1       1.345   4.294  18.266  0.00  0.00    +0.000 C 
ATOM      8  C   UNL     1       3.334   5.885  18.159  0.00  0.00    +0.000 A 
ATOM      9  C   UNL     1       4.637   6.169  17.731  0.00  0.00    +0.000 A 
BRANCH   3  10
ATOM     10  S   UNL     1       6.966   5.600  16.359  0.00  0.00    +0.000 S 
ATOM     11  O   UNL     1       7.873   4.501  16.614  0.00  0.00    +0.000 OA
ATOM     12  O   UNL     1       7.254   6.951  16.786  0.00  0.00    +0.000 OA
BRANCH  10  13
ATOM     13  N   UNL     1       6.649   5.660  14.696  0.00  0.00    +0.000 NA
ATOM     14  H   UNL     1       5.683   5.919  14.503  0.00  0.00    +0.000 HD
BRANCH  13  16
ATOM     15  C   UNL     1       5.971   3.777  13.304  0.00  0.00    +0.000 C 
ATOM     16  C   UNL     1       7.151   4.545  13.877  0.00  0.00    +0.000 C 
ENDBRANCH  13  16
ENDBRANCH  10  13
ENDBRANCH   3  10
ENDBRANCH   1   8
BRANCH   2  17
ATOM     17  C   UNL     1       1.282   8.806  20.133  0.00  0.00    +0.000 A 
ATOM     18  C   UNL     1       1.033   8.603  21.500  0.00  0.00    +0.000 A 
ATOM     19  C   UNL     1       0.338   9.565  22.235  0.00  0.00    +0.000 A 
ATOM     20 CL   UNL     1       0.065   9.333  23.918  0.00  0.00    +0.000 Cl
ATOM     21  C   UNL     1      -0.143  10.713  21.617  0.00  0.00    +0.000 A 
ATOM     22  C   UNL     1       0.100  10.920  20.259  0.00  0.00    +0.000 A 
ATOM     23  C   UNL     1       0.847   9.992  19.515  0.00  0.00    +0.000 A 
BRANCH  23  24
ATOM     24  O   UNL     1       1.187  10.191  18.195  0.00  0.00    +0.000 OA
BRANCH  24  25
ATOM     25  C   UNL     1       2.343  11.012  17.990  0.00  0.00    +0.000 C 
BRANCH  25  26
ATOM     26  C   UNL     1       2.072  12.453  18.378  0.00  0.00    +0.000 C 
ATOM     27  O   UNL     1       2.713  13.057  19.226  0.00  0.00    +0.000 OA
BRANCH  26  28
ATOM     28  O   UNL     1       1.048  13.014  17.694  0.00  0.00    +0.000 OA
ATOM     29  H   UNL     1       1.237  13.965  17.531  0.00  0.00    +0.000 HD
ENDBRANCH  26  28
ENDBRANCH  25  26
ENDBRANCH  24  25
ENDBRANCH  23  24
ENDBRANCH   2  17
TORSDOF 9
ENDMDL
