MODEL 1
REMARK VINA RESULT:      -9.0      0.000      0.000
REMARK  Name = 
REMARK  2 active torsions:
REMARK  status: ('A' for Active; 'I' for Inactive)
REMARK    1  A    between atoms: N_4  and  C_5
REMARK    2  A    between atoms: C_11  and  C_12
REMARK                            x       y       z     vdW  Elec       q    Type
REMARK                         _______ _______ _______ _____ _____    ______ ____
ROOT
ATOM      1  C   UNL     1       4.405   4.357  18.923  0.00  0.00    +0.000 A 
ATOM      2  N   UNL     1       4.435   3.046  19.326  0.00  0.00    +0.000 NA
ATOM      3  C   UNL     1       3.555   2.581  20.243  0.00  0.00    +0.000 A 
ATOM      4  C   UNL     1       2.586   3.337  20.878  0.00  0.00    +0.000 A 
ATOM      5  C   UNL     1       2.568   4.670  20.492  0.00  0.00    +0.000 A 
ATOM      6  N   UNL     1       1.790   5.729  20.883  0.00  0.00    +0.000 N 
ATOM      7  C   UNL     1       2.174   6.848  20.184  0.00  0.00    +0.000 A 
ATOM      8  N   UNL     1       3.158   6.546  19.358  0.00  0.00    +0.000 NA
ATOM      9  C   UNL     1       3.430   5.197  19.538  0.00  0.00    +0.000 A 
ATOM     10  H   UNL     1       1.038   5.688  21.554  0.00  0.00    +0.000 HD
ENDROOT
BRANCH   1  14
ATOM     11  O   UNL     1       6.374   3.785  14.588  0.00  0.00    +0.000 OA
ATOM     12  C   UNL     1       6.386   4.184  15.753  0.00  0.00    +0.000 C 
ATOM     13  C   UNL     1       5.084   4.450  16.542  0.00  0.00    +0.000 C 
ATOM     14  N   UNL     1       5.300   4.771  17.960  0.00  0.00    +0.000 N 
ATOM     15  C   UNL     1       6.532   5.451  18.331  0.00  0.00    +0.000 C 
ATOM     16  C   UNL     1       7.711   4.650  17.787  0.00  0.00    +0.000 C 
ATOM     17  N   UNL     1       7.595   4.433  16.357  0.00  0.00    +0.000 N 
ATOM     18  H   UNL     1       8.401   4.145  15.820  0.00  0.00    +0.000 HD
ENDBRANCH   1  14
BRANCH   7  19
ATOM     19  C   UNL     1       1.543   8.161  20.321  0.00  0.00    +0.000 A 
ATOM     20  C   UNL     1       1.378   9.023  19.222  0.00  0.00    +0.000 A 
ATOM     21  C   UNL     1       0.776  10.275  19.386  0.00  0.00    +0.000 A 
ATOM     22  C   UNL     1       0.337  10.666  20.645  0.00  0.00    +0.000 A 
ATOM     23  F   UNL     1      -0.234  11.870  20.796  0.00  0.00    +0.000 F 
ATOM     24  C   UNL     1       0.486   9.820  21.734  0.00  0.00    +0.000 A 
ATOM     25  F   UNL     1       0.062  10.203  22.947  0.00  0.00    +0.000 F 
ATOM     26  C   UNL     1       1.078   8.569  21.580  0.00  0.00    +0.000 A 
ENDBRANCH   7  19
TORSDOF 2
ENDMDL
MODEL 2
REMARK VINA RESULT:      -8.9      0.579      1.384
REMARK  Name = 
REMARK  2 active torsions:
REMARK  status: ('A' for Active; 'I' for Inactive)
REMARK    1  A    between atoms: N_4  and  C_5
REMARK    2  A    between atoms: C_11  and  C_12
REMARK                            x       y       z     vdW  Elec       q    Type
REMARK                         _______ _______ _______ _____ _____    ______ ____
ROOT
ATOM      1  C   UNL     1       4.416   4.316  18.932  0.00  0.00    +0.000 A 
ATOM      2  N   UNL     1       4.453   3.002  19.323  0.00  0.00    +0.000 NA
ATOM      3  C   UNL     1       3.578   2.525  20.240  0.00  0.00    +0.000 A 
ATOM      4  C   UNL     1       2.608   3.271  20.884  0.00  0.00    +0.000 A 
ATOM      5  C   UNL     1       2.583   4.607  20.511  0.00  0.00    +0.000 A 
ATOM      6  N   UNL     1       1.802   5.659  20.914  0.00  0.00    +0.000 N 
ATOM      7  C   UNL     1       2.179   6.787  20.224  0.00  0.00    +0.000 A 
ATOM      8  N   UNL     1       3.161   6.496  19.392  0.00  0.00    +0.000 NA
ATOM      9  C   UNL     1       3.440   5.147  19.558  0.00  0.00    +0.000 A 
ATOM     10  H   UNL     1       1.052   5.610  21.587  0.00  0.00    +0.000 HD
ENDROOT
BRANCH   1  14
ATOM     11  O   UNL     1       6.392   3.776  14.597  0.00  0.00    +0.000 OA
ATOM     12  C   UNL     1       6.399   4.173  15.763  0.00  0.00    +0.000 C 
ATOM     13  C   UNL     1       5.094   4.422  16.552  0.00  0.00    +0.000 C 
ATOM     14  N   UNL     1       5.306   4.743  17.970  0.00  0.00    +0.000 N 
ATOM     15  C   UNL     1       6.529   5.437  18.343  0.00  0.00    +0.000 C 
ATOM     16  C   UNL     1       7.718   4.652  17.797  0.00  0.00    +0.000 C 
ATOM     17  N   UNL     1       7.604   4.436  16.367  0.00  0.00    +0.000 N 
ATOM     18  H   UNL     1       8.414   4.159  15.829  0.00  0.00    +0.000 HD
ENDBRANCH   1  14
BRANCH   7  19
ATOM     19  C   UNL     1       1.542   8.095  20.375  0.00  0.00    +0.000 A 
ATOM     20  C   UNL     1       1.042   8.538  21.612  0.00  0.00    +0.000 A 
ATOM     21  C   UNL     1       0.431   9.791  21.723  0.00  0.00    +0.000 A 
ATOM     22  C   UNL     1       0.322  10.605  20.602  0.00  0.00    +0.000 A 
ATOM     23  F   UNL     1      -0.269  11.803  20.715  0.00  0.00    +0.000 F 
ATOM     24  C   UNL     1       0.820  10.182  19.379  0.00  0.00    +0.000 A 
ATOM     25  F   UNL     1       0.710  10.969  18.298  0.00  0.00    +0.000 F 
ATOM     26  C   UNL     1       1.435   8.938  19.258  0.00  0.00    +0.000 A 
ENDBRANCH   7  19
TORSDOF 2
ENDMDL
MODEL 3
REMARK VINA RESULT:      -8.8      1.203      1.580
REMARK  Name = 
REMARK  2 active torsions:
REMARK  status: ('A' for Active; 'I' for Inactive)
REMARK    1  A    between atoms: N_4  and  C_5
REMARK    2  A    between atoms: C_11  and  C_12
REMARK                            x       y       z     vdW  Elec       q    Type
REMARK                         _______ _______ _______ _____ _____    ______ ____
ROOT
ATOM      1  C   UNL     1       4.664   4.080  18.853  0.00  0.00    +0.000 A 
ATOM      2  N   UNL     1       4.691   2.839  19.436  0.00  0.00    +0.000 NA
ATOM      3  C   UNL     1       3.804   2.504  20.402  0.00  0.00    +0.000 A 
ATOM      4  C   UNL     1       2.829   3.340  20.917  0.00  0.00    +0.000 A 
ATOM      5  C   UNL     1       2.813   4.606  20.349  0.00  0.00    +0.000 A 
ATOM      6  N   UNL     1       2.031   5.707  20.582  0.00  0.00    +0.000 N 
ATOM      7  C   UNL     1       2.420   6.719  19.737  0.00  0.00    +0.000 A 
ATOM      8  N   UNL     1       3.411   6.306  18.969  0.00  0.00    +0.000 NA
ATOM      9  C   UNL     1       3.683   4.997  19.337  0.00  0.00    +0.000 A 
ATOM     10  H   UNL     1       1.273   5.759  21.246  0.00  0.00    +0.000 HD
ENDROOT
BRANCH   1  14
ATOM     11  O   UNL     1       7.844   7.064  16.859  0.00  0.00    +0.000 OA
ATOM     12  C   UNL     1       7.030   6.141  16.815  0.00  0.00    +0.000 C 
ATOM     13  C   UNL     1       6.666   5.309  18.065  0.00  0.00    +0.000 C 
ATOM     14  N   UNL     1       5.566   4.358  17.850  0.00  0.00    +0.000 N 
ATOM     15  C   UNL     1       5.397   3.790  16.520  0.00  0.00    +0.000 C 
ATOM     16  C   UNL     1       5.310   4.934  15.513  0.00  0.00    +0.000 C 
ATOM     17  N   UNL     1       6.455   5.819  15.609  0.00  0.00    +0.000 N 
ATOM     18  H   UNL     1       6.663   6.463  14.859  0.00  0.00    +0.000 HD
ENDBRANCH   1  14
BRANCH   7  19
ATOM     19  C   UNL     1       1.786   8.036  19.684  0.00  0.00    +0.000 A 
ATOM     20  C   UNL     1       1.776   8.808  18.509  0.00  0.00    +0.000 A 
ATOM     21  C   UNL     1       1.168  10.068  18.492  0.00  0.00    +0.000 A 
ATOM     22  C   UNL     1       0.567  10.556  19.646  0.00  0.00    +0.000 A 
ATOM     23  F   UNL     1      -0.009  11.767  19.624  0.00  0.00    +0.000 F 
ATOM     24  C   UNL     1       0.563   9.800  20.808  0.00  0.00    +0.000 A 
ATOM     25  F   UNL     1      -0.015  10.276  21.920  0.00  0.00    +0.000 F 
ATOM     26  C   UNL     1       1.161   8.542  20.834  0.00  0.00    +0.000 A 
ENDBRANCH   7  19
TORSDOF 2
ENDMDL
MODEL 4
REMARK VINA RESULT:      -8.6      1.390      2.165
REMARK  Name = 
REMARK  2 active torsions:
REMARK  status: ('A' for Active; 'I' for Inactive)
REMARK    1  A    between atoms: N_4  and  C_5
REMARK    2  A    between atoms: C_11  and  C_12
REMARK                            x       y       z     vdW  Elec       q    Type
REMARK                         _______ _______ _______ _____ _____    ______ ____
ROOT
ATOM      1  C   UNL     1       4.520   4.339  19.024  0.00  0.00    +0.000 A 
ATOM      2  N   UNL     1       4.548   3.019  19.395  0.00  0.00    +0.000 NA
ATOM      3  C   UNL     1       3.630   2.519  20.255  0.00  0.00    +0.000 A 
ATOM      4  C   UNL     1       2.620   3.246  20.859  0.00  0.00    +0.000 A 
ATOM      5  C   UNL     1       2.602   4.587  20.505  0.00  0.00    +0.000 A 
ATOM      6  N   UNL     1       1.789   5.626  20.882  0.00  0.00    +0.000 N 
ATOM      7  C   UNL     1       2.192   6.767  20.231  0.00  0.00    +0.000 A 
ATOM      8  N   UNL     1       3.220   6.499  19.449  0.00  0.00    +0.000 NA
ATOM      9  C   UNL     1       3.503   5.150  19.609  0.00  0.00    +0.000 A 
ATOM     10  H   UNL     1       1.005   5.558  21.513  0.00  0.00    +0.000 HD
ENDROOT
BRANCH   1  14
ATOM     11  O   UNL     1       7.919   7.496  17.813  0.00  0.00    +0.000 OA
ATOM     12  C   UNL     1       7.049   6.667  17.546  0.00  0.00    +0.000 C 
ATOM     13  C   UNL     1       6.610   5.584  18.558  0.00  0.00    +0.000 C 
ATOM     14  N   UNL     1       5.456   4.788  18.118  0.00  0.00    +0.000 N 
ATOM     15  C   UNL     1       5.275   4.570  16.690  0.00  0.00    +0.000 C 
ATOM     16  C   UNL     1       5.278   5.925  15.989  0.00  0.00    +0.000 C 
ATOM     17  N   UNL     1       6.476   6.683  16.297  0.00  0.00    +0.000 N 
ATOM     18  H   UNL     1       6.739   7.474  15.725  0.00  0.00    +0.000 HD
ENDBRANCH   1  14
BRANCH   7  19
ATOM     19  C   UNL     1       1.535   8.068  20.368  0.00  0.00    +0.000 A 
ATOM     20  C   UNL     1       0.986   8.496  21.590  0.00  0.00    +0.000 A 
ATOM     21  C   UNL     1       0.358   9.742  21.688  0.00  0.00    +0.000 A 
ATOM     22  C   UNL     1       0.279  10.561  20.568  0.00  0.00    +0.000 A 
ATOM     23  F   UNL     1      -0.330  11.752  20.668  0.00  0.00    +0.000 F 
ATOM     24  C   UNL     1       0.824  10.153  19.361  0.00  0.00    +0.000 A 
ATOM     25  F   UNL     1       0.743  10.945  18.282  0.00  0.00    +0.000 F 
ATOM     26  C   UNL     1       1.457   8.916  19.254  0.00  0.00    +0.000 A 
ENDBRANCH   7  19
TORSDOF 2
ENDMDL
MODEL 5
REMARK VINA RESULT:      -8.4      2.256      3.836
REMARK  Name = 
REMARK  2 active torsions:
REMARK  status: ('A' for Active; 'I' for Inactive)
REMARK    1  A    between atoms: N_4  and  C_5
REMARK    2  A    between atoms: C_11  and  C_12
REMARK                            x       y       z     vdW  Elec       q    Type
REMARK                         _______ _______ _______ _____ _____    ______ ____
ROOT
ATOM      1  C   UNL     1       4.160   4.344  17.611  0.00  0.00    +0.000 A 
ATOM      2  N   UNL     1       5.248   4.114  16.807  0.00  0.00    +0.000 NA
ATOM      3  C   UNL     1       5.892   5.138  16.201  0.00  0.00    +0.000 A 
ATOM      4  C   UNL     1       5.536   6.472  16.288  0.00  0.00    +0.000 A 
ATOM      5  C   UNL     1       4.421   6.708  17.081  0.00  0.00    +0.000 A 
ATOM      6  N   UNL     1       3.753   7.859  17.407  0.00  0.00    +0.000 N 
ATOM      7  C   UNL     1       2.705   7.547  18.240  0.00  0.00    +0.000 A 
ATOM      8  N   UNL     1       2.683   6.247  18.466  0.00  0.00    +0.000 NA
ATOM      9  C   UNL     1       3.735   5.699  17.747  0.00  0.00    +0.000 A 
ATOM     10  H   UNL     1       4.005   8.789  17.108  0.00  0.00    +0.000 HD
ENDROOT
BRANCH   1  14
ATOM     11  O   UNL     1       0.194   1.882  18.706  0.00  0.00    +0.000 OA
ATOM     12  C   UNL     1       1.358   2.231  18.908  0.00  0.00    +0.000 C 
ATOM     13  C   UNL     1       2.264   2.758  17.772  0.00  0.00    +0.000 C 
ATOM     14  N   UNL     1       3.562   3.269  18.233  0.00  0.00    +0.000 N 
ATOM     15  C   UNL     1       4.153   2.674  19.423  0.00  0.00    +0.000 C 
ATOM     16  C   UNL     1       3.131   2.736  20.554  0.00  0.00    +0.000 C 
ATOM     17  N   UNL     1       1.876   2.115  20.175  0.00  0.00    +0.000 N 
ATOM     18  H   UNL     1       1.202   1.858  20.883  0.00  0.00    +0.000 HD
ENDBRANCH   1  14
BRANCH   7  19
ATOM     19  C   UNL     1       1.789   8.533  18.814  0.00  0.00    +0.000 A 
ATOM     20  C   UNL     1       1.240   9.572  18.043  0.00  0.00    +0.000 A 
ATOM     21  C   UNL     1       0.372  10.504  18.622  0.00  0.00    +0.000 A 
ATOM     22  C   UNL     1       0.051  10.398  19.970  0.00  0.00    +0.000 A 
ATOM     23  F   UNL     1      -0.777  11.298  20.520  0.00  0.00    +0.000 F 
ATOM     24  C   UNL     1       0.580   9.372  20.738  0.00  0.00    +0.000 A 
ATOM     25  F   UNL     1       0.269   9.276  22.039  0.00  0.00    +0.000 F 
ATOM     26  C   UNL     1       1.440   8.436  20.170  0.00  0.00    +0.000 A 
ENDBRANCH   7  19
TORSDOF 2
ENDMDL
MODEL 6
REMARK VINA RESULT:      -8.2      2.309      4.052
REMARK  Name = 
REMARK  2 active torsions:
REMARK  status: ('A' for Active; 'I' for Inactive)
REMARK    1  A    between atoms: N_4  and  C_5
REMARK    2  A    between atoms: C_11  and  C_12
REMARK                            x       y       z     vdW  Elec       q    Type
REMARK                         _______ _______ _______ _____ _____    ______ ____
ROOT
ATOM      1  C   UNL     1       4.032   4.486  17.601  0.00  0.00    +0.000 A 
ATOM      2  N   UNL     1       5.082   4.306  16.737  0.00  0.00    +0.000 NA
ATOM      3  C   UNL     1       5.677   5.363  16.136  0.00  0.00    +0.000 A 
ATOM      4  C   UNL     1       5.301   6.685  16.288  0.00  0.00    +0.000 A 
ATOM      5  C   UNL     1       4.223   6.871  17.142  0.00  0.00    +0.000 A 
ATOM      6  N   UNL     1       3.551   7.997  17.541  0.00  0.00    +0.000 N 
ATOM      7  C   UNL     1       2.551   7.636  18.413  0.00  0.00    +0.000 A 
ATOM      8  N   UNL     1       2.564   6.329  18.593  0.00  0.00    +0.000 NA
ATOM      9  C   UNL     1       3.589   5.826  17.804  0.00  0.00    +0.000 A 
ATOM     10  H   UNL     1       3.771   8.942  17.263  0.00  0.00    +0.000 HD
ENDROOT
BRANCH   1  14
ATOM     11  O   UNL     1       0.177   1.871  18.739  0.00  0.00    +0.000 OA
ATOM     12  C   UNL     1       1.334   2.254  18.918  0.00  0.00    +0.000 C 
ATOM     13  C   UNL     1       2.193   2.835  17.773  0.00  0.00    +0.000 C 
ATOM     14  N   UNL     1       3.485   3.379  18.213  0.00  0.00    +0.000 N 
ATOM     15  C   UNL     1       4.126   2.777  19.373  0.00  0.00    +0.000 C 
ATOM     16  C   UNL     1       3.131   2.781  20.531  0.00  0.00    +0.000 C 
ATOM     17  N   UNL     1       1.888   2.127  20.169  0.00  0.00    +0.000 N 
ATOM     18  H   UNL     1       1.241   1.833  20.888  0.00  0.00    +0.000 HD
ENDBRANCH   1  14
BRANCH   7  19
ATOM     19  C   UNL     1       1.647   8.583  19.065  0.00  0.00    +0.000 A 
ATOM     20  C   UNL     1       1.349   8.499  20.436  0.00  0.00    +0.000 A 
ATOM     21  C   UNL     1       0.474   9.415  21.030  0.00  0.00    +0.000 A 
ATOM     22  C   UNL     1      -0.101  10.417  20.257  0.00  0.00    +0.000 A 
ATOM     23  F   UNL     1      -0.942  11.288  20.832  0.00  0.00    +0.000 F 
ATOM     24  C   UNL     1       0.194  10.514  18.906  0.00  0.00    +0.000 A 
ATOM     25  F   UNL     1      -0.365  11.481  18.163  0.00  0.00    +0.000 F 
ATOM     26  C   UNL     1       1.067   9.610  18.306  0.00  0.00    +0.000 A 
ENDBRANCH   7  19
TORSDOF 2
ENDMDL
MODEL 7
REMARK VINA RESULT:      -8.2      4.666      7.987
REMARK  Name = 
REMARK  2 active torsions:
REMARK  status: ('A' for Active; 'I' for Inactive)
REMARK    1  A    between atoms: N_4  and  C_5
REMARK    2  A    between atoms: C_11  and  C_12
REMARK                            x       y       z     vdW  Elec       q    Type
REMARK                         _______ _______ _______ _____ _____    ______ ____
ROOT
ATOM      1  C   UNL     1      -0.800  10.881  20.925  0.00  0.00    +0.000 A 
ATOM      2  N   UNL     1      -1.237  11.166  22.193  0.00  0.00    +0.000 NA
ATOM      3  C   UNL     1      -0.768  10.480  23.262  0.00  0.00    +0.000 A 
ATOM      4  C   UNL     1       0.142   9.440  23.207  0.00  0.00    +0.000 A 
ATOM      5  C   UNL     1       0.569   9.130  21.924  0.00  0.00    +0.000 A 
ATOM      6  N   UNL     1       1.436   8.181  21.448  0.00  0.00    +0.000 N 
ATOM      7  C   UNL     1       1.522   8.298  20.081  0.00  0.00    +0.000 A 
ATOM      8  N   UNL     1       0.754   9.287  19.667  0.00  0.00    +0.000 NA
ATOM      9  C   UNL     1       0.140   9.816  20.793  0.00  0.00    +0.000 A 
ATOM     10  H   UNL     1       1.950   7.520  22.012  0.00  0.00    +0.000 HD
ENDROOT
BRANCH   1  14
ATOM     11  O   UNL     1      -2.426  11.134  16.422  0.00  0.00    +0.000 OA
ATOM     12  C   UNL     1      -1.895  11.614  17.423  0.00  0.00    +0.000 C 
ATOM     13  C   UNL     1      -2.120  11.024  18.833  0.00  0.00    +0.000 C 
ATOM     14  N   UNL     1      -1.283  11.633  19.877  0.00  0.00    +0.000 N 
ATOM     15  C   UNL     1      -0.898  13.028  19.721  0.00  0.00    +0.000 C 
ATOM     16  C   UNL     1      -0.244  13.201  18.353  0.00  0.00    +0.000 C 
ATOM     17  N   UNL     1      -1.106  12.731  17.286  0.00  0.00    +0.000 N 
ATOM     18  H   UNL     1      -0.925  13.002  16.330  0.00  0.00    +0.000 HD
ENDBRANCH   1  14
BRANCH   7  19
ATOM     19  C   UNL     1       2.378   7.465  19.237  0.00  0.00    +0.000 A 
ATOM     20  C   UNL     1       2.937   7.949  18.042  0.00  0.00    +0.000 A 
ATOM     21  C   UNL     1       3.747   7.126  17.251  0.00  0.00    +0.000 A 
ATOM     22  C   UNL     1       4.000   5.821  17.654  0.00  0.00    +0.000 A 
ATOM     23  F   UNL     1       4.772   5.036  16.889  0.00  0.00    +0.000 F 
ATOM     24  C   UNL     1       3.460   5.335  18.836  0.00  0.00    +0.000 A 
ATOM     25  F   UNL     1       3.705   4.073  19.219  0.00  0.00    +0.000 F 
ATOM     26  C   UNL     1       2.658   6.148  19.632  0.00  0.00    +0.000 A 
ENDBRANCH   7  19
TORSDOF 2
ENDMDL
MODEL 8
REMARK VINA RESULT:      -8.1      1.497      1.832
REMARK  Name = 
REMARK  2 active torsions:
REMARK  status: ('A' for Active; 'I' for Inactive)
REMARK    1  A    between atoms: N_4  and  C_5
REMARK    2  A    between atoms: C_11  and  C_12
REMARK                            x       y       z     vdW  Elec       q    Type
REMARK                         _______ _______ _______ _____ _____    ______ ____
ROOT
ATOM      1  C   UNL     1       4.358   3.662  17.830  0.00  0.00    +0.000 A 
ATOM      2  N   UNL     1       4.147   2.316  17.980  0.00  0.00    +0.000 NA
ATOM      3  C   UNL     1       3.082   1.852  18.675  0.00  0.00    +0.000 A 
ATOM      4  C   UNL     1       2.139   2.637  19.313  0.00  0.00    +0.000 A 
ATOM      5  C   UNL     1       2.361   4.001  19.185  0.00  0.00    +0.000 A 
ATOM      6  N   UNL     1       1.684   5.092  19.666  0.00  0.00    +0.000 N 
ATOM      7  C   UNL     1       2.319   6.235  19.244  0.00  0.00    +0.000 A 
ATOM      8  N   UNL     1       3.367   5.920  18.508  0.00  0.00    +0.000 NA
ATOM      9  C   UNL     1       3.423   4.534  18.464  0.00  0.00    +0.000 A 
ATOM     10  H   UNL     1       0.839   5.061  20.217  0.00  0.00    +0.000 HD
ENDROOT
BRANCH   1  14
ATOM     11  O   UNL     1       7.742   6.937  16.929  0.00  0.00    +0.000 OA
ATOM     12  C   UNL     1       7.001   6.010  16.603  0.00  0.00    +0.000 C 
ATOM     13  C   UNL     1       6.421   5.021  17.640  0.00  0.00    +0.000 C 
ATOM     14  N   UNL     1       5.438   4.081  17.083  0.00  0.00    +0.000 N 
ATOM     15  C   UNL     1       5.580   3.680  15.691  0.00  0.00    +0.000 C 
ATOM     16  C   UNL     1       5.653   4.938  14.830  0.00  0.00    +0.000 C 
ATOM     17  N   UNL     1       6.709   5.828  15.273  0.00  0.00    +0.000 N 
ATOM     18  H   UNL     1       7.040   6.565  14.665  0.00  0.00    +0.000 HD
ENDBRANCH   1  14
BRANCH   7  19
ATOM     19  C   UNL     1       1.858   7.591  19.545  0.00  0.00    +0.000 A 
ATOM     20  C   UNL     1       1.805   8.591  18.558  0.00  0.00    +0.000 A 
ATOM     21  C   UNL     1       1.365   9.880  18.878  0.00  0.00    +0.000 A 
ATOM     22  C   UNL     1       0.978  10.171  20.180  0.00  0.00    +0.000 A 
ATOM     23  F   UNL     1       0.563  11.410  20.480  0.00  0.00    +0.000 F 
ATOM     24  C   UNL     1       1.018   9.190  21.159  0.00  0.00    +0.000 A 
ATOM     25  F   UNL     1       0.646   9.475  22.415  0.00  0.00    +0.000 F 
ATOM     26  C   UNL     1       1.448   7.901  20.850  0.00  0.00    +0.000 A 
ENDBRANCH   7  19
TORSDOF 2
ENDMDL
MODEL 9
REMARK VINA RESULT:      -8.1      1.089      1.232
REMARK  Name = 
REMARK  2 active torsions:
REMARK  status: ('A' for Active; 'I' for Inactive)
REMARK    1  A    between atoms: N_4  and  C_5
REMARK    2  A    between atoms: C_11  and  C_12
REMARK                            x       y       z     vdW  Elec       q    Type
REMARK                         _______ _______ _______ _____ _____    ______ ____
ROOT
ATOM      1  C   UNL     1       3.852   4.693  18.825  0.00  0.00    +0.000 A 
ATOM      2  N   UNL     1       3.937   3.391  19.249  0.00  0.00    +0.000 NA
ATOM      3  C   UNL     1       3.196   2.950  20.291  0.00  0.00    +0.000 A 
ATOM      4  C   UNL     1       2.327   3.723  21.040  0.00  0.00    +0.000 A 
ATOM      5  C   UNL     1       2.256   5.048  20.632  0.00  0.00    +0.000 A 
ATOM      6  N   UNL     1       1.542   6.118  21.105  0.00  0.00    +0.000 N 
ATOM      7  C   UNL     1       1.826   7.221  20.335  0.00  0.00    +0.000 A 
ATOM      8  N   UNL     1       2.682   6.896  19.385  0.00  0.00    +0.000 NA
ATOM      9  C   UNL     1       2.975   5.551  19.553  0.00  0.00    +0.000 A 
ATOM     10  H   UNL     1       0.893   6.095  21.877  0.00  0.00    +0.000 HD
ENDROOT
BRANCH   1  14
ATOM     11  O   UNL     1       7.934   4.462  16.320  0.00  0.00    +0.000 OA
ATOM     12  C   UNL     1       6.895   5.021  16.673  0.00  0.00    +0.000 C 
ATOM     13  C   UNL     1       5.687   4.233  17.225  0.00  0.00    +0.000 C 
ATOM     14  N   UNL     1       4.602   5.082  17.736  0.00  0.00    +0.000 N 
ATOM     15  C   UNL     1       4.405   6.388  17.125  0.00  0.00    +0.000 C 
ATOM     16  C   UNL     1       5.729   7.145  17.161  0.00  0.00    +0.000 C 
ATOM     17  N   UNL     1       6.796   6.385  16.538  0.00  0.00    +0.000 N 
ATOM     18  H   UNL     1       7.654   6.844  16.265  0.00  0.00    +0.000 HD
ENDBRANCH   1  14
BRANCH   7  19
ATOM     19  C   UNL     1       1.221   8.539  20.531  0.00  0.00    +0.000 A 
ATOM     20  C   UNL     1       1.133   9.476  19.487  0.00  0.00    +0.000 A 
ATOM     21  C   UNL     1       0.555  10.731  19.708  0.00  0.00    +0.000 A 
ATOM     22  C   UNL     1       0.064  11.050  20.968  0.00  0.00    +0.000 A 
ATOM     23  F   UNL     1      -0.483  12.257  21.174  0.00  0.00    +0.000 F 
ATOM     24  C   UNL     1       0.138  10.129  22.003  0.00  0.00    +0.000 A 
ATOM     25  F   UNL     1      -0.334  10.442  23.218  0.00  0.00    +0.000 F 
ATOM     26  C   UNL     1       0.706   8.875  21.792  0.00  0.00    +0.000 A 
ENDBRANCH   7  19
TORSDOF 2
ENDMDL
