MODEL 1
REMARK VINA RESULT:      -8.5      0.000      0.000
REMARK  Name = 
REMARK  12 active torsions:
REMARK  status: ('A' for Active; 'I' for Inactive)
REMARK    1  A    between atoms: C_1  and  O_2
REMARK    2  A    between atoms: O_2  and  C_3
REMARK    3  A    between atoms: C_5  and  C_6
REMARK    4  A    between atoms: C_9  and  C_10
REMARK    5  A    between atoms: C_11  and  C_12
REMARK    6  A    between atoms: C_13  and  C_14
REMARK    7  A    between atoms: C_17  and  C_18
REMARK    8  A    between atoms: C_18  and  O_20
REMARK    9  A    between atoms: C_24  and  O_25
REMARK   10  A    between atoms: O_25  and  C_26
REMARK   11  A    between atoms: C_27  and  O_28
REMARK   12  A    between atoms: O_28  and  C_29
REMARK                            x       y       z     vdW  Elec       q    Type
REMARK                         _______ _______ _______ _____ _____    ______ ____
ROOT
ATOM      1  C   UNL     1       3.870   3.454  17.417  0.00  0.00    +0.000 A 
ATOM      2  N   UNL     1       3.937   2.139  17.676  0.00  0.00    +0.000 NA
ATOM      3  O   UNL     1       2.935   1.867  18.588  0.00  0.00    +0.000 OA
ATOM      4  C   UNL     1       2.268   3.009  18.893  0.00  0.00    +0.000 A 
ATOM      5  C   UNL     1       1.167   2.893  19.865  0.00  0.00    +0.000 C 
ATOM      6  C   UNL     1       2.816   4.050  18.181  0.00  0.00    +0.000 A 
ENDROOT
BRANCH   1   9
ATOM      7  C   UNL     1       6.712   5.647  16.302  0.00  0.00    +0.000 A 
ATOM      8  C   UNL     1       5.567   5.210  16.984  0.00  0.00    +0.000 A 
ATOM      9  C   UNL     1       4.838   4.112  16.539  0.00  0.00    +0.000 A 
ATOM     10  C   UNL     1       5.145   3.583  15.286  0.00  0.00    +0.000 A 
ATOM     11  C   UNL     1       6.222   4.073  14.528  0.00  0.00    +0.000 A 
ATOM     12  C   UNL     1       7.042   5.101  15.045  0.00  0.00    +0.000 A 
BRANCH   7  14
ATOM     13  C   UNL     1       7.644   6.530  18.290  0.00  0.00    +0.000 C 
ATOM     14  O   UNL     1       7.496   6.622  16.870  0.00  0.00    +0.000 OA
ENDBRANCH   7  14
BRANCH  11  15
ATOM     15  O   UNL     1       6.340   3.390  13.342  0.00  0.00    +0.000 OA
ATOM     16  C   UNL     1       5.275   3.415  12.405  0.00  0.00    +0.000 C 
ENDBRANCH  11  15
BRANCH  12  17
ATOM     17  O   UNL     1       8.095   5.490  14.261  0.00  0.00    +0.000 OA
ATOM     18  C   UNL     1       7.923   5.669  12.865  0.00  0.00    +0.000 C 
ENDBRANCH  12  17
ENDBRANCH   1   9
BRANCH   6  19
ATOM     19  C   UNL     1       2.341   5.391  18.199  0.00  0.00    +0.000 C 
ATOM     20  C   UNL     1       2.695   6.344  19.079  0.00  0.00    +0.000 C 
BRANCH  20  21
ATOM     21  C   UNL     1       2.192   7.730  19.000  0.00  0.00    +0.000 A 
ATOM     22  C   UNL     1       1.556   8.344  20.090  0.00  0.00    +0.000 A 
ATOM     23  C   UNL     1       1.065   9.648  19.997  0.00  0.00    +0.000 A 
ATOM     24  C   UNL     1       1.210  10.376  18.813  0.00  0.00    +0.000 A 
ATOM     25  C   UNL     1       1.878   9.794  17.730  0.00  0.00    +0.000 A 
ATOM     26  C   UNL     1       2.364   8.479  17.827  0.00  0.00    +0.000 A 
BRANCH  24  27
ATOM     27  C   UNL     1       0.687  11.769  18.801  0.00  0.00    +0.000 C 
ATOM     28  O   UNL     1      -0.356  12.083  19.348  0.00  0.00    +0.000 OA
BRANCH  27  29
ATOM     29  O   UNL     1       1.431  12.643  18.096  0.00  0.00    +0.000 OA
ATOM     30  H   UNL     1       1.931  13.290  18.626  0.00  0.00    +0.000 HD
ENDBRANCH  27  29
ENDBRANCH  24  27
ENDBRANCH  20  21
ENDBRANCH   6  19
TORSDOF 8
ENDMDL
MODEL 2
REMARK VINA RESULT:      -8.3      1.236      2.932
REMARK  Name = 
REMARK  12 active torsions:
REMARK  status: ('A' for Active; 'I' for Inactive)
REMARK    1  A    between atoms: C_1  and  O_2
REMARK    2  A    between atoms: O_2  and  C_3
REMARK    3  A    between atoms: C_5  and  C_6
REMARK    4  A    between atoms: C_9  and  C_10
REMARK    5  A    between atoms: C_11  and  C_12
REMARK    6  A    between atoms: C_13  and  C_14
REMARK    7  A    between atoms: C_17  and  C_18
REMARK    8  A    between atoms: C_18  and  O_20
REMARK    9  A    between atoms: C_24  and  O_25
REMARK   10  A    between atoms: O_25  and  C_26
REMARK   11  A    between atoms: C_27  and  O_28
REMARK   12  A    between atoms: O_28  and  C_29
REMARK                            x       y       z     vdW  Elec       q    Type
REMARK                         _______ _______ _______ _____ _____    ______ ____
ROOT
ATOM      1  C   UNL     1       3.791   3.250  18.083  0.00  0.00    +0.000 A 
ATOM      2  N   UNL     1       3.789   1.908  18.040  0.00  0.00    +0.000 NA
ATOM      3  O   UNL     1       2.504   1.508  18.349  0.00  0.00    +0.000 OA
ATOM      4  C   UNL     1       1.728   2.595  18.591  0.00  0.00    +0.000 A 
ATOM      5  C   UNL     1       0.321   2.340  18.945  0.00  0.00    +0.000 C 
ATOM      6  C   UNL     1       2.490   3.729  18.437  0.00  0.00    +0.000 A 
ENDROOT
BRANCH   1   9
ATOM      7  C   UNL     1       6.381   5.388  16.395  0.00  0.00    +0.000 A 
ATOM      8  C   UNL     1       5.415   4.392  16.596  0.00  0.00    +0.000 A 
ATOM      9  C   UNL     1       5.017   4.021  17.877  0.00  0.00    +0.000 A 
ATOM     10  C   UNL     1       5.747   4.511  18.960  0.00  0.00    +0.000 A 
ATOM     11  C   UNL     1       6.795   5.430  18.782  0.00  0.00    +0.000 A 
ATOM     12  C   UNL     1       7.108   5.904  17.488  0.00  0.00    +0.000 A 
BRANCH   7  14
ATOM     13  C   UNL     1       6.809   4.818  14.139  0.00  0.00    +0.000 C 
ATOM     14  O   UNL     1       6.618   5.842  15.120  0.00  0.00    +0.000 OA
ENDBRANCH   7  14
BRANCH  11  15
ATOM     15  O   UNL     1       7.354   5.780  19.987  0.00  0.00    +0.000 OA
ATOM     16  C   UNL     1       8.575   5.186  20.396  0.00  0.00    +0.000 C 
ENDBRANCH  11  15
BRANCH  12  17
ATOM     17  O   UNL     1       8.113   6.830  17.407  0.00  0.00    +0.000 OA
ATOM     18  C   UNL     1       7.837   8.208  17.597  0.00  0.00    +0.000 C 
ENDBRANCH  12  17
ENDBRANCH   1   9
BRANCH   6  19
ATOM     19  C   UNL     1       2.003   5.062  18.554  0.00  0.00    +0.000 C 
ATOM     20  C   UNL     1       2.710   6.130  18.961  0.00  0.00    +0.000 C 
BRANCH  20  21
ATOM     21  C   UNL     1       2.143   7.493  19.010  0.00  0.00    +0.000 A 
ATOM     22  C   UNL     1       1.565   8.007  20.180  0.00  0.00    +0.000 A 
ATOM     23  C   UNL     1       1.013   9.289  20.207  0.00  0.00    +0.000 A 
ATOM     24  C   UNL     1       1.038  10.095  19.066  0.00  0.00    +0.000 A 
ATOM     25  C   UNL     1       1.648   9.614  17.902  0.00  0.00    +0.000 A 
ATOM     26  C   UNL     1       2.196   8.320  17.878  0.00  0.00    +0.000 A 
BRANCH  24  27
ATOM     27  C   UNL     1       0.456  11.459  19.182  0.00  0.00    +0.000 C 
ATOM     28  O   UNL     1       0.579  12.144  20.183  0.00  0.00    +0.000 OA
BRANCH  27  29
ATOM     29  O   UNL     1      -0.260  11.857  18.112  0.00  0.00    +0.000 OA
ATOM     30  H   UNL     1       0.199  11.797  17.255  0.00  0.00    +0.000 HD
ENDBRANCH  27  29
ENDBRANCH  24  27
ENDBRANCH  20  21
ENDBRANCH   6  19
TORSDOF 8
ENDMDL
MODEL 3
REMARK VINA RESULT:      -7.8      0.598      2.407
REMARK  Name = 
REMARK  12 active torsions:
REMARK  status: ('A' for Active; 'I' for Inactive)
REMARK    1  A    between atoms: C_1  and  O_2
REMARK    2  A    between atoms: O_2  and  C_3
REMARK    3  A    between atoms: C_5  and  C_6
REMARK    4  A    between atoms: C_9  and  C_10
REMARK    5  A    between atoms: C_11  and  C_12
REMARK    6  A    between atoms: C_13  and  C_14
REMARK    7  A    between atoms: C_17  and  C_18
REMARK    8  A    between atoms: C_18  and  O_20
REMARK    9  A    between atoms: C_24  and  O_25
REMARK   10  A    between atoms: O_25  and  C_26
REMARK   11  A    between atoms: C_27  and  O_28
REMARK   12  A    between atoms: O_28  and  C_29
REMARK                            x       y       z     vdW  Elec       q    Type
REMARK                         _______ _______ _______ _____ _____    ______ ____
ROOT
ATOM      1  C   UNL     1       3.724   3.093  17.707  0.00  0.00    +0.000 A 
ATOM      2  N   UNL     1       3.653   1.789  18.019  0.00  0.00    +0.000 NA
ATOM      3  O   UNL     1       2.572   1.646  18.867  0.00  0.00    +0.000 OA
ATOM      4  C   UNL     1       1.992   2.855  19.081  0.00  0.00    +0.000 A 
ATOM      5  C   UNL     1       0.821   2.879  19.975  0.00  0.00    +0.000 C 
ATOM      6  C   UNL     1       2.679   3.811  18.372  0.00  0.00    +0.000 A 
ENDROOT
BRANCH   1   9
ATOM      7  C   UNL     1       5.563   4.356  14.683  0.00  0.00    +0.000 A 
ATOM      8  C   UNL     1       4.721   3.578  15.488  0.00  0.00    +0.000 A 
ATOM      9  C   UNL     1       4.805   3.624  16.876  0.00  0.00    +0.000 A 
ATOM     10  C   UNL     1       5.881   4.301  17.448  0.00  0.00    +0.000 A 
ATOM     11  C   UNL     1       6.808   5.003  16.658  0.00  0.00    +0.000 A 
ATOM     12  C   UNL     1       6.642   5.062  15.256  0.00  0.00    +0.000 A 
BRANCH   7  14
ATOM     13  C   UNL     1       5.485   3.166  12.640  0.00  0.00    +0.000 C 
ATOM     14  O   UNL     1       5.332   4.410  13.329  0.00  0.00    +0.000 OA
ENDBRANCH   7  14
BRANCH  11  15
ATOM     15  O   UNL     1       7.768   5.601  17.438  0.00  0.00    +0.000 OA
ATOM     16  C   UNL     1       7.589   6.939  17.872  0.00  0.00    +0.000 C 
ENDBRANCH  11  15
BRANCH  12  17
ATOM     17  O   UNL     1       7.564   5.802  14.566  0.00  0.00    +0.000 OA
ATOM     18  C   UNL     1       8.075   5.338  13.328  0.00  0.00    +0.000 C 
ENDBRANCH  12  17
ENDBRANCH   1   9
BRANCH   6  19
ATOM     19  C   UNL     1       2.328   5.189  18.306  0.00  0.00    +0.000 C 
ATOM     20  C   UNL     1       2.478   6.092  19.290  0.00  0.00    +0.000 C 
BRANCH  20  21
ATOM     21  C   UNL     1       2.132   7.518  19.126  0.00  0.00    +0.000 A 
ATOM     22  C   UNL     1       1.523   8.250  20.156  0.00  0.00    +0.000 A 
ATOM     23  C   UNL     1       1.181   9.592  19.981  0.00  0.00    +0.000 A 
ATOM     24  C   UNL     1       1.452  10.241  18.774  0.00  0.00    +0.000 A 
ATOM     25  C   UNL     1       2.096   9.538  17.750  0.00  0.00    +0.000 A 
ATOM     26  C   UNL     1       2.433   8.184  17.929  0.00  0.00    +0.000 A 
BRANCH  24  27
ATOM     27  C   UNL     1       1.084  11.679  18.674  0.00  0.00    +0.000 C 
ATOM     28  O   UNL     1       0.124  12.153  19.257  0.00  0.00    +0.000 OA
BRANCH  27  29
ATOM     29  O   UNL     1       1.866  12.403  17.850  0.00  0.00    +0.000 OA
ATOM     30  H   UNL     1       2.466  13.033  18.288  0.00  0.00    +0.000 HD
ENDBRANCH  27  29
ENDBRANCH  24  27
ENDBRANCH  20  21
ENDBRANCH   6  19
TORSDOF 8
ENDMDL
MODEL 4
REMARK VINA RESULT:      -7.7      1.462      3.199
REMARK  Name = 
REMARK  12 active torsions:
REMARK  status: ('A' for Active; 'I' for Inactive)
REMARK    1  A    between atoms: C_1  and  O_2
REMARK    2  A    between atoms: O_2  and  C_3
REMARK    3  A    between atoms: C_5  and  C_6
REMARK    4  A    between atoms: C_9  and  C_10
REMARK    5  A    between atoms: C_11  and  C_12
REMARK    6  A    between atoms: C_13  and  C_14
REMARK    7  A    between atoms: C_17  and  C_18
REMARK    8  A    between atoms: C_18  and  O_20
REMARK    9  A    between atoms: C_24  and  O_25
REMARK   10  A    between atoms: O_25  and  C_26
REMARK   11  A    between atoms: C_27  and  O_28
REMARK   12  A    between atoms: O_28  and  C_29
REMARK                            x       y       z     vdW  Elec       q    Type
REMARK                         _______ _______ _______ _____ _____    ______ ____
ROOT
ATOM      1  C   UNL     1       4.009   3.566  18.995  0.00  0.00    +0.000 A 
ATOM      2  N   UNL     1       3.988   2.224  18.976  0.00  0.00    +0.000 NA
ATOM      3  O   UNL     1       2.888   1.838  19.717  0.00  0.00    +0.000 OA
ATOM      4  C   UNL     1       2.247   2.936  20.196  0.00  0.00    +0.000 A 
ATOM      5  C   UNL     1       1.049   2.696  21.019  0.00  0.00    +0.000 C 
ATOM      6  C   UNL     1       2.913   4.061  19.770  0.00  0.00    +0.000 A 
ENDROOT
BRANCH   1   9
ATOM      7  C   UNL     1       5.896   5.572  16.437  0.00  0.00    +0.000 A 
ATOM      8  C   UNL     1       5.068   4.591  16.999  0.00  0.00    +0.000 A 
ATOM      9  C   UNL     1       5.091   4.325  18.365  0.00  0.00    +0.000 A 
ATOM     10  C   UNL     1       6.100   4.905  19.132  0.00  0.00    +0.000 A 
ATOM     11  C   UNL     1       7.016   5.812  18.572  0.00  0.00    +0.000 A 
ATOM     12  C   UNL     1       6.906   6.180  17.212  0.00  0.00    +0.000 A 
BRANCH   7  14
ATOM     13  C   UNL     1       6.211   4.970  14.171  0.00  0.00    +0.000 C 
ATOM     14  O   UNL     1       5.720   5.921  15.119  0.00  0.00    +0.000 OA
ENDBRANCH   7  14
BRANCH  11  15
ATOM     15  O   UNL     1       7.904   6.263  19.517  0.00  0.00    +0.000 OA
ATOM     16  C   UNL     1       8.476   5.348  20.439  0.00  0.00    +0.000 C 
ENDBRANCH  11  15
BRANCH  12  17
ATOM     17  O   UNL     1       7.810   7.102  16.757  0.00  0.00    +0.000 OA
ATOM     18  C   UNL     1       7.869   8.395  17.333  0.00  0.00    +0.000 C 
ENDBRANCH  12  17
ENDBRANCH   1   9
BRANCH   6  19
ATOM     19  C   UNL     1       2.501   5.399  20.029  0.00  0.00    +0.000 C 
ATOM     20  C   UNL     1       2.394   6.383  19.120  0.00  0.00    +0.000 C 
BRANCH  20  21
ATOM     21  C   UNL     1       1.912   7.737  19.461  0.00  0.00    +0.000 A 
ATOM     22  C   UNL     1       1.829   8.752  18.496  0.00  0.00    +0.000 A 
ATOM     23  C   UNL     1       1.393  10.034  18.836  0.00  0.00    +0.000 A 
ATOM     24  C   UNL     1       1.014  10.329  20.148  0.00  0.00    +0.000 A 
ATOM     25  C   UNL     1       1.051   9.317  21.114  0.00  0.00    +0.000 A 
ATOM     26  C   UNL     1       1.498   8.030  20.768  0.00  0.00    +0.000 A 
BRANCH  24  27
ATOM     27  C   UNL     1       0.533  11.709  20.425  0.00  0.00    +0.000 C 
ATOM     28  O   UNL     1       0.853  12.328  21.425  0.00  0.00    +0.000 OA
BRANCH  27  29
ATOM     29  O   UNL     1      -0.323  12.201  19.508  0.00  0.00    +0.000 OA
ATOM     30  H   UNL     1      -0.053  13.039  19.090  0.00  0.00    +0.000 HD
ENDBRANCH  27  29
ENDBRANCH  24  27
ENDBRANCH  20  21
ENDBRANCH   6  19
TORSDOF 8
ENDMDL
MODEL 5
REMARK VINA RESULT:      -7.4      0.684      1.264
REMARK  Name = 
REMARK  12 active torsions:
REMARK  status: ('A' for Active; 'I' for Inactive)
REMARK    1  A    between atoms: C_1  and  O_2
REMARK    2  A    between atoms: O_2  and  C_3
REMARK    3  A    between atoms: C_5  and  C_6
REMARK    4  A    between atoms: C_9  and  C_10
REMARK    5  A    between atoms: C_11  and  C_12
REMARK    6  A    between atoms: C_13  and  C_14
REMARK    7  A    between atoms: C_17  and  C_18
REMARK    8  A    between atoms: C_18  and  O_20
REMARK    9  A    between atoms: C_24  and  O_25
REMARK   10  A    between atoms: O_25  and  C_26
REMARK   11  A    between atoms: C_27  and  O_28
REMARK   12  A    between atoms: O_28  and  C_29
REMARK                            x       y       z     vdW  Elec       q    Type
REMARK                         _______ _______ _______ _____ _____    ______ ____
ROOT
ATOM      1  C   UNL     1       4.072   3.873  17.850  0.00  0.00    +0.000 A 
ATOM      2  N   UNL     1       3.944   2.554  18.064  0.00  0.00    +0.000 NA
ATOM      3  O   UNL     1       3.062   2.411  19.117  0.00  0.00    +0.000 OA
ATOM      4  C   UNL     1       2.661   3.634  19.552  0.00  0.00    +0.000 A 
ATOM      5  C   UNL     1       1.718   3.658  20.683  0.00  0.00    +0.000 C 
ATOM      6  C   UNL     1       3.270   4.600  18.786  0.00  0.00    +0.000 A 
ENDROOT
BRANCH   1   9
ATOM      7  C   UNL     1       6.892   5.833  16.322  0.00  0.00    +0.000 A 
ATOM      8  C   UNL     1       5.785   5.512  17.121  0.00  0.00    +0.000 A 
ATOM      9  C   UNL     1       4.996   4.400  16.845  0.00  0.00    +0.000 A 
ATOM     10  C   UNL     1       5.200   3.731  15.639  0.00  0.00    +0.000 A 
ATOM     11  C   UNL     1       6.236   4.100  14.763  0.00  0.00    +0.000 A 
ATOM     12  C   UNL     1       7.118   5.147  15.111  0.00  0.00    +0.000 A 
BRANCH   7  14
ATOM     13  C   UNL     1       7.745   7.090  18.136  0.00  0.00    +0.000 C 
ATOM     14  O   UNL     1       7.741   6.834  16.729  0.00  0.00    +0.000 OA
ENDBRANCH   7  14
BRANCH  11  15
ATOM     15  O   UNL     1       6.252   3.292  13.652  0.00  0.00    +0.000 OA
ATOM     16  C   UNL     1       5.297   3.491  12.622  0.00  0.00    +0.000 C 
ENDBRANCH  11  15
BRANCH  12  17
ATOM     17  O   UNL     1       8.126   5.413  14.223  0.00  0.00    +0.000 OA
ATOM     18  C   UNL     1       7.828   5.728  12.874  0.00  0.00    +0.000 C 
ENDBRANCH  12  17
ENDBRANCH   1   9
BRANCH   6  19
ATOM     19  C   UNL     1       3.048   6.000  18.911  0.00  0.00    +0.000 C 
ATOM     20  C   UNL     1       1.998   6.682  18.422  0.00  0.00    +0.000 C 
BRANCH  20  21
ATOM     21  C   UNL     1       1.816   8.132  18.637  0.00  0.00    +0.000 A 
ATOM     22  C   UNL     1       2.230   9.073  17.683  0.00  0.00    +0.000 A 
ATOM     23  C   UNL     1       2.072  10.443  17.907  0.00  0.00    +0.000 A 
ATOM     24  C   UNL     1       1.482  10.904  19.087  0.00  0.00    +0.000 A 
ATOM     25  C   UNL     1       1.026   9.977  20.031  0.00  0.00    +0.000 A 
ATOM     26  C   UNL     1       1.194   8.600  19.803  0.00  0.00    +0.000 A 
BRANCH  24  27
ATOM     27  C   UNL     1       1.323  12.375  19.240  0.00  0.00    +0.000 C 
ATOM     28  O   UNL     1       2.261  13.149  19.159  0.00  0.00    +0.000 OA
BRANCH  27  29
ATOM     29  O   UNL     1       0.069  12.778  19.524  0.00  0.00    +0.000 OA
ATOM     30  H   UNL     1      -0.562  12.736  18.783  0.00  0.00    +0.000 HD
ENDBRANCH  27  29
ENDBRANCH  24  27
ENDBRANCH  20  21
ENDBRANCH   6  19
TORSDOF 8
ENDMDL
MODEL 6
REMARK VINA RESULT:      -7.3      2.141      7.334
REMARK  Name = 
REMARK  12 active torsions:
REMARK  status: ('A' for Active; 'I' for Inactive)
REMARK    1  A    between atoms: C_1  and  O_2
REMARK    2  A    between atoms: O_2  and  C_3
REMARK    3  A    between atoms: C_5  and  C_6
REMARK    4  A    between atoms: C_9  and  C_10
REMARK    5  A    between atoms: C_11  and  C_12
REMARK    6  A    between atoms: C_13  and  C_14
REMARK    7  A    between atoms: C_17  and  C_18
REMARK    8  A    between atoms: C_18  and  O_20
REMARK    9  A    between atoms: C_24  and  O_25
REMARK   10  A    between atoms: O_25  and  C_26
REMARK   11  A    between atoms: C_27  and  O_28
REMARK   12  A    between atoms: O_28  and  C_29
REMARK                            x       y       z     vdW  Elec       q    Type
REMARK                         _______ _______ _______ _____ _____    ______ ____
ROOT
ATOM      1  C   UNL     1       2.758   4.587  20.430  0.00  0.00    +0.000 A 
ATOM      2  N   UNL     1       2.237   3.901  21.460  0.00  0.00    +0.000 NA
ATOM      3  O   UNL     1       2.879   2.678  21.481  0.00  0.00    +0.000 OA
ATOM      4  C   UNL     1       3.777   2.611  20.466  0.00  0.00    +0.000 A 
ATOM      5  C   UNL     1       4.546   1.360  20.343  0.00  0.00    +0.000 C 
ATOM      6  C   UNL     1       3.745   3.793  19.764  0.00  0.00    +0.000 A 
ENDROOT
BRANCH   1   9
ATOM      7  C   UNL     1       1.363   8.060  20.769  0.00  0.00    +0.000 A 
ATOM      8  C   UNL     1       1.562   6.689  20.980  0.00  0.00    +0.000 A 
ATOM      9  C   UNL     1       2.257   5.911  20.060  0.00  0.00    +0.000 A 
ATOM     10  C   UNL     1       2.571   6.476  18.824  0.00  0.00    +0.000 A 
ATOM     11  C   UNL     1       2.286   7.823  18.541  0.00  0.00    +0.000 A 
ATOM     12  C   UNL     1       1.699   8.645  19.530  0.00  0.00    +0.000 A 
BRANCH   7  14
ATOM     13  C   UNL     1      -0.599   8.751  21.896  0.00  0.00    +0.000 C 
ATOM     14  O   UNL     1       0.825   8.821  21.779  0.00  0.00    +0.000 OA
ENDBRANCH   7  14
BRANCH  11  15
ATOM     15  O   UNL     1       2.698   8.159  17.275  0.00  0.00    +0.000 OA
ATOM     16  C   UNL     1       3.870   7.569  16.736  0.00  0.00    +0.000 C 
ENDBRANCH  11  15
BRANCH  12  17
ATOM     17  O   UNL     1       1.494   9.955  19.188  0.00  0.00    +0.000 OA
ATOM     18  C   UNL     1       0.269  10.360  18.600  0.00  0.00    +0.000 C 
ENDBRANCH  12  17
ENDBRANCH   1   9
BRANCH   6  19
ATOM     19  C   UNL     1       4.591   4.112  18.664  0.00  0.00    +0.000 C 
ATOM     20  C   UNL     1       4.457   3.660  17.406  0.00  0.00    +0.000 C 
BRANCH  20  21
ATOM     21  C   UNL     1       5.351   4.078  16.307  0.00  0.00    +0.000 A 
ATOM     22  C   UNL     1       5.080   3.744  14.972  0.00  0.00    +0.000 A 
ATOM     23  C   UNL     1       5.945   4.127  13.944  0.00  0.00    +0.000 A 
ATOM     24  C   UNL     1       7.096   4.867  14.226  0.00  0.00    +0.000 A 
ATOM     25  C   UNL     1       7.360   5.244  15.547  0.00  0.00    +0.000 A 
ATOM     26  C   UNL     1       6.490   4.850  16.579  0.00  0.00    +0.000 A 
BRANCH  24  27
ATOM     27  C   UNL     1       7.952   5.261  13.075  0.00  0.00    +0.000 C 
ATOM     28  O   UNL     1       8.915   5.999  13.195  0.00  0.00    +0.000 OA
BRANCH  27  29
ATOM     29  O   UNL     1       7.549   4.779  11.883  0.00  0.00    +0.000 OA
ATOM     30  H   UNL     1       8.215   4.265  11.392  0.00  0.00    +0.000 HD
ENDBRANCH  27  29
ENDBRANCH  24  27
ENDBRANCH  20  21
ENDBRANCH   6  19
TORSDOF 8
ENDMDL
MODEL 7
REMARK VINA RESULT:      -7.2      1.903      3.053
REMARK  Name = 
REMARK  12 active torsions:
REMARK  status: ('A' for Active; 'I' for Inactive)
REMARK    1  A    between atoms: C_1  and  O_2
REMARK    2  A    between atoms: O_2  and  C_3
REMARK    3  A    between atoms: C_5  and  C_6
REMARK    4  A    between atoms: C_9  and  C_10
REMARK    5  A    between atoms: C_11  and  C_12
REMARK    6  A    between atoms: C_13  and  C_14
REMARK    7  A    between atoms: C_17  and  C_18
REMARK    8  A    between atoms: C_18  and  O_20
REMARK    9  A    between atoms: C_24  and  O_25
REMARK   10  A    between atoms: O_25  and  C_26
REMARK   11  A    between atoms: C_27  and  O_28
REMARK   12  A    between atoms: O_28  and  C_29
REMARK                            x       y       z     vdW  Elec       q    Type
REMARK                         _______ _______ _______ _____ _____    ______ ____
ROOT
ATOM      1  C   UNL     1       4.225   3.607  19.096  0.00  0.00    +0.000 A 
ATOM      2  N   UNL     1       4.415   2.321  19.432  0.00  0.00    +0.000 NA
ATOM      3  O   UNL     1       3.268   1.913  20.085  0.00  0.00    +0.000 OA
ATOM      4  C   UNL     1       2.387   2.944  20.159  0.00  0.00    +0.000 A 
ATOM      5  C   UNL     1       1.108   2.675  20.837  0.00  0.00    +0.000 C 
ATOM      6  C   UNL     1       2.939   4.045  19.549  0.00  0.00    +0.000 A 
ENDROOT
BRANCH   1   9
ATOM      7  C   UNL     1       5.957   5.801  16.584  0.00  0.00    +0.000 A 
ATOM      8  C   UNL     1       5.145   4.793  17.122  0.00  0.00    +0.000 A 
ATOM      9  C   UNL     1       5.275   4.393  18.448  0.00  0.00    +0.000 A 
ATOM     10  C   UNL     1       6.367   4.866  19.174  0.00  0.00    +0.000 A 
ATOM     11  C   UNL     1       7.264   5.798  18.623  0.00  0.00    +0.000 A 
ATOM     12  C   UNL     1       7.051   6.301  17.320  0.00  0.00    +0.000 A 
BRANCH   7  14
ATOM     13  C   UNL     1       4.558   7.166  15.251  0.00  0.00    +0.000 C 
ATOM     14  O   UNL     1       5.681   6.282  15.327  0.00  0.00    +0.000 OA
ENDBRANCH   7  14
BRANCH  11  15
ATOM     15  O   UNL     1       8.247   6.128  19.524  0.00  0.00    +0.000 OA
ATOM     16  C   UNL     1       8.517   5.267  20.619  0.00  0.00    +0.000 C 
ENDBRANCH  11  15
BRANCH  12  17
ATOM     17  O   UNL     1       7.946   7.237  16.876  0.00  0.00    +0.000 OA
ATOM     18  C   UNL     1       7.964   8.537  17.440  0.00  0.00    +0.000 C 
ENDBRANCH  12  17
ENDBRANCH   1   9
BRANCH   6  19
ATOM     19  C   UNL     1       2.285   5.299  19.381  0.00  0.00    +0.000 C 
ATOM     20  C   UNL     1       2.653   6.464  19.940  0.00  0.00    +0.000 C 
BRANCH  20  21
ATOM     21  C   UNL     1       1.947   7.734  19.677  0.00  0.00    +0.000 A 
ATOM     22  C   UNL     1       1.301   8.442  20.701  0.00  0.00    +0.000 A 
ATOM     23  C   UNL     1       0.619   9.631  20.435  0.00  0.00    +0.000 A 
ATOM     24  C   UNL     1       0.578  10.150  19.139  0.00  0.00    +0.000 A 
ATOM     25  C   UNL     1       1.251   9.478  18.112  0.00  0.00    +0.000 A 
ATOM     26  C   UNL     1       1.931   8.278  18.384  0.00  0.00    +0.000 A 
BRANCH  24  27
ATOM     27  C   UNL     1      -0.144  11.435  18.940  0.00  0.00    +0.000 C 
ATOM     28  O   UNL     1      -0.349  12.221  19.850  0.00  0.00    +0.000 OA
BRANCH  27  29
ATOM     29  O   UNL     1      -0.597  11.639  17.688  0.00  0.00    +0.000 OA
ATOM     30  H   UNL     1      -1.560  11.764  17.605  0.00  0.00    +0.000 HD
ENDBRANCH  27  29
ENDBRANCH  24  27
ENDBRANCH  20  21
ENDBRANCH   6  19
TORSDOF 8
ENDMDL
MODEL 8
REMARK VINA RESULT:      -7.2      1.160      1.187
REMARK  Name = 
REMARK  12 active torsions:
REMARK  status: ('A' for Active; 'I' for Inactive)
REMARK    1  A    between atoms: C_1  and  O_2
REMARK    2  A    between atoms: O_2  and  C_3
REMARK    3  A    between atoms: C_5  and  C_6
REMARK    4  A    between atoms: C_9  and  C_10
REMARK    5  A    between atoms: C_11  and  C_12
REMARK    6  A    between atoms: C_13  and  C_14
REMARK    7  A    between atoms: C_17  and  C_18
REMARK    8  A    between atoms: C_18  and  O_20
REMARK    9  A    between atoms: C_24  and  O_25
REMARK   10  A    between atoms: O_25  and  C_26
REMARK   11  A    between atoms: C_27  and  O_28
REMARK   12  A    between atoms: O_28  and  C_29
REMARK                            x       y       z     vdW  Elec       q    Type
REMARK                         _______ _______ _______ _____ _____    ______ ____
ROOT
ATOM      1  C   UNL     1       3.959   3.791  18.547  0.00  0.00    +0.000 A 
ATOM      2  N   UNL     1       4.355   2.591  19.001  0.00  0.00    +0.000 NA
ATOM      3  O   UNL     1       3.621   2.342  20.144  0.00  0.00    +0.000 OA
ATOM      4  C   UNL     1       2.791   3.386  20.395  0.00  0.00    +0.000 A 
ATOM      5  C   UNL     1       1.939   3.281  21.593  0.00  0.00    +0.000 C 
ATOM      6  C   UNL     1       2.960   4.336  19.416  0.00  0.00    +0.000 A 
ENDROOT
BRANCH   1   9
ATOM      7  C   UNL     1       5.994   6.180  16.479  0.00  0.00    +0.000 A 
ATOM      8  C   UNL     1       5.116   5.695  17.458  0.00  0.00    +0.000 A 
ATOM      9  C   UNL     1       4.583   4.413  17.379  0.00  0.00    +0.000 A 
ATOM     10  C   UNL     1       4.773   3.694  16.200  0.00  0.00    +0.000 A 
ATOM     11  C   UNL     1       5.560   4.200  15.151  0.00  0.00    +0.000 A 
ATOM     12  C   UNL     1       6.208   5.448  15.292  0.00  0.00    +0.000 A 
BRANCH   7  14
ATOM     13  C   UNL     1       7.674   7.353  17.660  0.00  0.00    +0.000 C 
ATOM     14  O   UNL     1       6.629   7.381  16.684  0.00  0.00    +0.000 OA
ENDBRANCH   7  14
BRANCH  11  15
ATOM     15  O   UNL     1       5.615   3.313  14.104  0.00  0.00    +0.000 OA
ATOM     16  C   UNL     1       4.960   3.623  12.884  0.00  0.00    +0.000 C 
ENDBRANCH  11  15
BRANCH  12  17
ATOM     17  O   UNL     1       6.991   5.847  14.242  0.00  0.00    +0.000 OA
ATOM     18  C   UNL     1       8.137   5.098  13.876  0.00  0.00    +0.000 C 
ENDBRANCH  12  17
ENDBRANCH   1   9
BRANCH   6  19
ATOM     19  C   UNL     1       2.218   5.546  19.315  0.00  0.00    +0.000 C 
ATOM     20  C   UNL     1       2.661   6.775  19.631  0.00  0.00    +0.000 C 
BRANCH  20  21
ATOM     21  C   UNL     1       1.842   7.991  19.452  0.00  0.00    +0.000 A 
ATOM     22  C   UNL     1       1.109   8.546  20.512  0.00  0.00    +0.000 A 
ATOM     23  C   UNL     1       0.321   9.683  20.325  0.00  0.00    +0.000 A 
ATOM     24  C   UNL     1       0.257  10.302  19.074  0.00  0.00    +0.000 A 
ATOM     25  C   UNL     1       1.014   9.786  18.016  0.00  0.00    +0.000 A 
ATOM     26  C   UNL     1       1.800   8.637  18.208  0.00  0.00    +0.000 A 
BRANCH  24  27
ATOM     27  C   UNL     1      -0.581  11.526  18.961  0.00  0.00    +0.000 C 
ATOM     28  O   UNL     1      -0.934  12.173  19.932  0.00  0.00    +0.000 OA
BRANCH  27  29
ATOM     29  O   UNL     1      -0.960  11.834  17.705  0.00  0.00    +0.000 OA
ATOM     30  H   UNL     1      -0.979  11.087  17.079  0.00  0.00    +0.000 HD
ENDBRANCH  27  29
ENDBRANCH  24  27
ENDBRANCH  20  21
ENDBRANCH   6  19
TORSDOF 8
ENDMDL
MODEL 9
REMARK VINA RESULT:      -7.2      3.970      9.399
REMARK  Name = 
REMARK  12 active torsions:
REMARK  status: ('A' for Active; 'I' for Inactive)
REMARK    1  A    between atoms: C_1  and  O_2
REMARK    2  A    between atoms: O_2  and  C_3
REMARK    3  A    between atoms: C_5  and  C_6
REMARK    4  A    between atoms: C_9  and  C_10
REMARK    5  A    between atoms: C_11  and  C_12
REMARK    6  A    between atoms: C_13  and  C_14
REMARK    7  A    between atoms: C_17  and  C_18
REMARK    8  A    between atoms: C_18  and  O_20
REMARK    9  A    between atoms: C_24  and  O_25
REMARK   10  A    between atoms: O_25  and  C_26
REMARK   11  A    between atoms: C_27  and  O_28
REMARK   12  A    between atoms: O_28  and  C_29
REMARK                            x       y       z     vdW  Elec       q    Type
REMARK                         _______ _______ _______ _____ _____    ______ ____
ROOT
ATOM      1  C   UNL     1      -0.242  12.071  18.636  0.00  0.00    +0.000 A 
ATOM      2  N   UNL     1      -1.311  12.778  18.236  0.00  0.00    +0.000 NA
ATOM      3  O   UNL     1      -2.170  11.882  17.631  0.00  0.00    +0.000 OA
ATOM      4  C   UNL     1      -1.627  10.638  17.650  0.00  0.00    +0.000 A 
ATOM      5  C   UNL     1      -2.419   9.560  17.033  0.00  0.00    +0.000 C 
ATOM      6  C   UNL     1      -0.404  10.696  18.275  0.00  0.00    +0.000 A 
ENDROOT
BRANCH   1   9
ATOM      7  C   UNL     1       3.076  13.802  18.987  0.00  0.00    +0.000 A 
ATOM      8  C   UNL     1       2.089  12.912  18.539  0.00  0.00    +0.000 A 
ATOM      9  C   UNL     1       0.914  12.717  19.258  0.00  0.00    +0.000 A 
ATOM     10  C   UNL     1       0.828  13.263  20.538  0.00  0.00    +0.000 A 
ATOM     11  C   UNL     1       1.852  14.072  21.060  0.00  0.00    +0.000 A 
ATOM     12  C   UNL     1       2.985  14.376  20.272  0.00  0.00    +0.000 A 
BRANCH   7  14
ATOM     13  C   UNL     1       4.027  15.328  17.450  0.00  0.00    +0.000 C 
ATOM     14  O   UNL     1       4.137  14.093  18.164  0.00  0.00    +0.000 OA
ENDBRANCH   7  14
BRANCH  11  15
ATOM     15  O   UNL     1       1.540  14.507  22.325  0.00  0.00    +0.000 OA
ATOM     16  C   UNL     1       0.416  15.350  22.523  0.00  0.00    +0.000 C 
ENDBRANCH  11  15
BRANCH  12  17
ATOM     17  O   UNL     1       3.914  15.206  20.840  0.00  0.00    +0.000 OA
ATOM     18  C   UNL     1       5.027  14.668  21.535  0.00  0.00    +0.000 C 
ENDBRANCH  12  17
ENDBRANCH   1   9
BRANCH   6  19
ATOM     19  C   UNL     1       0.436   9.575  18.532  0.00  0.00    +0.000 C 
ATOM     20  C   UNL     1       1.524   9.222  17.826  0.00  0.00    +0.000 C 
BRANCH  20  21
ATOM     21  C   UNL     1       2.371   8.069  18.188  0.00  0.00    +0.000 A 
ATOM     22  C   UNL     1       2.145   7.329  19.358  0.00  0.00    +0.000 A 
ATOM     23  C   UNL     1       2.967   6.253  19.700  0.00  0.00    +0.000 A 
ATOM     24  C   UNL     1       4.029   5.881  18.871  0.00  0.00    +0.000 A 
ATOM     25  C   UNL     1       4.244   6.583  17.679  0.00  0.00    +0.000 A 
ATOM     26  C   UNL     1       3.418   7.669  17.343  0.00  0.00    +0.000 A 
BRANCH  24  27
ATOM     27  C   UNL     1       4.842   4.707  19.288  0.00  0.00    +0.000 C 
ATOM     28  O   UNL     1       4.398   3.572  19.300  0.00  0.00    +0.000 OA
BRANCH  27  29
ATOM     29  O   UNL     1       6.090   5.005  19.700  0.00  0.00    +0.000 OA
ATOM     30  H   UNL     1       6.499   5.779  19.270  0.00  0.00    +0.000 HD
ENDBRANCH  27  29
ENDBRANCH  24  27
ENDBRANCH  20  21
ENDBRANCH   6  19
TORSDOF 8
ENDMDL
