MODEL 1
REMARK VINA RESULT:      -7.3      0.000      0.000
REMARK  Name = 
REMARK  4 active torsions:
REMARK  status: ('A' for Active; 'I' for Inactive)
REMARK    1  A    between atoms: C_2  and  C_3
REMARK    2  A    between atoms: N_5  and  C_6
REMARK    3  A    between atoms: C_11  and  O_12
REMARK    4  A    between atoms: O_12  and  C_13
REMARK                            x       y       z     vdW  Elec       q    Type
REMARK                         _______ _______ _______ _____ _____    ______ ____
ROOT
ATOM      1  C   UNL     1       6.385   4.556  17.005  0.00  0.00    +0.000 A 
ATOM      2  C   UNL     1       7.361   4.393  16.016  0.00  0.00    +0.000 A 
ATOM      3  C   UNL     1       6.993   4.287  14.675  0.00  0.00    +0.000 A 
ATOM      4  C   UNL     1       5.652   4.399  14.313  0.00  0.00    +0.000 A 
ATOM      5  C   UNL     1       4.684   4.654  15.287  0.00  0.00    +0.000 A 
ATOM      6  C   UNL     1       5.046   4.760  16.636  0.00  0.00    +0.000 A 
ENDROOT
BRANCH   1   9
ATOM      7  O   UNL     1       7.846   5.381  20.154  0.00  0.00    +0.000 OA
ATOM      8  C   UNL     1       7.503   5.555  18.978  0.00  0.00    +0.000 C 
ATOM      9  N   UNL     1       6.846   4.543  18.331  0.00  0.00    +0.000 N 
ATOM     10  H   UNL     1       6.441   3.877  18.975  0.00  0.00    +0.000 HD
BRANCH   8  11
ATOM     11  C   UNL     1       7.702   6.888  18.289  0.00  0.00    +0.000 C 
ATOM     12  F   UNL     1       8.693   7.626  18.871  0.00  0.00    +0.000 F 
ENDBRANCH   8  11
ENDBRANCH   1   9
BRANCH   6  13
ATOM     13  O   UNL     1       4.006   5.041  17.500  0.00  0.00    +0.000 OA
BRANCH  13  14
ATOM     14  C   UNL     1       3.187   4.035  17.969  0.00  0.00    +0.000 A 
ATOM     15  C   UNL     1       3.601   2.751  18.331  0.00  0.00    +0.000 A 
ATOM     16  C   UNL     1       2.670   1.796  18.745  0.00  0.00    +0.000 A 
ATOM     17  C   UNL     1       1.323   2.134  18.859  0.00  0.00    +0.000 A 
ATOM     18  C   UNL     1       0.905   3.426  18.546  0.00  0.00    +0.000 A 
ATOM     19  C   UNL     1       1.832   4.372  18.099  0.00  0.00    +0.000 A 
ENDBRANCH  13  14
ENDBRANCH   6  13
TORSDOF 4
ENDMDL
MODEL 2
REMARK VINA RESULT:      -7.2      0.121      1.139
REMARK  Name = 
REMARK  4 active torsions:
REMARK  status: ('A' for Active; 'I' for Inactive)
REMARK    1  A    between atoms: C_2  and  C_3
REMARK    2  A    between atoms: N_5  and  C_6
REMARK    3  A    between atoms: C_11  and  O_12
REMARK    4  A    between atoms: O_12  and  C_13
REMARK                            x       y       z     vdW  Elec       q    Type
REMARK                         _______ _______ _______ _____ _____    ______ ____
ROOT
ATOM      1  C   UNL     1       6.375   4.545  17.042  0.00  0.00    +0.000 A 
ATOM      2  C   UNL     1       7.341   4.360  16.048  0.00  0.00    +0.000 A 
ATOM      3  C   UNL     1       6.963   4.250  14.710  0.00  0.00    +0.000 A 
ATOM      4  C   UNL     1       5.622   4.381  14.355  0.00  0.00    +0.000 A 
ATOM      5  C   UNL     1       4.664   4.659  15.333  0.00  0.00    +0.000 A 
ATOM      6  C   UNL     1       5.037   4.769  16.680  0.00  0.00    +0.000 A 
ENDROOT
BRANCH   1   9
ATOM      7  O   UNL     1       7.851   5.376  20.181  0.00  0.00    +0.000 OA
ATOM      8  C   UNL     1       7.501   5.548  19.008  0.00  0.00    +0.000 C 
ATOM      9  N   UNL     1       6.843   4.534  18.365  0.00  0.00    +0.000 N 
ATOM     10  H   UNL     1       6.445   3.866  19.011  0.00  0.00    +0.000 HD
BRANCH   8  11
ATOM     11  C   UNL     1       7.690   6.883  18.318  0.00  0.00    +0.000 C 
ATOM     12  F   UNL     1       8.711   7.606  18.865  0.00  0.00    +0.000 F 
ENDBRANCH   8  11
ENDBRANCH   1   9
BRANCH   6  13
ATOM     13  O   UNL     1       4.006   5.072  17.548  0.00  0.00    +0.000 OA
BRANCH  13  14
ATOM     14  C   UNL     1       3.127   4.097  17.967  0.00  0.00    +0.000 A 
ATOM     15  C   UNL     1       1.748   4.259  18.126  0.00  0.00    +0.000 A 
ATOM     16  C   UNL     1       0.962   3.210  18.608  0.00  0.00    +0.000 A 
ATOM     17  C   UNL     1       1.537   1.970  18.880  0.00  0.00    +0.000 A 
ATOM     18  C   UNL     1       2.903   1.784  18.680  0.00  0.00    +0.000 A 
ATOM     19  C   UNL     1       3.697   2.843  18.230  0.00  0.00    +0.000 A 
ENDBRANCH  13  14
ENDBRANCH   6  13
TORSDOF 4
ENDMDL
MODEL 3
REMARK VINA RESULT:      -7.2      2.705      4.377
REMARK  Name = 
REMARK  4 active torsions:
REMARK  status: ('A' for Active; 'I' for Inactive)
REMARK    1  A    between atoms: C_2  and  C_3
REMARK    2  A    between atoms: N_5  and  C_6
REMARK    3  A    between atoms: C_11  and  O_12
REMARK    4  A    between atoms: O_12  and  C_13
REMARK                            x       y       z     vdW  Elec       q    Type
REMARK                         _______ _______ _______ _____ _____    ______ ____
ROOT
ATOM      1  C   UNL     1       4.092   3.651  18.676  0.00  0.00    +0.000 A 
ATOM      2  C   UNL     1       3.721   2.521  17.940  0.00  0.00    +0.000 A 
ATOM      3  C   UNL     1       2.374   2.203  17.769  0.00  0.00    +0.000 A 
ATOM      4  C   UNL     1       1.392   3.045  18.285  0.00  0.00    +0.000 A 
ATOM      5  C   UNL     1       1.755   4.224  18.941  0.00  0.00    +0.000 A 
ATOM      6  C   UNL     1       3.107   4.549  19.118  0.00  0.00    +0.000 A 
ENDROOT
BRANCH   1   9
ATOM      7  O   UNL     1       7.515   4.628  18.444  0.00  0.00    +0.000 OA
ATOM      8  C   UNL     1       6.321   4.582  18.125  0.00  0.00    +0.000 C 
ATOM      9  N   UNL     1       5.469   3.826  18.884  0.00  0.00    +0.000 N 
ATOM     10  H   UNL     1       5.846   3.630  19.802  0.00  0.00    +0.000 HD
BRANCH   8  11
ATOM     11  C   UNL     1       5.777   5.422  16.988  0.00  0.00    +0.000 C 
ATOM     12  F   UNL     1       5.954   6.758  17.204  0.00  0.00    +0.000 F 
ENDBRANCH   8  11
ENDBRANCH   1   9
BRANCH   6  13
ATOM     13  O   UNL     1       3.339   5.752  19.756  0.00  0.00    +0.000 OA
BRANCH  13  14
ATOM     14  C   UNL     1       2.721   6.907  19.329  0.00  0.00    +0.000 A 
ATOM     15  C   UNL     1       2.814   7.455  18.047  0.00  0.00    +0.000 A 
ATOM     16  C   UNL     1       2.183   8.663  17.744  0.00  0.00    +0.000 A 
ATOM     17  C   UNL     1       1.403   9.306  18.703  0.00  0.00    +0.000 A 
ATOM     18  C   UNL     1       1.264   8.745  19.971  0.00  0.00    +0.000 A 
ATOM     19  C   UNL     1       1.924   7.553  20.286  0.00  0.00    +0.000 A 
ENDBRANCH  13  14
ENDBRANCH   6  13
TORSDOF 4
ENDMDL
MODEL 4
REMARK VINA RESULT:      -7.1      2.691      4.440
REMARK  Name = 
REMARK  4 active torsions:
REMARK  status: ('A' for Active; 'I' for Inactive)
REMARK    1  A    between atoms: C_2  and  C_3
REMARK    2  A    between atoms: N_5  and  C_6
REMARK    3  A    between atoms: C_11  and  O_12
REMARK    4  A    between atoms: O_12  and  C_13
REMARK                            x       y       z     vdW  Elec       q    Type
REMARK                         _______ _______ _______ _____ _____    ______ ____
ROOT
ATOM      1  C   UNL     1       4.052   3.663  18.726  0.00  0.00    +0.000 A 
ATOM      2  C   UNL     1       3.695   2.558  17.946  0.00  0.00    +0.000 A 
ATOM      3  C   UNL     1       2.353   2.215  17.783  0.00  0.00    +0.000 A 
ATOM      4  C   UNL     1       1.360   3.007  18.354  0.00  0.00    +0.000 A 
ATOM      5  C   UNL     1       1.707   4.164  19.056  0.00  0.00    +0.000 A 
ATOM      6  C   UNL     1       3.053   4.515  19.225  0.00  0.00    +0.000 A 
ENDROOT
BRANCH   1   9
ATOM      7  O   UNL     1       7.472   4.623  18.404  0.00  0.00    +0.000 OA
ATOM      8  C   UNL     1       6.280   4.541  18.089  0.00  0.00    +0.000 C 
ATOM      9  N   UNL     1       5.428   3.863  18.919  0.00  0.00    +0.000 N 
ATOM     10  H   UNL     1       5.803   3.761  19.852  0.00  0.00    +0.000 HD
BRANCH   8  11
ATOM     11  C   UNL     1       5.736   5.260  16.872  0.00  0.00    +0.000 C 
ATOM     12  F   UNL     1       6.375   6.445  16.645  0.00  0.00    +0.000 F 
ENDBRANCH   8  11
ENDBRANCH   1   9
BRANCH   6  13
ATOM     13  O   UNL     1       3.268   5.693  19.913  0.00  0.00    +0.000 OA
BRANCH  13  14
ATOM     14  C   UNL     1       2.673   6.868  19.503  0.00  0.00    +0.000 A 
ATOM     15  C   UNL     1       1.856   7.684  20.290  0.00  0.00    +0.000 A 
ATOM     16  C   UNL     1       1.265   8.828  19.749  0.00  0.00    +0.000 A 
ATOM     17  C   UNL     1       1.533   9.199  18.433  0.00  0.00    +0.000 A 
ATOM     18  C   UNL     1       2.384   8.419  17.654  0.00  0.00    +0.000 A 
ATOM     19  C   UNL     1       2.949   7.255  18.184  0.00  0.00    +0.000 A 
ENDBRANCH  13  14
ENDBRANCH   6  13
TORSDOF 4
ENDMDL
MODEL 5
REMARK VINA RESULT:      -7.1      3.550      5.866
REMARK  Name = 
REMARK  4 active torsions:
REMARK  status: ('A' for Active; 'I' for Inactive)
REMARK    1  A    between atoms: C_2  and  C_3
REMARK    2  A    between atoms: N_5  and  C_6
REMARK    3  A    between atoms: C_11  and  O_12
REMARK    4  A    between atoms: O_12  and  C_13
REMARK                            x       y       z     vdW  Elec       q    Type
REMARK                         _______ _______ _______ _____ _____    ______ ____
ROOT
ATOM      1  C   UNL     1       2.488   6.137  19.999  0.00  0.00    +0.000 A 
ATOM      2  C   UNL     1       1.831   7.306  20.398  0.00  0.00    +0.000 A 
ATOM      3  C   UNL     1       1.711   8.382  19.518  0.00  0.00    +0.000 A 
ATOM      4  C   UNL     1       2.198   8.272  18.218  0.00  0.00    +0.000 A 
ATOM      5  C   UNL     1       2.772   7.074  17.785  0.00  0.00    +0.000 A 
ATOM      6  C   UNL     1       2.897   5.990  18.664  0.00  0.00    +0.000 A 
ENDROOT
BRANCH   1   9
ATOM      7  O   UNL     1       2.163   3.268  22.093  0.00  0.00    +0.000 OA
ATOM      8  C   UNL     1       1.885   4.036  21.165  0.00  0.00    +0.000 C 
ATOM      9  N   UNL     1       2.653   5.155  20.988  0.00  0.00    +0.000 N 
ATOM     10  H   UNL     1       3.551   5.079  21.446  0.00  0.00    +0.000 HD
BRANCH   8  11
ATOM     11  C   UNL     1       0.790   3.706  20.172  0.00  0.00    +0.000 C 
ATOM     12  F   UNL     1       0.904   2.436  19.683  0.00  0.00    +0.000 F 
ENDBRANCH   8  11
ENDBRANCH   1   9
BRANCH   6  13
ATOM     13  O   UNL     1       3.455   4.853  18.113  0.00  0.00    +0.000 OA
BRANCH  13  14
ATOM     14  C   UNL     1       4.803   4.794  17.829  0.00  0.00    +0.000 A 
ATOM     15  C   UNL     1       5.836   5.127  18.710  0.00  0.00    +0.000 A 
ATOM     16  C   UNL     1       7.167   5.078  18.292  0.00  0.00    +0.000 A 
ATOM     17  C   UNL     1       7.484   4.638  17.009  0.00  0.00    +0.000 A 
ATOM     18  C   UNL     1       6.465   4.259  16.137  0.00  0.00    +0.000 A 
ATOM     19  C   UNL     1       5.130   4.340  16.543  0.00  0.00    +0.000 A 
ENDBRANCH  13  14
ENDBRANCH   6  13
TORSDOF 4
ENDMDL
MODEL 6
REMARK VINA RESULT:      -7.1      3.475      5.824
REMARK  Name = 
REMARK  4 active torsions:
REMARK  status: ('A' for Active; 'I' for Inactive)
REMARK    1  A    between atoms: C_2  and  C_3
REMARK    2  A    between atoms: N_5  and  C_6
REMARK    3  A    between atoms: C_11  and  O_12
REMARK    4  A    between atoms: O_12  and  C_13
REMARK                            x       y       z     vdW  Elec       q    Type
REMARK                         _______ _______ _______ _____ _____    ______ ____
ROOT
ATOM      1  C   UNL     1       2.579   5.796  20.063  0.00  0.00    +0.000 A 
ATOM      2  C   UNL     1       1.925   6.998  20.352  0.00  0.00    +0.000 A 
ATOM      3  C   UNL     1       1.916   8.036  19.421  0.00  0.00    +0.000 A 
ATOM      4  C   UNL     1       2.514   7.857  18.176  0.00  0.00    +0.000 A 
ATOM      5  C   UNL     1       3.087   6.626  17.846  0.00  0.00    +0.000 A 
ATOM      6  C   UNL     1       3.101   5.579  18.777  0.00  0.00    +0.000 A 
ENDROOT
BRANCH   1   9
ATOM      7  O   UNL     1       1.999   3.016  22.222  0.00  0.00    +0.000 OA
ATOM      8  C   UNL     1       1.831   3.747  21.239  0.00  0.00    +0.000 C 
ATOM      9  N   UNL     1       2.625   4.854  21.102  0.00  0.00    +0.000 N 
ATOM     10  H   UNL     1       3.467   4.792  21.659  0.00  0.00    +0.000 HD
BRANCH   8  11
ATOM     11  C   UNL     1       0.849   3.382  20.145  0.00  0.00    +0.000 C 
ATOM     12  F   UNL     1       1.146   2.183  19.564  0.00  0.00    +0.000 F 
ENDBRANCH   8  11
ENDBRANCH   1   9
BRANCH   6  13
ATOM     13  O   UNL     1       3.671   4.404  18.326  0.00  0.00    +0.000 OA
BRANCH  13  14
ATOM     14  C   UNL     1       4.839   4.422  17.595  0.00  0.00    +0.000 A 
ATOM     15  C   UNL     1       4.944   4.185  16.221  0.00  0.00    +0.000 A 
ATOM     16  C   UNL     1       6.192   4.179  15.596  0.00  0.00    +0.000 A 
ATOM     17  C   UNL     1       7.343   4.470  16.326  0.00  0.00    +0.000 A 
ATOM     18  C   UNL     1       7.246   4.754  17.686  0.00  0.00    +0.000 A 
ATOM     19  C   UNL     1       6.000   4.727  18.320  0.00  0.00    +0.000 A 
ENDBRANCH  13  14
ENDBRANCH   6  13
TORSDOF 4
ENDMDL
MODEL 7
REMARK VINA RESULT:      -7.1      3.286      5.413
REMARK  Name = 
REMARK  4 active torsions:
REMARK  status: ('A' for Active; 'I' for Inactive)
REMARK    1  A    between atoms: C_2  and  C_3
REMARK    2  A    between atoms: N_5  and  C_6
REMARK    3  A    between atoms: C_11  and  O_12
REMARK    4  A    between atoms: O_12  and  C_13
REMARK                            x       y       z     vdW  Elec       q    Type
REMARK                         _______ _______ _______ _____ _____    ______ ____
ROOT
ATOM      1  C   UNL     1       2.558   4.482  18.333  0.00  0.00    +0.000 A 
ATOM      2  C   UNL     1       1.869   3.291  18.083  0.00  0.00    +0.000 A 
ATOM      3  C   UNL     1       1.036   2.741  19.057  0.00  0.00    +0.000 A 
ATOM      4  C   UNL     1       0.847   3.408  20.265  0.00  0.00    +0.000 A 
ATOM      5  C   UNL     1       1.459   4.644  20.484  0.00  0.00    +0.000 A 
ATOM      6  C   UNL     1       2.298   5.202  19.510  0.00  0.00    +0.000 A 
ENDROOT
BRANCH   1   9
ATOM      7  O   UNL     1       5.467   5.300  16.437  0.00  0.00    +0.000 OA
ATOM      8  C   UNL     1       4.820   4.896  17.411  0.00  0.00    +0.000 C 
ATOM      9  N   UNL     1       3.453   4.897  17.335  0.00  0.00    +0.000 N 
ATOM     10  H   UNL     1       3.123   4.942  16.380  0.00  0.00    +0.000 HD
BRANCH   8  11
ATOM     11  C   UNL     1       5.509   4.309  18.625  0.00  0.00    +0.000 C 
ATOM     12  F   UNL     1       5.731   5.245  19.594  0.00  0.00    +0.000 F 
ENDBRANCH   8  11
ENDBRANCH   1   9
BRANCH   6  13
ATOM     13  O   UNL     1       2.824   6.439  19.831  0.00  0.00    +0.000 OA
BRANCH  13  14
ATOM     14  C   UNL     1       2.187   7.599  19.443  0.00  0.00    +0.000 A 
ATOM     15  C   UNL     1       2.197   8.142  18.156  0.00  0.00    +0.000 A 
ATOM     16  C   UNL     1       1.556   9.354  17.892  0.00  0.00    +0.000 A 
ATOM     17  C   UNL     1       0.847  10.005  18.899  0.00  0.00    +0.000 A 
ATOM     18  C   UNL     1       0.790   9.449  20.175  0.00  0.00    +0.000 A 
ATOM     19  C   UNL     1       1.460   8.253  20.449  0.00  0.00    +0.000 A 
ENDBRANCH  13  14
ENDBRANCH   6  13
TORSDOF 4
ENDMDL
MODEL 8
REMARK VINA RESULT:      -7.0      3.298      5.438
REMARK  Name = 
REMARK  4 active torsions:
REMARK  status: ('A' for Active; 'I' for Inactive)
REMARK    1  A    between atoms: C_2  and  C_3
REMARK    2  A    between atoms: N_5  and  C_6
REMARK    3  A    between atoms: C_11  and  O_12
REMARK    4  A    between atoms: O_12  and  C_13
REMARK                            x       y       z     vdW  Elec       q    Type
REMARK                         _______ _______ _______ _____ _____    ______ ____
ROOT
ATOM      1  C   UNL     1       2.565   4.510  18.324  0.00  0.00    +0.000 A 
ATOM      2  C   UNL     1       1.865   3.324  18.082  0.00  0.00    +0.000 A 
ATOM      3  C   UNL     1       1.027   2.788  19.060  0.00  0.00    +0.000 A 
ATOM      4  C   UNL     1       0.845   3.466  20.263  0.00  0.00    +0.000 A 
ATOM      5  C   UNL     1       1.469   4.698  20.474  0.00  0.00    +0.000 A 
ATOM      6  C   UNL     1       2.313   5.241  19.496  0.00  0.00    +0.000 A 
ENDROOT
BRANCH   1   9
ATOM      7  O   UNL     1       5.481   5.288  16.421  0.00  0.00    +0.000 OA
ATOM      8  C   UNL     1       4.831   4.897  17.398  0.00  0.00    +0.000 C 
ATOM      9  N   UNL     1       3.464   4.910  17.322  0.00  0.00    +0.000 N 
ATOM     10  H   UNL     1       3.134   4.950  16.367  0.00  0.00    +0.000 HD
BRANCH   8  11
ATOM     11  C   UNL     1       5.515   4.313  18.617  0.00  0.00    +0.000 C 
ATOM     12  F   UNL     1       5.765   5.258  19.570  0.00  0.00    +0.000 F 
ENDBRANCH   8  11
ENDBRANCH   1   9
BRANCH   6  13
ATOM     13  O   UNL     1       2.851   6.475  19.808  0.00  0.00    +0.000 OA
BRANCH  13  14
ATOM     14  C   UNL     1       2.129   7.631  19.603  0.00  0.00    +0.000 A 
ATOM     15  C   UNL     1       1.396   8.317  20.576  0.00  0.00    +0.000 A 
ATOM     16  C   UNL     1       0.659   9.454  20.238  0.00  0.00    +0.000 A 
ATOM     17  C   UNL     1       0.695   9.951  18.938  0.00  0.00    +0.000 A 
ATOM     18  C   UNL     1       1.459   9.303  17.970  0.00  0.00    +0.000 A 
ATOM     19  C   UNL     1       2.170   8.145  18.299  0.00  0.00    +0.000 A 
ENDBRANCH  13  14
ENDBRANCH   6  13
TORSDOF 4
ENDMDL
MODEL 9
REMARK VINA RESULT:      -7.0      2.933      4.484
REMARK  Name = 
REMARK  4 active torsions:
REMARK  status: ('A' for Active; 'I' for Inactive)
REMARK    1  A    between atoms: C_2  and  C_3
REMARK    2  A    between atoms: N_5  and  C_6
REMARK    3  A    between atoms: C_11  and  O_12
REMARK    4  A    between atoms: O_12  and  C_13
REMARK                            x       y       z     vdW  Elec       q    Type
REMARK                         _______ _______ _______ _____ _____    ______ ____
ROOT
ATOM      1  C   UNL     1       4.168   3.847  18.373  0.00  0.00    +0.000 A 
ATOM      2  C   UNL     1       3.740   2.515  18.375  0.00  0.00    +0.000 A 
ATOM      3  C   UNL     1       2.387   2.210  18.230  0.00  0.00    +0.000 A 
ATOM      4  C   UNL     1       1.463   3.233  18.026  0.00  0.00    +0.000 A 
ATOM      5  C   UNL     1       1.897   4.557  17.930  0.00  0.00    +0.000 A 
ATOM      6  C   UNL     1       3.255   4.871  18.076  0.00  0.00    +0.000 A 
ENDROOT
BRANCH   1   9
ATOM      7  O   UNL     1       7.671   4.470  18.110  0.00  0.00    +0.000 OA
ATOM      8  C   UNL     1       6.510   4.312  17.712  0.00  0.00    +0.000 C 
ATOM      9  N   UNL     1       5.531   4.055  18.634  0.00  0.00    +0.000 N 
ATOM     10  H   UNL     1       5.807   4.323  19.569  0.00  0.00    +0.000 HD
BRANCH   8  11
ATOM     11  C   UNL     1       6.144   4.503  16.255  0.00  0.00    +0.000 C 
ATOM     12  F   UNL     1       6.178   3.330  15.557  0.00  0.00    +0.000 F 
ENDBRANCH   8  11
ENDBRANCH   1   9
BRANCH   6  13
ATOM     13  O   UNL     1       3.563   6.210  17.934  0.00  0.00    +0.000 OA
BRANCH  13  14
ATOM     14  C   UNL     1       2.780   7.181  18.521  0.00  0.00    +0.000 A 
ATOM     15  C   UNL     1       2.339   7.180  19.847  0.00  0.00    +0.000 A 
ATOM     16  C   UNL     1       1.504   8.195  20.317  0.00  0.00    +0.000 A 
ATOM     17  C   UNL     1       1.150   9.254  19.483  0.00  0.00    +0.000 A 
ATOM     18  C   UNL     1       1.622   9.290  18.173  0.00  0.00    +0.000 A 
ATOM     19  C   UNL     1       2.430   8.257  17.691  0.00  0.00    +0.000 A 
ENDBRANCH  13  14
ENDBRANCH   6  13
TORSDOF 4
ENDMDL
