MODEL 1
REMARK VINA RESULT:      -8.7      0.000      0.000
REMARK  Name = 
REMARK  7 active torsions:
REMARK  status: ('A' for Active; 'I' for Inactive)
REMARK    1  A    between atoms: C_1  and  C_2
REMARK    2  A    between atoms: C_4  and  O_5
REMARK    3  A    between atoms: O_5  and  C_6
REMARK    4  A    between atoms: C_9  and  C_11
REMARK    5  A    between atoms: C_14  and  C_15
REMARK    6  A    between atoms: C_25  and  C_26
REMARK    7  A    between atoms: C_26  and  N_27
REMARK                            x       y       z     vdW  Elec       q    Type
REMARK                         _______ _______ _______ _____ _____    ______ ____
ROOT
ATOM      1  O   UNL     1       3.008   6.575  19.110  0.00  0.00    +0.000 OA
ENDROOT
BRANCH   1   5
ATOM      2  C   UNL     1       0.501   8.912  22.371  0.00  0.00    +0.000 C 
ATOM      3  C   UNL     1       0.840   8.858  20.906  0.00  0.00    +0.000 A 
ATOM      4  C   UNL     1       1.700   7.810  20.538  0.00  0.00    +0.000 A 
ATOM      5  C   UNL     1       2.190   7.665  19.246  0.00  0.00    +0.000 A 
ATOM      6  C   UNL     1       1.835   8.590  18.279  0.00  0.00    +0.000 A 
ATOM      7  C   UNL     1       0.936   9.616  18.608  0.00  0.00    +0.000 A 
ATOM      8  C   UNL     1       0.395   9.754  19.907  0.00  0.00    +0.000 A 
BRANCH   8   9
ATOM      9  C   UNL     1      -0.557  10.917  20.159  0.00  0.00    +0.000 C 
BRANCH   9  10
ATOM     10  N   UNL     1      -0.206  12.183  19.482  0.00  0.00    +0.000 NA
ATOM     11  C   UNL     1      -1.368  12.985  19.027  0.00  0.00    +0.000 C 
ATOM     12  C   UNL     1      -0.669  14.255  19.610  0.00  0.00    +0.000 C 
ATOM     13  C   UNL     1       0.379  15.095  18.880  0.00  0.00    +0.000 C 
ATOM     14  C   UNL     1       0.512  16.244  19.880  0.00  0.00    +0.000 C 
ATOM     15  C   UNL     1      -0.954  16.563  20.093  0.00  0.00    +0.000 C 
ATOM     16  O   UNL     1      -1.530  15.247  20.263  0.00  0.00    +0.000 OA
ATOM     17  C   UNL     1       0.066  13.224  20.515  0.00  0.00    +0.000 C 
ENDBRANCH   9  10
ENDBRANCH   8   9
ENDBRANCH   1   5
BRANCH   1  18
ATOM     18  C   UNL     1       4.298   6.716  18.500  0.00  0.00    +0.000 C 
ATOM     19  C   UNL     1       5.393   5.783  19.085  0.00  0.00    +0.000 C 
ATOM     20  N   UNL     1       5.811   5.589  17.712  0.00  0.00    +0.000 N 
ATOM     21  C   UNL     1       6.829   4.807  17.213  0.00  0.00    +0.000 C 
ATOM     22  O   UNL     1       7.592   4.210  17.955  0.00  0.00    +0.000 OA
ATOM     23  C   UNL     1       4.534   6.002  17.156  0.00  0.00    +0.000 C 
BRANCH  21  24
ATOM     24  C   UNL     1       6.937   4.799  15.766  0.00  0.00    +0.000 A 
ATOM     25  N   UNL     1       7.674   5.599  15.017  0.00  0.00    +0.000 NA
ATOM     26  N   UNL     1       7.486   5.209  13.714  0.00  0.00    +0.000 NA
ATOM     27  C   UNL     1       6.641   4.198  13.750  0.00  0.00    +0.000 A 
ATOM     28  O   UNL     1       6.259   3.867  15.023  0.00  0.00    +0.000 OA
BRANCH  27  29
ATOM     29  C   UNL     1       6.064   3.431  12.656  0.00  0.00    +0.000 A 
ATOM     30  C   UNL     1       4.758   3.718  12.234  0.00  0.00    +0.000 A 
ATOM     31  C   UNL     1       4.153   2.968  11.225  0.00  0.00    +0.000 A 
ATOM     32  C   UNL     1       4.850   1.924  10.624  0.00  0.00    +0.000 A 
ATOM     33  C   UNL     1       6.157   1.639  11.019  0.00  0.00    +0.000 A 
ATOM     34  C   UNL     1       6.766   2.393  12.025  0.00  0.00    +0.000 A 
ENDBRANCH  27  29
ENDBRANCH  21  24
ENDBRANCH   1  18
TORSDOF 6
ENDMDL
MODEL 2
REMARK VINA RESULT:      -8.3      2.497      3.660
REMARK  Name = 
REMARK  7 active torsions:
REMARK  status: ('A' for Active; 'I' for Inactive)
REMARK    1  A    between atoms: C_1  and  C_2
REMARK    2  A    between atoms: C_4  and  O_5
REMARK    3  A    between atoms: O_5  and  C_6
REMARK    4  A    between atoms: C_9  and  C_11
REMARK    5  A    between atoms: C_14  and  C_15
REMARK    6  A    between atoms: C_25  and  C_26
REMARK    7  A    between atoms: C_26  and  N_27
REMARK                            x       y       z     vdW  Elec       q    Type
REMARK                         _______ _______ _______ _____ _____    ______ ____
ROOT
ATOM      1  O   UNL     1       0.861   8.847  18.408  0.00  0.00    +0.000 OA
ENDROOT
BRANCH   1   5
ATOM      2  C   UNL     1       2.061  13.317  19.392  0.00  0.00    +0.000 C 
ATOM      3  C   UNL     1       0.939  12.316  19.457  0.00  0.00    +0.000 A 
ATOM      4  C   UNL     1       1.265  11.033  18.987  0.00  0.00    +0.000 A 
ATOM      5  C   UNL     1       0.326  10.013  18.888  0.00  0.00    +0.000 A 
ATOM      6  C   UNL     1      -0.987  10.264  19.248  0.00  0.00    +0.000 A 
ATOM      7  C   UNL     1      -1.328  11.521  19.770  0.00  0.00    +0.000 A 
ATOM      8  C   UNL     1      -0.376  12.557  19.918  0.00  0.00    +0.000 A 
BRANCH   8   9
ATOM      9  C   UNL     1      -0.860  13.891  20.476  0.00  0.00    +0.000 C 
BRANCH   9  10
ATOM     10  N   UNL     1      -1.676  13.805  21.704  0.00  0.00    +0.000 NA
ATOM     11  C   UNL     1      -0.959  13.268  22.888  0.00  0.00    +0.000 C 
ATOM     12  C   UNL     1      -1.585  14.419  23.739  0.00  0.00    +0.000 C 
ATOM     13  C   UNL     1      -2.971  14.383  24.383  0.00  0.00    +0.000 C 
ATOM     14  C   UNL     1      -2.900  15.679  25.191  0.00  0.00    +0.000 C 
ATOM     15  C   UNL     1      -1.556  15.483  25.863  0.00  0.00    +0.000 C 
ATOM     16  O   UNL     1      -0.731  15.028  24.765  0.00  0.00    +0.000 OA
ATOM     17  C   UNL     1      -1.696  15.141  22.365  0.00  0.00    +0.000 C 
ENDBRANCH   9  10
ENDBRANCH   8   9
ENDBRANCH   1   5
BRANCH   1  18
ATOM     18  C   UNL     1       2.210   8.487  18.737  0.00  0.00    +0.000 C 
ATOM     19  C   UNL     1       2.347   7.155  19.524  0.00  0.00    +0.000 C 
ATOM     20  N   UNL     1       3.485   6.890  18.669  0.00  0.00    +0.000 N 
ATOM     21  C   UNL     1       4.317   5.793  18.639  0.00  0.00    +0.000 C 
ATOM     22  O   UNL     1       4.208   4.894  19.457  0.00  0.00    +0.000 OA
ATOM     23  C   UNL     1       3.058   7.820  17.637  0.00  0.00    +0.000 C 
BRANCH  21  24
ATOM     24  C   UNL     1       5.335   5.828  17.606  0.00  0.00    +0.000 A 
ATOM     25  N   UNL     1       6.480   6.485  17.637  0.00  0.00    +0.000 NA
ATOM     26  N   UNL     1       7.131   6.205  16.462  0.00  0.00    +0.000 NA
ATOM     27  C   UNL     1       6.340   5.397  15.784  0.00  0.00    +0.000 A 
ATOM     28  O   UNL     1       5.184   5.097  16.456  0.00  0.00    +0.000 OA
BRANCH  27  29
ATOM     29  C   UNL     1       6.515   4.822  14.460  0.00  0.00    +0.000 A 
ATOM     30  C   UNL     1       7.554   5.290  13.643  0.00  0.00    +0.000 A 
ATOM     31  C   UNL     1       7.719   4.802  12.347  0.00  0.00    +0.000 A 
ATOM     32  C   UNL     1       6.847   3.835  11.854  0.00  0.00    +0.000 A 
ATOM     33  C   UNL     1       5.821   3.344  12.661  0.00  0.00    +0.000 A 
ATOM     34  C   UNL     1       5.659   3.829  13.960  0.00  0.00    +0.000 A 
ENDBRANCH  27  29
ENDBRANCH  21  24
ENDBRANCH   1  18
TORSDOF 6
ENDMDL
MODEL 3
REMARK VINA RESULT:      -8.3      1.703      2.102
REMARK  Name = 
REMARK  7 active torsions:
REMARK  status: ('A' for Active; 'I' for Inactive)
REMARK    1  A    between atoms: C_1  and  C_2
REMARK    2  A    between atoms: C_4  and  O_5
REMARK    3  A    between atoms: O_5  and  C_6
REMARK    4  A    between atoms: C_9  and  C_11
REMARK    5  A    between atoms: C_14  and  C_15
REMARK    6  A    between atoms: C_25  and  C_26
REMARK    7  A    between atoms: C_26  and  N_27
REMARK                            x       y       z     vdW  Elec       q    Type
REMARK                         _______ _______ _______ _____ _____    ______ ____
ROOT
ATOM      1  O   UNL     1       2.402   7.078  18.989  0.00  0.00    +0.000 OA
ENDROOT
BRANCH   1   5
ATOM      2  C   UNL     1       0.447   9.374  22.635  0.00  0.00    +0.000 C 
ATOM      3  C   UNL     1       0.761   9.467  21.166  0.00  0.00    +0.000 A 
ATOM      4  C   UNL     1       1.384   8.331  20.623  0.00  0.00    +0.000 A 
ATOM      5  C   UNL     1       1.827   8.280  19.307  0.00  0.00    +0.000 A 
ATOM      6  C   UNL     1       1.668   9.389  18.495  0.00  0.00    +0.000 A 
ATOM      7  C   UNL     1       1.002  10.518  18.997  0.00  0.00    +0.000 A 
ATOM      8  C   UNL     1       0.507  10.571  20.321  0.00  0.00    +0.000 A 
BRANCH   8   9
ATOM      9  C   UNL     1      -0.183  11.855  20.769  0.00  0.00    +0.000 C 
BRANCH   9  10
ATOM     10  N   UNL     1      -1.656  11.788  20.852  0.00  0.00    +0.000 NA
ATOM     11  C   UNL     1      -2.222  12.201  22.160  0.00  0.00    +0.000 C 
ATOM     12  C   UNL     1      -3.293  13.036  21.387  0.00  0.00    +0.000 C 
ATOM     13  C   UNL     1      -4.606  12.485  20.831  0.00  0.00    +0.000 C 
ATOM     14  C   UNL     1      -5.250  13.795  20.377  0.00  0.00    +0.000 C 
ATOM     15  C   UNL     1      -5.044  14.624  21.628  0.00  0.00    +0.000 C 
ATOM     16  O   UNL     1      -3.666  14.334  21.962  0.00  0.00    +0.000 OA
ATOM     17  C   UNL     1      -2.231  13.025  20.250  0.00  0.00    +0.000 C 
ENDBRANCH   9  10
ENDBRANCH   8   9
ENDBRANCH   1   5
BRANCH   1  18
ATOM     18  C   UNL     1       3.780   7.021  18.597  0.00  0.00    +0.000 C 
ATOM     19  C   UNL     1       4.601   5.900  19.289  0.00  0.00    +0.000 C 
ATOM     20  N   UNL     1       5.201   5.682  17.990  0.00  0.00    +0.000 N 
ATOM     21  C   UNL     1       6.149   4.758  17.610  0.00  0.00    +0.000 C 
ATOM     22  O   UNL     1       6.675   4.019  18.427  0.00  0.00    +0.000 OA
ATOM     23  C   UNL     1       4.114   6.320  17.266  0.00  0.00    +0.000 C 
BRANCH  21  24
ATOM     24  C   UNL     1       6.489   4.778  16.200  0.00  0.00    +0.000 A 
ATOM     25  N   UNL     1       7.389   5.541  15.608  0.00  0.00    +0.000 NA
ATOM     26  N   UNL     1       7.389   5.198  14.279  0.00  0.00    +0.000 NA
ATOM     27  C   UNL     1       6.483   4.249  14.142  0.00  0.00    +0.000 A 
ATOM     28  O   UNL     1       5.880   3.915  15.325  0.00  0.00    +0.000 OA
BRANCH  27  29
ATOM     29  C   UNL     1       6.042   3.553  12.943  0.00  0.00    +0.000 A 
ATOM     30  C   UNL     1       4.729   3.743  12.487  0.00  0.00    +0.000 A 
ATOM     31  C   UNL     1       4.254   3.051  11.373  0.00  0.00    +0.000 A 
ATOM     32  C   UNL     1       5.088   2.162  10.700  0.00  0.00    +0.000 A 
ATOM     33  C   UNL     1       6.402   1.978  11.130  0.00  0.00    +0.000 A 
ATOM     34  C   UNL     1       6.881   2.675  12.241  0.00  0.00    +0.000 A 
ENDBRANCH  27  29
ENDBRANCH  21  24
ENDBRANCH   1  18
TORSDOF 6
ENDMDL
MODEL 4
REMARK VINA RESULT:      -8.3      2.464      3.548
REMARK  Name = 
REMARK  7 active torsions:
REMARK  status: ('A' for Active; 'I' for Inactive)
REMARK    1  A    between atoms: C_1  and  C_2
REMARK    2  A    between atoms: C_4  and  O_5
REMARK    3  A    between atoms: O_5  and  C_6
REMARK    4  A    between atoms: C_9  and  C_11
REMARK    5  A    between atoms: C_14  and  C_15
REMARK    6  A    between atoms: C_25  and  C_26
REMARK    7  A    between atoms: C_26  and  N_27
REMARK                            x       y       z     vdW  Elec       q    Type
REMARK                         _______ _______ _______ _____ _____    ______ ____
ROOT
ATOM      1  O   UNL     1       1.602   9.318  17.561  0.00  0.00    +0.000 OA
ENDROOT
BRANCH   1   5
ATOM      2  C   UNL     1      -2.995  10.397  17.861  0.00  0.00    +0.000 C 
ATOM      3  C   UNL     1      -1.648  10.628  18.491  0.00  0.00    +0.000 A 
ATOM      4  C   UNL     1      -0.578   9.982  17.848  0.00  0.00    +0.000 A 
ATOM      5  C   UNL     1       0.719  10.010  18.346  0.00  0.00    +0.000 A 
ATOM      6  C   UNL     1       0.976  10.684  19.528  0.00  0.00    +0.000 A 
ATOM      7  C   UNL     1      -0.064  11.381  20.162  0.00  0.00    +0.000 A 
ATOM      8  C   UNL     1      -1.381  11.398  19.646  0.00  0.00    +0.000 A 
BRANCH   8   9
ATOM      9  C   UNL     1      -2.439  12.170  20.426  0.00  0.00    +0.000 C 
BRANCH   9  10
ATOM     10  N   UNL     1      -1.917  13.123  21.427  0.00  0.00    +0.000 NA
ATOM     11  C   UNL     1      -2.443  14.505  21.298  0.00  0.00    +0.000 C 
ATOM     12  C   UNL     1      -2.656  14.525  22.846  0.00  0.00    +0.000 C 
ATOM     13  C   UNL     1      -1.583  14.876  23.877  0.00  0.00    +0.000 C 
ATOM     14  C   UNL     1      -2.449  14.890  25.138  0.00  0.00    +0.000 C 
ATOM     15  C   UNL     1      -3.591  15.758  24.650  0.00  0.00    +0.000 C 
ATOM     16  O   UNL     1      -3.862  15.198  23.343  0.00  0.00    +0.000 OA
ATOM     17  C   UNL     1      -2.702  12.978  22.687  0.00  0.00    +0.000 C 
ENDBRANCH   9  10
ENDBRANCH   8   9
ENDBRANCH   1   5
BRANCH   1  18
ATOM     18  C   UNL     1       2.646   8.542  18.164  0.00  0.00    +0.000 C 
ATOM     19  C   UNL     1       2.162   7.241  18.860  0.00  0.00    +0.000 C 
ATOM     20  N   UNL     1       3.330   6.618  18.274  0.00  0.00    +0.000 N 
ATOM     21  C   UNL     1       3.756   5.311  18.355  0.00  0.00    +0.000 C 
ATOM     22  O   UNL     1       3.174   4.499  19.056  0.00  0.00    +0.000 OA
ATOM     23  C   UNL     1       3.482   7.632  17.244  0.00  0.00    +0.000 C 
BRANCH  21  24
ATOM     24  C   UNL     1       4.952   5.011  17.591  0.00  0.00    +0.000 A 
ATOM     25  N   UNL     1       6.166   4.794  18.063  0.00  0.00    +0.000 NA
ATOM     26  N   UNL     1       6.969   4.522  16.984  0.00  0.00    +0.000 NA
ATOM     27  C   UNL     1       6.195   4.596  15.919  0.00  0.00    +0.000 A 
ATOM     28  O   UNL     1       4.893   4.887  16.227  0.00  0.00    +0.000 OA
BRANCH  27  29
ATOM     29  C   UNL     1       6.534   4.439  14.513  0.00  0.00    +0.000 A 
ATOM     30  C   UNL     1       7.568   5.213  13.968  0.00  0.00    +0.000 A 
ATOM     31  C   UNL     1       7.885   5.129  12.612  0.00  0.00    +0.000 A 
ATOM     32  C   UNL     1       7.171   4.265  11.785  0.00  0.00    +0.000 A 
ATOM     33  C   UNL     1       6.153   3.474  12.317  0.00  0.00    +0.000 A 
ATOM     34  C   UNL     1       5.839   3.553  13.675  0.00  0.00    +0.000 A 
ENDBRANCH  27  29
ENDBRANCH  21  24
ENDBRANCH   1  18
TORSDOF 6
ENDMDL
MODEL 5
REMARK VINA RESULT:      -8.2      1.145      1.699
REMARK  Name = 
REMARK  7 active torsions:
REMARK  status: ('A' for Active; 'I' for Inactive)
REMARK    1  A    between atoms: C_1  and  C_2
REMARK    2  A    between atoms: C_4  and  O_5
REMARK    3  A    between atoms: O_5  and  C_6
REMARK    4  A    between atoms: C_9  and  C_11
REMARK    5  A    between atoms: C_14  and  C_15
REMARK    6  A    between atoms: C_25  and  C_26
REMARK    7  A    between atoms: C_26  and  N_27
REMARK                            x       y       z     vdW  Elec       q    Type
REMARK                         _______ _______ _______ _____ _____    ______ ____
ROOT
ATOM      1  O   UNL     1       3.108   6.675  19.021  0.00  0.00    +0.000 OA
ENDROOT
BRANCH   1   5
ATOM      2  C   UNL     1       0.327   8.964  22.089  0.00  0.00    +0.000 C 
ATOM      3  C   UNL     1       0.754   8.900  20.647  0.00  0.00    +0.000 A 
ATOM      4  C   UNL     1       1.673   7.881  20.348  0.00  0.00    +0.000 A 
ATOM      5  C   UNL     1       2.243   7.734  19.090  0.00  0.00    +0.000 A 
ATOM      6  C   UNL     1       1.913   8.630  18.088  0.00  0.00    +0.000 A 
ATOM      7  C   UNL     1       0.958   9.626  18.345  0.00  0.00    +0.000 A 
ATOM      8  C   UNL     1       0.335   9.763  19.608  0.00  0.00    +0.000 A 
BRANCH   8   9
ATOM      9  C   UNL     1      -0.673  10.893  19.783  0.00  0.00    +0.000 C 
BRANCH   9  10
ATOM     10  N   UNL     1      -0.589  11.624  21.064  0.00  0.00    +0.000 NA
ATOM     11  C   UNL     1       0.294  12.817  21.040  0.00  0.00    +0.000 C 
ATOM     12  C   UNL     1      -0.820  13.607  21.799  0.00  0.00    +0.000 C 
ATOM     13  C   UNL     1      -1.020  13.608  23.315  0.00  0.00    +0.000 C 
ATOM     14  C   UNL     1      -2.109  14.677  23.419  0.00  0.00    +0.000 C 
ATOM     15  C   UNL     1      -1.482  15.758  22.561  0.00  0.00    +0.000 C 
ATOM     16  O   UNL     1      -1.025  15.007  21.412  0.00  0.00    +0.000 OA
ATOM     17  C   UNL     1      -1.763  12.537  21.177  0.00  0.00    +0.000 C 
ENDBRANCH   9  10
ENDBRANCH   8   9
ENDBRANCH   1   5
BRANCH   1  18
ATOM     18  C   UNL     1       4.372   6.820  18.359  0.00  0.00    +0.000 C 
ATOM     19  C   UNL     1       5.513   5.949  18.950  0.00  0.00    +0.000 C 
ATOM     20  N   UNL     1       5.889   5.695  17.575  0.00  0.00    +0.000 N 
ATOM     21  C   UNL     1       6.912   4.917  17.079  0.00  0.00    +0.000 C 
ATOM     22  O   UNL     1       7.717   4.381  17.824  0.00  0.00    +0.000 OA
ATOM     23  C   UNL     1       4.582   6.043  17.045  0.00  0.00    +0.000 C 
BRANCH  21  24
ATOM     24  C   UNL     1       6.969   4.837  15.632  0.00  0.00    +0.000 A 
ATOM     25  N   UNL     1       7.728   5.554  14.823  0.00  0.00    +0.000 NA
ATOM     26  N   UNL     1       7.472   5.118  13.547  0.00  0.00    +0.000 NA
ATOM     27  C   UNL     1       6.568   4.165  13.657  0.00  0.00    +0.000 A 
ATOM     28  O   UNL     1       6.211   3.916  14.956  0.00  0.00    +0.000 OA
BRANCH  27  29
ATOM     29  C   UNL     1       5.909   3.387  12.619  0.00  0.00    +0.000 A 
ATOM     30  C   UNL     1       6.591   2.309  12.036  0.00  0.00    +0.000 A 
ATOM     31  C   UNL     1       6.013   1.574  11.000  0.00  0.00    +0.000 A 
ATOM     32  C   UNL     1       4.743   1.907  10.539  0.00  0.00    +0.000 A 
ATOM     33  C   UNL     1       4.043   2.964  11.123  0.00  0.00    +0.000 A 
ATOM     34  C   UNL     1       4.619   3.696  12.163  0.00  0.00    +0.000 A 
ENDBRANCH  27  29
ENDBRANCH  21  24
ENDBRANCH   1  18
TORSDOF 6
ENDMDL
MODEL 6
REMARK VINA RESULT:      -8.2      1.335      1.822
REMARK  Name = 
REMARK  7 active torsions:
REMARK  status: ('A' for Active; 'I' for Inactive)
REMARK    1  A    between atoms: C_1  and  C_2
REMARK    2  A    between atoms: C_4  and  O_5
REMARK    3  A    between atoms: O_5  and  C_6
REMARK    4  A    between atoms: C_9  and  C_11
REMARK    5  A    between atoms: C_14  and  C_15
REMARK    6  A    between atoms: C_25  and  C_26
REMARK    7  A    between atoms: C_26  and  N_27
REMARK                            x       y       z     vdW  Elec       q    Type
REMARK                         _______ _______ _______ _____ _____    ______ ____
ROOT
ATOM      1  O   UNL     1       2.553   6.927  18.821  0.00  0.00    +0.000 OA
ENDROOT
BRANCH   1   5
ATOM      2  C   UNL     1       0.672   9.433  22.366  0.00  0.00    +0.000 C 
ATOM      3  C   UNL     1       0.824   9.366  20.870  0.00  0.00    +0.000 A 
ATOM      4  C   UNL     1       1.540   8.253  20.399  0.00  0.00    +0.000 A 
ATOM      5  C   UNL     1       1.854   8.081  19.057  0.00  0.00    +0.000 A 
ATOM      6  C   UNL     1       1.465   9.044  18.141  0.00  0.00    +0.000 A 
ATOM      7  C   UNL     1       0.704  10.139  18.578  0.00  0.00    +0.000 A 
ATOM      8  C   UNL     1       0.339  10.308  19.934  0.00  0.00    +0.000 A 
BRANCH   8   9
ATOM      9  C   UNL     1      -0.472  11.545  20.302  0.00  0.00    +0.000 C 
BRANCH   9  10
ATOM     10  N   UNL     1       0.299  12.801  20.405  0.00  0.00    +0.000 NA
ATOM     11  C   UNL     1       1.770  12.620  20.478  0.00  0.00    +0.000 C 
ATOM     12  C   UNL     1       1.924  13.772  19.434  0.00  0.00    +0.000 C 
ATOM     13  C   UNL     1       1.947  15.264  19.767  0.00  0.00    +0.000 C 
ATOM     14  C   UNL     1       2.296  15.818  18.385  0.00  0.00    +0.000 C 
ATOM     15  C   UNL     1       3.469  14.922  18.043  0.00  0.00    +0.000 C 
ATOM     16  O   UNL     1       2.975  13.616  18.421  0.00  0.00    +0.000 OA
ATOM     17  C   UNL     1       0.472  13.375  19.039  0.00  0.00    +0.000 C 
ENDBRANCH   9  10
ENDBRANCH   8   9
ENDBRANCH   1   5
BRANCH   1  18
ATOM     18  C   UNL     1       3.900   6.989  18.331  0.00  0.00    +0.000 C 
ATOM     19  C   UNL     1       4.895   6.047  19.060  0.00  0.00    +0.000 C 
ATOM     20  N   UNL     1       5.431   5.768  17.745  0.00  0.00    +0.000 N 
ATOM     21  C   UNL     1       6.458   4.926  17.381  0.00  0.00    +0.000 C 
ATOM     22  O   UNL     1       7.122   4.339  18.220  0.00  0.00    +0.000 OA
ATOM     23  C   UNL     1       4.230   6.200  17.050  0.00  0.00    +0.000 C 
BRANCH  21  24
ATOM     24  C   UNL     1       6.700   4.841  15.953  0.00  0.00    +0.000 A 
ATOM     25  N   UNL     1       7.610   5.499  15.259  0.00  0.00    +0.000 NA
ATOM     26  N   UNL     1       7.493   5.083  13.956  0.00  0.00    +0.000 NA
ATOM     27  C   UNL     1       6.515   4.199  13.936  0.00  0.00    +0.000 A 
ATOM     28  O   UNL     1       5.972   3.979  15.174  0.00  0.00    +0.000 OA
BRANCH  27  29
ATOM     29  C   UNL     1       5.943   3.473  12.813  0.00  0.00    +0.000 A 
ATOM     30  C   UNL     1       6.699   2.469  12.192  0.00  0.00    +0.000 A 
ATOM     31  C   UNL     1       6.206   1.788  11.079  0.00  0.00    +0.000 A 
ATOM     32  C   UNL     1       4.946   2.102  10.576  0.00  0.00    +0.000 A 
ATOM     33  C   UNL     1       4.173   3.084  11.196  0.00  0.00    +0.000 A 
ATOM     34  C   UNL     1       4.664   3.762  12.313  0.00  0.00    +0.000 A 
ENDBRANCH  27  29
ENDBRANCH  21  24
ENDBRANCH   1  18
TORSDOF 6
ENDMDL
MODEL 7
REMARK VINA RESULT:      -8.2      1.731      2.426
REMARK  Name = 
REMARK  7 active torsions:
REMARK  status: ('A' for Active; 'I' for Inactive)
REMARK    1  A    between atoms: C_1  and  C_2
REMARK    2  A    between atoms: C_4  and  O_5
REMARK    3  A    between atoms: O_5  and  C_6
REMARK    4  A    between atoms: C_9  and  C_11
REMARK    5  A    between atoms: C_14  and  C_15
REMARK    6  A    between atoms: C_25  and  C_26
REMARK    7  A    between atoms: C_26  and  N_27
REMARK                            x       y       z     vdW  Elec       q    Type
REMARK                         _______ _______ _______ _____ _____    ______ ____
ROOT
ATOM      1  O   UNL     1       1.588   7.654  18.994  0.00  0.00    +0.000 OA
ENDROOT
BRANCH   1   5
ATOM      2  C   UNL     1       0.149   9.563  23.077  0.00  0.00    +0.000 C 
ATOM      3  C   UNL     1       0.384   9.847  21.618  0.00  0.00    +0.000 A 
ATOM      4  C   UNL     1       0.830   8.746  20.868  0.00  0.00    +0.000 A 
ATOM      5  C   UNL     1       1.185   8.849  19.528  0.00  0.00    +0.000 A 
ATOM      6  C   UNL     1       1.114  10.082  18.902  0.00  0.00    +0.000 A 
ATOM      7  C   UNL     1       0.623  11.187  19.614  0.00  0.00    +0.000 A 
ATOM      8  C   UNL     1       0.217  11.090  20.966  0.00  0.00    +0.000 A 
BRANCH   8   9
ATOM      9  C   UNL     1      -0.282  12.358  21.649  0.00  0.00    +0.000 C 
BRANCH   9  10
ATOM     10  N   UNL     1       0.077  13.624  20.977  0.00  0.00    +0.000 NA
ATOM     11  C   UNL     1      -0.979  14.665  21.013  0.00  0.00    +0.000 C 
ATOM     12  C   UNL     1       0.119  15.709  21.396  0.00  0.00    +0.000 C 
ATOM     13  C   UNL     1       1.015  16.448  20.403  0.00  0.00    +0.000 C 
ATOM     14  C   UNL     1       1.705  17.415  21.366  0.00  0.00    +0.000 C 
ATOM     15  C   UNL     1       0.491  17.947  22.101  0.00  0.00    +0.000 C 
ATOM     16  O   UNL     1      -0.254  16.737  22.375  0.00  0.00    +0.000 OA
ATOM     17  C   UNL     1       0.883  14.457  21.915  0.00  0.00    +0.000 C 
ENDBRANCH   9  10
ENDBRANCH   8   9
ENDBRANCH   1   5
BRANCH   1  18
ATOM     18  C   UNL     1       2.888   7.132  19.301  0.00  0.00    +0.000 C 
ATOM     19  C   UNL     1       2.882   5.694  19.888  0.00  0.00    +0.000 C 
ATOM     20  N   UNL     1       4.025   5.454  19.032  0.00  0.00    +0.000 N 
ATOM     21  C   UNL     1       4.763   4.303  18.864  0.00  0.00    +0.000 C 
ATOM     22  O   UNL     1       4.547   3.309  19.539  0.00  0.00    +0.000 OA
ATOM     23  C   UNL     1       3.718   6.557  18.137  0.00  0.00    +0.000 C 
BRANCH  21  24
ATOM     24  C   UNL     1       5.818   4.396  17.873  0.00  0.00    +0.000 A 
ATOM     25  N   UNL     1       7.114   4.514  18.097  0.00  0.00    +0.000 NA
ATOM     26  N   UNL     1       7.729   4.536  16.871  0.00  0.00    +0.000 NA
ATOM     27  C   UNL     1       6.769   4.434  15.973  0.00  0.00    +0.000 A 
ATOM     28  O   UNL     1       5.525   4.323  16.535  0.00  0.00    +0.000 OA
BRANCH  27  29
ATOM     29  C   UNL     1       6.850   4.447  14.521  0.00  0.00    +0.000 A 
ATOM     30  C   UNL     1       6.039   3.572  13.783  0.00  0.00    +0.000 A 
ATOM     31  C   UNL     1       6.129   3.517  12.392  0.00  0.00    +0.000 A 
ATOM     32  C   UNL     1       7.030   4.340  11.722  0.00  0.00    +0.000 A 
ATOM     33  C   UNL     1       7.829   5.230  12.441  0.00  0.00    +0.000 A 
ATOM     34  C   UNL     1       7.736   5.289  13.832  0.00  0.00    +0.000 A 
ENDBRANCH  27  29
ENDBRANCH  21  24
ENDBRANCH   1  18
TORSDOF 6
ENDMDL
MODEL 8
REMARK VINA RESULT:      -8.2      2.468      3.412
REMARK  Name = 
REMARK  7 active torsions:
REMARK  status: ('A' for Active; 'I' for Inactive)
REMARK    1  A    between atoms: C_1  and  C_2
REMARK    2  A    between atoms: C_4  and  O_5
REMARK    3  A    between atoms: O_5  and  C_6
REMARK    4  A    between atoms: C_9  and  C_11
REMARK    5  A    between atoms: C_14  and  C_15
REMARK    6  A    between atoms: C_25  and  C_26
REMARK    7  A    between atoms: C_26  and  N_27
REMARK                            x       y       z     vdW  Elec       q    Type
REMARK                         _______ _______ _______ _____ _____    ______ ____
ROOT
ATOM      1  O   UNL     1       1.122   8.581  18.960  0.00  0.00    +0.000 OA
ENDROOT
BRANCH   1   5
ATOM      2  C   UNL     1      -0.627   9.959  23.135  0.00  0.00    +0.000 C 
ATOM      3  C   UNL     1      -0.200  10.443  21.775  0.00  0.00    +0.000 A 
ATOM      4  C   UNL     1       0.240   9.435  20.902  0.00  0.00    +0.000 A 
ATOM      5  C   UNL     1       0.757   9.712  19.641  0.00  0.00    +0.000 A 
ATOM      6  C   UNL     1       0.859  11.028  19.226  0.00  0.00    +0.000 A 
ATOM      7  C   UNL     1       0.378  12.051  20.058  0.00  0.00    +0.000 A 
ATOM      8  C   UNL     1      -0.189  11.783  21.326  0.00  0.00    +0.000 A 
BRANCH   8   9
ATOM      9  C   UNL     1      -0.661  12.971  22.157  0.00  0.00    +0.000 C 
BRANCH   9  10
ATOM     10  N   UNL     1      -1.876  13.649  21.660  0.00  0.00    +0.000 NA
ATOM     11  C   UNL     1      -2.638  12.886  20.641  0.00  0.00    +0.000 C 
ATOM     12  C   UNL     1      -3.950  13.247  21.408  0.00  0.00    +0.000 C 
ATOM     13  C   UNL     1      -4.741  14.544  21.237  0.00  0.00    +0.000 C 
ATOM     14  C   UNL     1      -5.960  14.204  22.096  0.00  0.00    +0.000 C 
ATOM     15  C   UNL     1      -6.286  12.833  21.538  0.00  0.00    +0.000 C 
ATOM     16  O   UNL     1      -4.982  12.207  21.487  0.00  0.00    +0.000 OA
ATOM     17  C   UNL     1      -2.990  13.410  22.622  0.00  0.00    +0.000 C 
ENDBRANCH   9  10
ENDBRANCH   8   9
ENDBRANCH   1   5
BRANCH   1  18
ATOM     18  C   UNL     1       2.371   7.940  19.249  0.00  0.00    +0.000 C 
ATOM     19  C   UNL     1       2.248   6.453  19.677  0.00  0.00    +0.000 C 
ATOM     20  N   UNL     1       3.404   6.224  18.837  0.00  0.00    +0.000 N 
ATOM     21  C   UNL     1       4.069   5.048  18.569  0.00  0.00    +0.000 C 
ATOM     22  O   UNL     1       3.763   4.006  19.126  0.00  0.00    +0.000 OA
ATOM     23  C   UNL     1       3.205   7.433  18.056  0.00  0.00    +0.000 C 
BRANCH  21  24
ATOM     24  C   UNL     1       5.166   5.169  17.627  0.00  0.00    +0.000 A 
ATOM     25  N   UNL     1       6.351   5.707  17.849  0.00  0.00    +0.000 NA
ATOM     26  N   UNL     1       7.071   5.575  16.688  0.00  0.00    +0.000 NA
ATOM     27  C   UNL     1       6.277   4.969  15.827  0.00  0.00    +0.000 A 
ATOM     28  O   UNL     1       5.052   4.663  16.358  0.00  0.00    +0.000 OA
BRANCH  27  29
ATOM     29  C   UNL     1       6.512   4.617  14.436  0.00  0.00    +0.000 A 
ATOM     30  C   UNL     1       7.571   5.226  13.746  0.00  0.00    +0.000 A 
ATOM     31  C   UNL     1       7.794   4.954  12.396  0.00  0.00    +0.000 A 
ATOM     32  C   UNL     1       6.962   4.066  11.721  0.00  0.00    +0.000 A 
ATOM     33  C   UNL     1       5.917   3.437  12.398  0.00  0.00    +0.000 A 
ATOM     34  C   UNL     1       5.697   3.704  13.751  0.00  0.00    +0.000 A 
ENDBRANCH  27  29
ENDBRANCH  21  24
ENDBRANCH   1  18
TORSDOF 6
ENDMDL
MODEL 9
REMARK VINA RESULT:      -8.1      1.735      2.741
REMARK  Name = 
REMARK  7 active torsions:
REMARK  status: ('A' for Active; 'I' for Inactive)
REMARK    1  A    between atoms: C_1  and  C_2
REMARK    2  A    between atoms: C_4  and  O_5
REMARK    3  A    between atoms: O_5  and  C_6
REMARK    4  A    between atoms: C_9  and  C_11
REMARK    5  A    between atoms: C_14  and  C_15
REMARK    6  A    between atoms: C_25  and  C_26
REMARK    7  A    between atoms: C_26  and  N_27
REMARK                            x       y       z     vdW  Elec       q    Type
REMARK                         _______ _______ _______ _____ _____    ______ ____
ROOT
ATOM      1  O   UNL     1       3.002   6.950  18.476  0.00  0.00    +0.000 OA
ENDROOT
BRANCH   1   5
ATOM      2  C   UNL     1       0.641   8.881  22.093  0.00  0.00    +0.000 C 
ATOM      3  C   UNL     1       1.013   9.065  20.646  0.00  0.00    +0.000 A 
ATOM      4  C   UNL     1       1.779   8.023  20.097  0.00  0.00    +0.000 A 
ATOM      5  C   UNL     1       2.287   8.071  18.805  0.00  0.00    +0.000 A 
ATOM      6  C   UNL     1       2.048   9.189  18.024  0.00  0.00    +0.000 A 
ATOM      7  C   UNL     1       1.242  10.220  18.530  0.00  0.00    +0.000 A 
ATOM      8  C   UNL     1       0.681  10.169  19.828  0.00  0.00    +0.000 A 
BRANCH   8   9
ATOM      9  C   UNL     1      -0.162  11.354  20.283  0.00  0.00    +0.000 C 
BRANCH   9  10
ATOM     10  N   UNL     1      -1.496  11.461  19.656  0.00  0.00    +0.000 NA
ATOM     11  C   UNL     1      -1.579  12.440  18.544  0.00  0.00    +0.000 C 
ATOM     12  C   UNL     1      -2.370  11.375  17.719  0.00  0.00    +0.000 C 
ATOM     13  C   UNL     1      -3.877  11.133  17.810  0.00  0.00    +0.000 C 
ATOM     14  C   UNL     1      -4.036  10.135  16.663  0.00  0.00    +0.000 C 
ATOM     15  C   UNL     1      -3.274  10.872  15.580  0.00  0.00    +0.000 C 
ATOM     16  O   UNL     1      -2.083  11.298  16.282  0.00  0.00    +0.000 OA
ATOM     17  C   UNL     1      -1.650  10.364  18.658  0.00  0.00    +0.000 C 
ENDBRANCH   9  10
ENDBRANCH   8   9
ENDBRANCH   1   5
BRANCH   1  18
ATOM     18  C   UNL     1       4.280   7.074  17.837  0.00  0.00    +0.000 C 
ATOM     19  C   UNL     1       5.426   6.291  18.533  0.00  0.00    +0.000 C 
ATOM     20  N   UNL     1       5.849   5.930  17.197  0.00  0.00    +0.000 N 
ATOM     21  C   UNL     1       6.906   5.142  16.799  0.00  0.00    +0.000 C 
ATOM     22  O   UNL     1       7.703   4.696  17.609  0.00  0.00    +0.000 OA
ATOM     23  C   UNL     1       4.549   6.192  16.603  0.00  0.00    +0.000 C 
BRANCH  21  24
ATOM     24  C   UNL     1       7.008   4.938  15.366  0.00  0.00    +0.000 A 
ATOM     25  N   UNL     1       7.839   5.537  14.533  0.00  0.00    +0.000 NA
ATOM     26  N   UNL     1       7.600   5.012  13.287  0.00  0.00    +0.000 NA
ATOM     27  C   UNL     1       6.633   4.129  13.437  0.00  0.00    +0.000 A 
ATOM     28  O   UNL     1       6.215   4.013  14.737  0.00  0.00    +0.000 OA
BRANCH  27  29
ATOM     29  C   UNL     1       5.961   3.310  12.441  0.00  0.00    +0.000 A 
ATOM     30  C   UNL     1       6.644   2.223  11.876  0.00  0.00    +0.000 A 
ATOM     31  C   UNL     1       6.052   1.448  10.878  0.00  0.00    +0.000 A 
ATOM     32  C   UNL     1       4.766   1.749  10.437  0.00  0.00    +0.000 A 
ATOM     33  C   UNL     1       4.066   2.814  11.004  0.00  0.00    +0.000 A 
ATOM     34  C   UNL     1       4.656   3.587  12.006  0.00  0.00    +0.000 A 
ENDBRANCH  27  29
ENDBRANCH  21  24
ENDBRANCH   1  18
TORSDOF 6
ENDMDL
