MODEL 1
REMARK VINA RESULT:      -6.7      0.000      0.000
REMARK  Name = 
REMARK  8 active torsions:
REMARK  status: ('A' for Active; 'I' for Inactive)
REMARK    1  A    between atoms: C_1  and  O_2
REMARK    2  A    between atoms: O_2  and  C_3
REMARK    3  A    between atoms: C_6  and  C_7
REMARK    4  A    between atoms: C_7  and  C_8
REMARK    5  A    between atoms: C_8  and  N_9
REMARK    6  A    between atoms: C_10  and  C_12
REMARK    7  A    between atoms: C_12  and  S_13
REMARK    8  A    between atoms: S_13  and  C_14
REMARK                            x       y       z     vdW  Elec       q    Type
REMARK                         _______ _______ _______ _____ _____    ______ ____
ROOT
ATOM      1  N   UNL     1       7.460   6.927  18.249  0.00  0.00    +0.000 N 
ATOM      2  C   UNL     1       7.232   5.787  18.990  0.00  0.00    +0.000 C 
ATOM      3  O   UNL     1       7.828   5.561  20.045  0.00  0.00    +0.000 OA
ATOM      4  H   UNL     1       7.019   6.999  17.338  0.00  0.00    +0.000 HD
ENDROOT
BRANCH   1   5
ATOM      5  C   UNL     1       8.490   7.885  18.611  0.00  0.00    +0.000 C 
BRANCH   5   6
ATOM      6  C   UNL     1       8.261   9.263  17.980  0.00  0.00    +0.000 C 
BRANCH   6  10
ATOM      7  C   UNL     1      10.823  12.281  19.735  0.00  0.00    +0.000 A 
ATOM      8  C   UNL     1      10.774  12.104  18.352  0.00  0.00    +0.000 A 
ATOM      9  C   UNL     1       9.937  11.139  17.785  0.00  0.00    +0.000 A 
ATOM     10  C   UNL     1       9.141  10.322  18.598  0.00  0.00    +0.000 A 
ATOM     11  C   UNL     1       9.210  10.489  19.988  0.00  0.00    +0.000 A 
ATOM     12  C   UNL     1      10.044  11.463  20.554  0.00  0.00    +0.000 A 
BRANCH   7  14
ATOM     13  C   UNL     1      11.331  14.588  19.875  0.00  0.00    +0.000 C 
ATOM     14  O   UNL     1      11.691  13.244  20.172  0.00  0.00    +0.000 OA
ENDBRANCH   7  14
ENDBRANCH   6  10
ENDBRANCH   5   6
ENDBRANCH   1   5
BRANCH   2  15
ATOM     15  C   UNL     1       6.113   4.873  18.510  0.00  0.00    +0.000 C 
BRANCH  15  16
ATOM     16  S   UNL     1       5.072   5.612  17.229  0.00  0.00    +0.000 S 
BRANCH  16  17
ATOM     17  C   UNL     1       5.974   5.191  15.803  0.00  0.00    +0.000 A 
ATOM     18  N   UNL     1       5.586   4.244  14.901  0.00  0.00    +0.000 NA
ATOM     19  C   UNL     1       6.526   4.303  13.985  0.00  0.00    +0.000 A 
ATOM     20  N   UNL     1       7.443   5.240  14.343  0.00  0.00    +0.000 N 
ATOM     21  N   UNL     1       7.124   5.806  15.517  0.00  0.00    +0.000 NA
ATOM     22  H   UNL     1       8.277   5.545  13.851  0.00  0.00    +0.000 HD
ENDBRANCH  16  17
ENDBRANCH  15  16
ENDBRANCH   2  15
TORSDOF 7
ENDMDL
MODEL 2
REMARK VINA RESULT:      -6.6      5.393      6.868
REMARK  Name = 
REMARK  8 active torsions:
REMARK  status: ('A' for Active; 'I' for Inactive)
REMARK    1  A    between atoms: C_1  and  O_2
REMARK    2  A    between atoms: O_2  and  C_3
REMARK    3  A    between atoms: C_6  and  C_7
REMARK    4  A    between atoms: C_7  and  C_8
REMARK    5  A    between atoms: C_8  and  N_9
REMARK    6  A    between atoms: C_10  and  C_12
REMARK    7  A    between atoms: C_12  and  S_13
REMARK    8  A    between atoms: S_13  and  C_14
REMARK                            x       y       z     vdW  Elec       q    Type
REMARK                         _______ _______ _______ _____ _____    ______ ____
ROOT
ATOM      1  N   UNL     1       5.477   3.484  18.538  0.00  0.00    +0.000 N 
ATOM      2  C   UNL     1       6.295   4.552  18.839  0.00  0.00    +0.000 C 
ATOM      3  O   UNL     1       6.191   5.179  19.895  0.00  0.00    +0.000 OA
ATOM      4  H   UNL     1       5.540   3.083  17.609  0.00  0.00    +0.000 HD
ENDROOT
BRANCH   1   5
ATOM      5  C   UNL     1       4.375   3.093  19.400  0.00  0.00    +0.000 C 
BRANCH   5   6
ATOM      6  C   UNL     1       3.009   3.478  18.823  0.00  0.00    +0.000 C 
BRANCH   6  10
ATOM      7  C   UNL     1       1.949   7.590  19.670  0.00  0.00    +0.000 A 
ATOM      8  C   UNL     1       1.737   6.590  20.620  0.00  0.00    +0.000 A 
ATOM      9  C   UNL     1       2.092   5.265  20.350  0.00  0.00    +0.000 A 
ATOM     10  C   UNL     1       2.654   4.916  19.116  0.00  0.00    +0.000 A 
ATOM     11  C   UNL     1       2.845   5.921  18.158  0.00  0.00    +0.000 A 
ATOM     12  C   UNL     1       2.496   7.250  18.433  0.00  0.00    +0.000 A 
BRANCH   7  14
ATOM     13  C   UNL     1       0.574   8.904  21.079  0.00  0.00    +0.000 C 
ATOM     14  O   UNL     1       1.547   8.844  20.042  0.00  0.00    +0.000 OA
ENDBRANCH   7  14
ENDBRANCH   6  10
ENDBRANCH   5   6
ENDBRANCH   1   5
BRANCH   2  15
ATOM     15  C   UNL     1       7.421   4.846  17.858  0.00  0.00    +0.000 C 
BRANCH  15  16
ATOM     16  S   UNL     1       7.027   6.150  16.669  0.00  0.00    +0.000 S 
BRANCH  16  17
ATOM     17  C   UNL     1       6.773   5.204  15.232  0.00  0.00    +0.000 A 
ATOM     18  N   UNL     1       5.769   4.293  15.081  0.00  0.00    +0.000 NA
ATOM     19  C   UNL     1       5.934   3.871  13.847  0.00  0.00    +0.000 A 
ATOM     20  N   UNL     1       7.006   4.500  13.297  0.00  0.00    +0.000 N 
ATOM     21  N   UNL     1       7.575   5.341  14.174  0.00  0.00    +0.000 NA
ATOM     22  H   UNL     1       7.390   4.417  12.362  0.00  0.00    +0.000 HD
ENDBRANCH  16  17
ENDBRANCH  15  16
ENDBRANCH   2  15
TORSDOF 7
ENDMDL
MODEL 3
REMARK VINA RESULT:      -6.5      5.733      7.274
REMARK  Name = 
REMARK  8 active torsions:
REMARK  status: ('A' for Active; 'I' for Inactive)
REMARK    1  A    between atoms: C_1  and  O_2
REMARK    2  A    between atoms: O_2  and  C_3
REMARK    3  A    between atoms: C_6  and  C_7
REMARK    4  A    between atoms: C_7  and  C_8
REMARK    5  A    between atoms: C_8  and  N_9
REMARK    6  A    between atoms: C_10  and  C_12
REMARK    7  A    between atoms: C_12  and  S_13
REMARK    8  A    between atoms: S_13  and  C_14
REMARK                            x       y       z     vdW  Elec       q    Type
REMARK                         _______ _______ _______ _____ _____    ______ ____
ROOT
ATOM      1  N   UNL     1       4.239   3.591  17.659  0.00  0.00    +0.000 N 
ATOM      2  C   UNL     1       5.106   3.908  18.683  0.00  0.00    +0.000 C 
ATOM      3  O   UNL     1       5.182   3.231  19.710  0.00  0.00    +0.000 OA
ATOM      4  H   UNL     1       4.146   4.249  16.893  0.00  0.00    +0.000 HD
ENDROOT
BRANCH   1   5
ATOM      5  C   UNL     1       3.288   2.498  17.769  0.00  0.00    +0.000 C 
BRANCH   5   6
ATOM      6  C   UNL     1       1.864   2.983  18.064  0.00  0.00    +0.000 C 
BRANCH   6  10
ATOM      7  C   UNL     1       1.883   6.813  20.085  0.00  0.00    +0.000 A 
ATOM      8  C   UNL     1       2.059   6.736  18.703  0.00  0.00    +0.000 A 
ATOM      9  C   UNL     1       2.040   5.500  18.050  0.00  0.00    +0.000 A 
ATOM     10  C   UNL     1       1.856   4.316  18.774  0.00  0.00    +0.000 A 
ATOM     11  C   UNL     1       1.700   4.397  20.164  0.00  0.00    +0.000 A 
ATOM     12  C   UNL     1       1.712   5.638  20.816  0.00  0.00    +0.000 A 
BRANCH   7  14
ATOM     13  C   UNL     1       0.691   8.648  20.986  0.00  0.00    +0.000 C 
ATOM     14  O   UNL     1       1.938   8.075  20.612  0.00  0.00    +0.000 OA
ENDBRANCH   7  14
ENDBRANCH   6  10
ENDBRANCH   5   6
ENDBRANCH   1   5
BRANCH   2  15
ATOM     15  C   UNL     1       6.061   5.067  18.433  0.00  0.00    +0.000 C 
BRANCH  15  16
ATOM     16  S   UNL     1       7.613   4.572  17.648  0.00  0.00    +0.000 S 
BRANCH  16  17
ATOM     17  C   UNL     1       7.146   4.605  15.973  0.00  0.00    +0.000 A 
ATOM     18  N   UNL     1       6.281   3.720  15.400  0.00  0.00    +0.000 NA
ATOM     19  C   UNL     1       6.190   4.152  14.162  0.00  0.00    +0.000 A 
ATOM     20  N   UNL     1       6.986   5.242  14.007  0.00  0.00    +0.000 N 
ATOM     21  N   UNL     1       7.628   5.538  15.148  0.00  0.00    +0.000 NA
ATOM     22  H   UNL     1       7.130   5.822  13.188  0.00  0.00    +0.000 HD
ENDBRANCH  16  17
ENDBRANCH  15  16
ENDBRANCH   2  15
TORSDOF 7
ENDMDL
MODEL 4
REMARK VINA RESULT:      -6.4      5.131      6.585
REMARK  Name = 
REMARK  8 active torsions:
REMARK  status: ('A' for Active; 'I' for Inactive)
REMARK    1  A    between atoms: C_1  and  O_2
REMARK    2  A    between atoms: O_2  and  C_3
REMARK    3  A    between atoms: C_6  and  C_7
REMARK    4  A    between atoms: C_7  and  C_8
REMARK    5  A    between atoms: C_8  and  N_9
REMARK    6  A    between atoms: C_10  and  C_12
REMARK    7  A    between atoms: C_12  and  S_13
REMARK    8  A    between atoms: S_13  and  C_14
REMARK                            x       y       z     vdW  Elec       q    Type
REMARK                         _______ _______ _______ _____ _____    ______ ____
ROOT
ATOM      1  N   UNL     1       4.890   5.956  18.961  0.00  0.00    +0.000 N 
ATOM      2  C   UNL     1       5.872   5.032  19.248  0.00  0.00    +0.000 C 
ATOM      3  O   UNL     1       5.630   3.827  19.338  0.00  0.00    +0.000 OA
ATOM      4  H   UNL     1       5.133   6.940  19.010  0.00  0.00    +0.000 HD
ENDROOT
BRANCH   1   5
ATOM      5  C   UNL     1       3.491   5.581  18.846  0.00  0.00    +0.000 C 
BRANCH   5   6
ATOM      6  C   UNL     1       2.709   6.501  17.902  0.00  0.00    +0.000 C 
BRANCH   6  10
ATOM      7  C   UNL     1       0.919   9.843  19.994  0.00  0.00    +0.000 A 
ATOM      8  C   UNL     1       1.138   9.899  18.617  0.00  0.00    +0.000 A 
ATOM      9  C   UNL     1       1.704   8.815  17.940  0.00  0.00    +0.000 A 
ATOM     10  C   UNL     1       2.073   7.657  18.636  0.00  0.00    +0.000 A 
ATOM     11  C   UNL     1       1.870   7.614  20.021  0.00  0.00    +0.000 A 
ATOM     12  C   UNL     1       1.296   8.699  20.697  0.00  0.00    +0.000 A 
BRANCH   7  14
ATOM     13  C   UNL     1      -0.243  11.873  19.636  0.00  0.00    +0.000 C 
ATOM     14  O   UNL     1       0.376  10.971  20.546  0.00  0.00    +0.000 OA
ENDBRANCH   7  14
ENDBRANCH   6  10
ENDBRANCH   5   6
ENDBRANCH   1   5
BRANCH   2  15
ATOM     15  C   UNL     1       7.299   5.556  19.327  0.00  0.00    +0.000 C 
BRANCH  15  16
ATOM     16  S   UNL     1       7.687   6.798  18.071  0.00  0.00    +0.000 S 
BRANCH  16  17
ATOM     17  C   UNL     1       7.072   6.013  16.646  0.00  0.00    +0.000 A 
ATOM     18  N   UNL     1       7.584   4.863  16.122  0.00  0.00    +0.000 NA
ATOM     19  C   UNL     1       6.788   4.621  15.104  0.00  0.00    +0.000 A 
ATOM     20  N   UNL     1       5.852   5.602  15.022  0.00  0.00    +0.000 N 
ATOM     21  N   UNL     1       6.027   6.519  15.986  0.00  0.00    +0.000 NA
ATOM     22  H   UNL     1       5.084   5.705  14.368  0.00  0.00    +0.000 HD
ENDBRANCH  16  17
ENDBRANCH  15  16
ENDBRANCH   2  15
TORSDOF 7
ENDMDL
MODEL 5
REMARK VINA RESULT:      -6.3      4.124      6.533
REMARK  Name = 
REMARK  8 active torsions:
REMARK  status: ('A' for Active; 'I' for Inactive)
REMARK    1  A    between atoms: C_1  and  O_2
REMARK    2  A    between atoms: O_2  and  C_3
REMARK    3  A    between atoms: C_6  and  C_7
REMARK    4  A    between atoms: C_7  and  C_8
REMARK    5  A    between atoms: C_8  and  N_9
REMARK    6  A    between atoms: C_10  and  C_12
REMARK    7  A    between atoms: C_12  and  S_13
REMARK    8  A    between atoms: S_13  and  C_14
REMARK                            x       y       z     vdW  Elec       q    Type
REMARK                         _______ _______ _______ _____ _____    ______ ____
ROOT
ATOM      1  N   UNL     1       3.258   2.877  18.608  0.00  0.00    +0.000 N 
ATOM      2  C   UNL     1       3.626   2.543  19.894  0.00  0.00    +0.000 C 
ATOM      3  O   UNL     1       4.774   2.192  20.176  0.00  0.00    +0.000 OA
ATOM      4  H   UNL     1       2.276   3.049  18.423  0.00  0.00    +0.000 HD
ENDROOT
BRANCH   1   5
ATOM      5  C   UNL     1       4.171   2.739  17.486  0.00  0.00    +0.000 C 
BRANCH   5   6
ATOM      6  C   UNL     1       4.218   3.993  16.606  0.00  0.00    +0.000 C 
BRANCH   6  10
ATOM      7  C   UNL     1       7.299   6.743  17.908  0.00  0.00    +0.000 A 
ATOM      8  C   UNL     1       7.247   5.442  18.410  0.00  0.00    +0.000 A 
ATOM      9  C   UNL     1       6.261   4.551  17.979  0.00  0.00    +0.000 A 
ATOM     10  C   UNL     1       5.297   4.953  17.045  0.00  0.00    +0.000 A 
ATOM     11  C   UNL     1       5.341   6.267  16.561  0.00  0.00    +0.000 A 
ATOM     12  C   UNL     1       6.336   7.157  16.988  0.00  0.00    +0.000 A 
BRANCH   7  14
ATOM     13  C   UNL     1       8.222   8.913  18.107  0.00  0.00    +0.000 C 
ATOM     14  O   UNL     1       8.299   7.526  18.417  0.00  0.00    +0.000 OA
ENDBRANCH   7  14
ENDBRANCH   6  10
ENDBRANCH   5   6
ENDBRANCH   1   5
BRANCH   2  15
ATOM     15  C   UNL     1       2.578   2.748  20.978  0.00  0.00    +0.000 C 
BRANCH  15  16
ATOM     16  S   UNL     1       1.099   3.617  20.405  0.00  0.00    +0.000 S 
BRANCH  16  17
ATOM     17  C   UNL     1       1.755   5.200  20.110  0.00  0.00    +0.000 A 
ATOM     18  N   UNL     1       2.313   5.593  18.929  0.00  0.00    +0.000 NA
ATOM     19  C   UNL     1       2.615   6.853  19.147  0.00  0.00    +0.000 A 
ATOM     20  N   UNL     1       2.263   7.186  20.416  0.00  0.00    +0.000 N 
ATOM     21  N   UNL     1       1.731   6.137  21.062  0.00  0.00    +0.000 NA
ATOM     22  H   UNL     1       2.342   8.078  20.892  0.00  0.00    +0.000 HD
ENDBRANCH  16  17
ENDBRANCH  15  16
ENDBRANCH   2  15
TORSDOF 7
ENDMDL
MODEL 6
REMARK VINA RESULT:      -6.3      5.758      6.845
REMARK  Name = 
REMARK  8 active torsions:
REMARK  status: ('A' for Active; 'I' for Inactive)
REMARK    1  A    between atoms: C_1  and  O_2
REMARK    2  A    between atoms: O_2  and  C_3
REMARK    3  A    between atoms: C_6  and  C_7
REMARK    4  A    between atoms: C_7  and  C_8
REMARK    5  A    between atoms: C_8  and  N_9
REMARK    6  A    between atoms: C_10  and  C_12
REMARK    7  A    between atoms: C_12  and  S_13
REMARK    8  A    between atoms: S_13  and  C_14
REMARK                            x       y       z     vdW  Elec       q    Type
REMARK                         _______ _______ _______ _____ _____    ______ ____
ROOT
ATOM      1  N   UNL     1       5.343   3.576  18.477  0.00  0.00    +0.000 N 
ATOM      2  C   UNL     1       6.246   4.587  18.225  0.00  0.00    +0.000 C 
ATOM      3  O   UNL     1       6.482   5.474  19.047  0.00  0.00    +0.000 OA
ATOM      4  H   UNL     1       5.113   2.943  17.719  0.00  0.00    +0.000 HD
ENDROOT
BRANCH   1   5
ATOM      5  C   UNL     1       4.539   3.547  19.686  0.00  0.00    +0.000 C 
BRANCH   5   6
ATOM      6  C   UNL     1       3.044   3.727  19.405  0.00  0.00    +0.000 C 
BRANCH   6  10
ATOM      7  C   UNL     1       1.769   7.851  19.751  0.00  0.00    +0.000 A 
ATOM      8  C   UNL     1       1.506   6.936  20.771  0.00  0.00    +0.000 A 
ATOM      9  C   UNL     1       1.929   5.608  20.664  0.00  0.00    +0.000 A 
ATOM     10  C   UNL     1       2.615   5.170  19.524  0.00  0.00    +0.000 A 
ATOM     11  C   UNL     1       2.858   6.088  18.494  0.00  0.00    +0.000 A 
ATOM     12  C   UNL     1       2.439   7.420  18.606  0.00  0.00    +0.000 A 
BRANCH   7  14
ATOM     13  C   UNL     1       1.084   9.484  21.321  0.00  0.00    +0.000 C 
ATOM     14  O   UNL     1       1.291   9.116  19.963  0.00  0.00    +0.000 OA
ENDBRANCH   7  14
ENDBRANCH   6  10
ENDBRANCH   5   6
ENDBRANCH   1   5
BRANCH   2  15
ATOM     15  C   UNL     1       7.035   4.489  16.927  0.00  0.00    +0.000 C 
BRANCH  15  16
ATOM     16  S   UNL     1       6.055   3.904  15.523  0.00  0.00    +0.000 S 
BRANCH  16  17
ATOM     17  C   UNL     1       6.964   4.574  14.200  0.00  0.00    +0.000 A 
ATOM     18  N   UNL     1       6.817   4.194  12.898  0.00  0.00    +0.000 NA
ATOM     19  C   UNL     1       7.651   4.985  12.262  0.00  0.00    +0.000 A 
ATOM     20  N   UNL     1       8.278   5.791  13.159  0.00  0.00    +0.000 N 
ATOM     21  N   UNL     1       7.872   5.530  14.411  0.00  0.00    +0.000 NA
ATOM     22  H   UNL     1       8.961   6.523  12.998  0.00  0.00    +0.000 HD
ENDBRANCH  16  17
ENDBRANCH  15  16
ENDBRANCH   2  15
TORSDOF 7
ENDMDL
MODEL 7
REMARK VINA RESULT:      -6.3      6.748      8.197
REMARK  Name = 
REMARK  8 active torsions:
REMARK  status: ('A' for Active; 'I' for Inactive)
REMARK    1  A    between atoms: C_1  and  O_2
REMARK    2  A    between atoms: O_2  and  C_3
REMARK    3  A    between atoms: C_6  and  C_7
REMARK    4  A    between atoms: C_7  and  C_8
REMARK    5  A    between atoms: C_8  and  N_9
REMARK    6  A    between atoms: C_10  and  C_12
REMARK    7  A    between atoms: C_12  and  S_13
REMARK    8  A    between atoms: S_13  and  C_14
REMARK                            x       y       z     vdW  Elec       q    Type
REMARK                         _______ _______ _______ _____ _____    ______ ____
ROOT
ATOM      1  N   UNL     1       3.035   5.178  18.337  0.00  0.00    +0.000 N 
ATOM      2  C   UNL     1       4.075   4.348  17.975  0.00  0.00    +0.000 C 
ATOM      3  O   UNL     1       5.246   4.602  18.263  0.00  0.00    +0.000 OA
ATOM      4  H   UNL     1       2.111   4.969  17.974  0.00  0.00    +0.000 HD
ENDROOT
BRANCH   1   5
ATOM      5  C   UNL     1       3.262   6.454  18.993  0.00  0.00    +0.000 C 
BRANCH   5   6
ATOM      6  C   UNL     1       2.614   7.624  18.246  0.00  0.00    +0.000 C 
BRANCH   6  10
ATOM      7  C   UNL     1       0.083   9.982  20.851  0.00  0.00    +0.000 A 
ATOM      8  C   UNL     1       0.761   8.864  21.338  0.00  0.00    +0.000 A 
ATOM      9  C   UNL     1       1.588   8.111  20.499  0.00  0.00    +0.000 A 
ATOM     10  C   UNL     1       1.740   8.459  19.152  0.00  0.00    +0.000 A 
ATOM     11  C   UNL     1       1.041   9.571  18.663  0.00  0.00    +0.000 A 
ATOM     12  C   UNL     1       0.219  10.329  19.507  0.00  0.00    +0.000 A 
BRANCH   7  14
ATOM     13  C   UNL     1      -0.722  10.080  23.074  0.00  0.00    +0.000 C 
ATOM     14  O   UNL     1      -0.708  10.628  21.761  0.00  0.00    +0.000 OA
ENDBRANCH   7  14
ENDBRANCH   6  10
ENDBRANCH   5   6
ENDBRANCH   1   5
BRANCH   2  15
ATOM     15  C   UNL     1       3.698   3.033  17.307  0.00  0.00    +0.000 C 
BRANCH  15  16
ATOM     16  S   UNL     1       3.441   1.674  18.473  0.00  0.00    +0.000 S 
BRANCH  16  17
ATOM     17  C   UNL     1       2.273   2.390  19.544  0.00  0.00    +0.000 A 
ATOM     18  N   UNL     1       2.545   2.788  20.820  0.00  0.00    +0.000 NA
ATOM     19  C   UNL     1       1.404   3.305  21.220  0.00  0.00    +0.000 A 
ATOM     20  N   UNL     1       0.490   3.200  20.220  0.00  0.00    +0.000 N 
ATOM     21  N   UNL     1       1.016   2.595  19.144  0.00  0.00    +0.000 NA
ATOM     22  H   UNL     1      -0.474   3.515  20.195  0.00  0.00    +0.000 HD
ENDBRANCH  16  17
ENDBRANCH  15  16
ENDBRANCH   2  15
TORSDOF 7
ENDMDL
MODEL 8
REMARK VINA RESULT:      -6.2      1.681      1.959
REMARK  Name = 
REMARK  8 active torsions:
REMARK  status: ('A' for Active; 'I' for Inactive)
REMARK    1  A    between atoms: C_1  and  O_2
REMARK    2  A    between atoms: O_2  and  C_3
REMARK    3  A    between atoms: C_6  and  C_7
REMARK    4  A    between atoms: C_7  and  C_8
REMARK    5  A    between atoms: C_8  and  N_9
REMARK    6  A    between atoms: C_10  and  C_12
REMARK    7  A    between atoms: C_12  and  S_13
REMARK    8  A    between atoms: S_13  and  C_14
REMARK                            x       y       z     vdW  Elec       q    Type
REMARK                         _______ _______ _______ _____ _____    ______ ____
ROOT
ATOM      1  N   UNL     1       7.800   7.222  17.568  0.00  0.00    +0.000 N 
ATOM      2  C   UNL     1       6.602   6.555  17.422  0.00  0.00    +0.000 C 
ATOM      3  O   UNL     1       5.531   7.152  17.299  0.00  0.00    +0.000 OA
ATOM      4  H   UNL     1       8.628   6.674  17.775  0.00  0.00    +0.000 HD
ENDROOT
BRANCH   1   5
ATOM      5  C   UNL     1       7.864   8.668  17.690  0.00  0.00    +0.000 C 
BRANCH   5   6
ATOM      6  C   UNL     1       8.744   9.123  18.859  0.00  0.00    +0.000 C 
BRANCH   6  10
ATOM      7  C   UNL     1      10.050  13.231  18.444  0.00  0.00    +0.000 A 
ATOM      8  C   UNL     1      10.627  12.393  19.400  0.00  0.00    +0.000 A 
ATOM      9  C   UNL     1      10.214  11.064  19.524  0.00  0.00    +0.000 A 
ATOM     10  C   UNL     1       9.204  10.552  18.699  0.00  0.00    +0.000 A 
ATOM     11  C   UNL     1       8.613  11.404  17.756  0.00  0.00    +0.000 A 
ATOM     12  C   UNL     1       9.034  12.734  17.628  0.00  0.00    +0.000 A 
BRANCH   7  14
ATOM     13  C   UNL     1      11.015  14.982  17.178  0.00  0.00    +0.000 C 
ATOM     14  O   UNL     1      10.525  14.514  18.429  0.00  0.00    +0.000 OA
ENDBRANCH   7  14
ENDBRANCH   6  10
ENDBRANCH   5   6
ENDBRANCH   1   5
BRANCH   2  15
ATOM     15  C   UNL     1       6.677   5.040  17.291  0.00  0.00    +0.000 C 
BRANCH  15  16
ATOM     16  S   UNL     1       5.642   4.374  15.966  0.00  0.00    +0.000 S 
BRANCH  16  17
ATOM     17  C   UNL     1       6.651   4.687  14.585  0.00  0.00    +0.000 A 
ATOM     18  N   UNL     1       6.473   4.117  13.359  0.00  0.00    +0.000 NA
ATOM     19  C   UNL     1       7.416   4.674  12.632  0.00  0.00    +0.000 A 
ATOM     20  N   UNL     1       8.133   5.529  13.406  0.00  0.00    +0.000 N 
ATOM     21  N   UNL     1       7.678   5.537  14.669  0.00  0.00    +0.000 NA
ATOM     22  H   UNL     1       8.912   6.128  13.153  0.00  0.00    +0.000 HD
ENDBRANCH  16  17
ENDBRANCH  15  16
ENDBRANCH   2  15
TORSDOF 7
ENDMDL
MODEL 9
REMARK VINA RESULT:      -6.2      5.082      7.154
REMARK  Name = 
REMARK  8 active torsions:
REMARK  status: ('A' for Active; 'I' for Inactive)
REMARK    1  A    between atoms: C_1  and  O_2
REMARK    2  A    between atoms: O_2  and  C_3
REMARK    3  A    between atoms: C_6  and  C_7
REMARK    4  A    between atoms: C_7  and  C_8
REMARK    5  A    between atoms: C_8  and  N_9
REMARK    6  A    between atoms: C_10  and  C_12
REMARK    7  A    between atoms: C_12  and  S_13
REMARK    8  A    between atoms: S_13  and  C_14
REMARK                            x       y       z     vdW  Elec       q    Type
REMARK                         _______ _______ _______ _____ _____    ______ ____
ROOT
ATOM      1  N   UNL     1       3.411   5.289  17.371  0.00  0.00    +0.000 N 
ATOM      2  C   UNL     1       4.284   4.295  16.985  0.00  0.00    +0.000 C 
ATOM      3  O   UNL     1       4.356   3.219  17.581  0.00  0.00    +0.000 OA
ATOM      4  H   UNL     1       3.480   6.189  16.908  0.00  0.00    +0.000 HD
ENDROOT
BRANCH   1   5
ATOM      5  C   UNL     1       2.592   5.173  18.565  0.00  0.00    +0.000 C 
BRANCH   5   6
ATOM      6  C   UNL     1       2.961   6.204  19.636  0.00  0.00    +0.000 C 
BRANCH   6  10
ATOM      7  C   UNL     1       0.799   9.919  19.103  0.00  0.00    +0.000 A 
ATOM      8  C   UNL     1       0.798   9.264  20.335  0.00  0.00    +0.000 A 
ATOM      9  C   UNL     1       1.507   8.072  20.510  0.00  0.00    +0.000 A 
ATOM     10  C   UNL     1       2.221   7.507  19.446  0.00  0.00    +0.000 A 
ATOM     11  C   UNL     1       2.202   8.157  18.205  0.00  0.00    +0.000 A 
ATOM     12  C   UNL     1       1.497   9.356  18.034  0.00  0.00    +0.000 A 
BRANCH   7  14
ATOM     13  C   UNL     1      -0.564  11.464  20.266  0.00  0.00    +0.000 C 
ATOM     14  O   UNL     1       0.057  11.067  19.049  0.00  0.00    +0.000 OA
ENDBRANCH   7  14
ENDBRANCH   6  10
ENDBRANCH   5   6
ENDBRANCH   1   5
BRANCH   2  15
ATOM     15  C   UNL     1       5.072   4.538  15.706  0.00  0.00    +0.000 C 
BRANCH  15  16
ATOM     16  S   UNL     1       6.836   4.169  15.858  0.00  0.00    +0.000 S 
BRANCH  16  17
ATOM     17  C   UNL     1       7.279   5.254  17.142  0.00  0.00    +0.000 A 
ATOM     18  N   UNL     1       7.501   4.868  18.431  0.00  0.00    +0.000 NA
ATOM     19  C   UNL     1       7.851   5.989  19.021  0.00  0.00    +0.000 A 
ATOM     20  N   UNL     1       7.821   7.002  18.116  0.00  0.00    +0.000 N 
ATOM     21  N   UNL     1       7.433   6.560  16.909  0.00  0.00    +0.000 NA
ATOM     22  H   UNL     1       8.052   7.982  18.239  0.00  0.00    +0.000 HD
ENDBRANCH  16  17
ENDBRANCH  15  16
ENDBRANCH   2  15
TORSDOF 7
ENDMDL
