MODEL 1
REMARK VINA RESULT:      -7.7      0.000      0.000
REMARK  Name = 
REMARK  7 active torsions:
REMARK  status: ('A' for Active; 'I' for Inactive)
REMARK    1  A    between atoms: C_1  and  N_2
REMARK    2  A    between atoms: N_2  and  S_3
REMARK    3  A    between atoms: S_3  and  C_6
REMARK    4  A    between atoms: C_10  and  C_11
REMARK    5  A    between atoms: C_11  and  N_12
REMARK    6  A    between atoms: N_15  and  C_16
REMARK    7  A    between atoms: C_16  and  C_17
REMARK                            x       y       z     vdW  Elec       q    Type
REMARK                         _______ _______ _______ _____ _____    ______ ____
ROOT
ATOM      1  C   UNL     1       6.884   5.829  16.698  0.00  0.00    +0.000 C 
ENDROOT
BRANCH   1   6
ATOM      2  C   UNL     1       4.061   3.973  18.483  0.00  0.00    +0.000 A 
ATOM      3  C   UNL     1       3.049   4.937  18.494  0.00  0.00    +0.000 A 
ATOM      4  C   UNL     1       3.292   6.190  17.936  0.00  0.00    +0.000 A 
ATOM      5  C   UNL     1       4.538   6.476  17.371  0.00  0.00    +0.000 A 
ATOM      6  C   UNL     1       5.565   5.517  17.361  0.00  0.00    +0.000 A 
ATOM      7  C   UNL     1       5.320   4.261  17.934  0.00  0.00    +0.000 A 
BRANCH   2   8
ATOM      8  S   UNL     1       3.780   2.407  19.265  0.00  0.00    +0.000 S 
ATOM      9  O   UNL     1       4.787   2.225  20.288  0.00  0.00    +0.000 OA
ATOM     10  O   UNL     1       3.563   1.410  18.236  0.00  0.00    +0.000 OA
BRANCH   8  12
ATOM     11  C   UNL     1       2.376   2.900  21.518  0.00  0.00    +0.000 C 
ATOM     12  N   UNL     1       2.328   2.639  20.084  0.00  0.00    +0.000 NA
ATOM     13  H   UNL     1       1.672   3.187  19.527  0.00  0.00    +0.000 HD
ENDBRANCH   8  12
ENDBRANCH   2   8
ENDBRANCH   1   6
BRANCH   1  14
ATOM     14  N   UNL     1       7.198   7.237  16.773  0.00  0.00    +0.000 N 
ATOM     15  C   UNL     1       7.917   7.734  17.830  0.00  0.00    +0.000 C 
ATOM     16  O   UNL     1       8.381   7.054  18.734  0.00  0.00    +0.000 OA
ATOM     17  N   UNL     1       8.047   9.091  17.740  0.00  0.00    +0.000 N 
ATOM     18  H   UNL     1       6.518   7.868  16.375  0.00  0.00    +0.000 HD
ATOM     19  H   UNL     1       7.737   9.533  16.886  0.00  0.00    +0.000 HD
BRANCH  17  20
ATOM     20  C   UNL     1       8.715   9.908  18.731  0.00  0.00    +0.000 C 
BRANCH  20  21
ATOM     21  C   UNL     1       9.583  11.017  18.118  0.00  0.00    +0.000 C 
ATOM     22  C   UNL     1      10.702  11.489  19.026  0.00  0.00    +0.000 C 
ATOM     23  C   UNL     1      10.080  12.626  19.809  0.00  0.00    +0.000 C 
ATOM     24  O   UNL     1       8.984  13.134  19.035  0.00  0.00    +0.000 OA
ATOM     25  C   UNL     1       8.808  12.303  17.879  0.00  0.00    +0.000 C 
ENDBRANCH  20  21
ENDBRANCH  17  20
ENDBRANCH   1  14
TORSDOF 6
ENDMDL
MODEL 2
REMARK VINA RESULT:      -7.3      5.790      8.361
REMARK  Name = 
REMARK  7 active torsions:
REMARK  status: ('A' for Active; 'I' for Inactive)
REMARK    1  A    between atoms: C_1  and  N_2
REMARK    2  A    between atoms: N_2  and  S_3
REMARK    3  A    between atoms: S_3  and  C_6
REMARK    4  A    between atoms: C_10  and  C_11
REMARK    5  A    between atoms: C_11  and  N_12
REMARK    6  A    between atoms: N_15  and  C_16
REMARK    7  A    between atoms: C_16  and  C_17
REMARK                            x       y       z     vdW  Elec       q    Type
REMARK                         _______ _______ _______ _____ _____    ______ ____
ROOT
ATOM      1  C   UNL     1       2.870   8.700  18.155  0.00  0.00    +0.000 C 
ENDROOT
BRANCH   1   6
ATOM      2  C   UNL     1       5.017   5.782  16.939  0.00  0.00    +0.000 A 
ATOM      3  C   UNL     1       4.173   4.693  17.168  0.00  0.00    +0.000 A 
ATOM      4  C   UNL     1       2.916   4.908  17.730  0.00  0.00    +0.000 A 
ATOM      5  C   UNL     1       2.508   6.203  18.061  0.00  0.00    +0.000 A 
ATOM      6  C   UNL     1       3.352   7.305  17.841  0.00  0.00    +0.000 A 
ATOM      7  C   UNL     1       4.621   7.083  17.285  0.00  0.00    +0.000 A 
BRANCH   2   8
ATOM      8  S   UNL     1       6.646   5.501  16.299  0.00  0.00    +0.000 S 
ATOM      9  O   UNL     1       7.098   4.207  16.765  0.00  0.00    +0.000 OA
ATOM     10  O   UNL     1       7.438   6.695  16.513  0.00  0.00    +0.000 OA
BRANCH   8  12
ATOM     11  C   UNL     1       6.310   3.984  14.091  0.00  0.00    +0.000 C 
ATOM     12  N   UNL     1       6.388   5.331  14.646  0.00  0.00    +0.000 NA
ATOM     13  H   UNL     1       5.721   6.022  14.302  0.00  0.00    +0.000 HD
ENDBRANCH   8  12
ENDBRANCH   2   8
ENDBRANCH   1   6
BRANCH   1  14
ATOM     14  N   UNL     1       1.564   8.951  17.591  0.00  0.00    +0.000 N 
ATOM     15  C   UNL     1       0.657   9.732  18.261  0.00  0.00    +0.000 C 
ATOM     16  O   UNL     1       0.879  10.302  19.319  0.00  0.00    +0.000 OA
ATOM     17  N   UNL     1      -0.531   9.789  17.588  0.00  0.00    +0.000 N 
ATOM     18  H   UNL     1       1.171   8.212  17.029  0.00  0.00    +0.000 HD
ATOM     19  H   UNL     1      -0.562   9.388  16.661  0.00  0.00    +0.000 HD
BRANCH  17  20
ATOM     20  C   UNL     1      -1.700  10.498  18.066  0.00  0.00    +0.000 C 
BRANCH  20  21
ATOM     21  C   UNL     1      -3.017   9.947  17.501  0.00  0.00    +0.000 C 
ATOM     22  C   UNL     1      -2.958   9.619  16.022  0.00  0.00    +0.000 C 
ATOM     23  C   UNL     1      -3.390  10.904  15.347  0.00  0.00    +0.000 C 
ATOM     24  O   UNL     1      -4.171  11.647  16.293  0.00  0.00    +0.000 OA
ATOM     25  C   UNL     1      -4.147  10.963  17.554  0.00  0.00    +0.000 C 
ENDBRANCH  20  21
ENDBRANCH  17  20
ENDBRANCH   1  14
TORSDOF 6
ENDMDL
MODEL 3
REMARK VINA RESULT:      -7.3      1.143      1.277
REMARK  Name = 
REMARK  7 active torsions:
REMARK  status: ('A' for Active; 'I' for Inactive)
REMARK    1  A    between atoms: C_1  and  N_2
REMARK    2  A    between atoms: N_2  and  S_3
REMARK    3  A    between atoms: S_3  and  C_6
REMARK    4  A    between atoms: C_10  and  C_11
REMARK    5  A    between atoms: C_11  and  N_12
REMARK    6  A    between atoms: N_15  and  C_16
REMARK    7  A    between atoms: C_16  and  C_17
REMARK                            x       y       z     vdW  Elec       q    Type
REMARK                         _______ _______ _______ _____ _____    ______ ____
ROOT
ATOM      1  C   UNL     1       7.204   5.599  17.539  0.00  0.00    +0.000 C 
ENDROOT
BRANCH   1   6
ATOM      2  C   UNL     1       4.067   3.954  18.971  0.00  0.00    +0.000 A 
ATOM      3  C   UNL     1       3.080   4.886  18.640  0.00  0.00    +0.000 A 
ATOM      4  C   UNL     1       3.439   6.051  17.967  0.00  0.00    +0.000 A 
ATOM      5  C   UNL     1       4.775   6.282  17.628  0.00  0.00    +0.000 A 
ATOM      6  C   UNL     1       5.776   5.355  17.962  0.00  0.00    +0.000 A 
ATOM      7  C   UNL     1       5.413   4.188  18.650  0.00  0.00    +0.000 A 
BRANCH   2   8
ATOM      8  S   UNL     1       3.624   2.509  19.899  0.00  0.00    +0.000 S 
ATOM      9  O   UNL     1       4.827   1.964  20.490  0.00  0.00    +0.000 OA
ATOM     10  O   UNL     1       2.747   1.690  19.087  0.00  0.00    +0.000 OA
BRANCH   8  12
ATOM     11  C   UNL     1       1.318   2.758  21.282  0.00  0.00    +0.000 C 
ATOM     12  N   UNL     1       2.725   3.132  21.177  0.00  0.00    +0.000 NA
ATOM     13  H   UNL     1       3.271   3.156  22.038  0.00  0.00    +0.000 HD
ENDBRANCH   8  12
ENDBRANCH   2   8
ENDBRANCH   1   6
BRANCH   1  14
ATOM     14  N   UNL     1       7.847   6.585  18.377  0.00  0.00    +0.000 N 
ATOM     15  C   UNL     1       7.957   7.887  17.959  0.00  0.00    +0.000 C 
ATOM     16  O   UNL     1       7.495   8.321  16.914  0.00  0.00    +0.000 OA
ATOM     17  N   UNL     1       8.650   8.636  18.868  0.00  0.00    +0.000 N 
ATOM     18  H   UNL     1       8.597   6.251  18.963  0.00  0.00    +0.000 HD
ATOM     19  H   UNL     1       8.871   8.206  19.755  0.00  0.00    +0.000 HD
BRANCH  17  20
ATOM     20  C   UNL     1       8.970  10.036  18.687  0.00  0.00    +0.000 C 
BRANCH  20  21
ATOM     21  C   UNL     1       9.970  10.569  19.724  0.00  0.00    +0.000 C 
ATOM     22  C   UNL     1       9.317  11.271  20.898  0.00  0.00    +0.000 C 
ATOM     23  C   UNL     1       9.242  12.719  20.461  0.00  0.00    +0.000 C 
ATOM     24  O   UNL     1      10.252  12.921  19.463  0.00  0.00    +0.000 OA
ATOM     25  C   UNL     1      10.868  11.661  19.164  0.00  0.00    +0.000 C 
ENDBRANCH  20  21
ENDBRANCH  17  20
ENDBRANCH   1  14
TORSDOF 6
ENDMDL
MODEL 4
REMARK VINA RESULT:      -7.1      1.378      1.628
REMARK  Name = 
REMARK  7 active torsions:
REMARK  status: ('A' for Active; 'I' for Inactive)
REMARK    1  A    between atoms: C_1  and  N_2
REMARK    2  A    between atoms: N_2  and  S_3
REMARK    3  A    between atoms: S_3  and  C_6
REMARK    4  A    between atoms: C_10  and  C_11
REMARK    5  A    between atoms: C_11  and  N_12
REMARK    6  A    between atoms: N_15  and  C_16
REMARK    7  A    between atoms: C_16  and  C_17
REMARK                            x       y       z     vdW  Elec       q    Type
REMARK                         _______ _______ _______ _____ _____    ______ ____
ROOT
ATOM      1  C   UNL     1       6.189   6.286  16.795  0.00  0.00    +0.000 C 
ENDROOT
BRANCH   1   6
ATOM      2  C   UNL     1       3.131   5.029  18.712  0.00  0.00    +0.000 A 
ATOM      3  C   UNL     1       2.291   6.145  18.671  0.00  0.00    +0.000 A 
ATOM      4  C   UNL     1       2.726   7.305  18.034  0.00  0.00    +0.000 A 
ATOM      5  C   UNL     1       3.992   7.349  17.444  0.00  0.00    +0.000 A 
ATOM      6  C   UNL     1       4.848   6.235  17.486  0.00  0.00    +0.000 A 
ATOM      7  C   UNL     1       4.410   5.072  18.138  0.00  0.00    +0.000 A 
BRANCH   2   8
ATOM      8  S   UNL     1       2.611   3.580  19.592  0.00  0.00    +0.000 S 
ATOM      9  O   UNL     1       1.478   3.011  18.895  0.00  0.00    +0.000 OA
ATOM     10  O   UNL     1       2.545   3.897  21.004  0.00  0.00    +0.000 OA
BRANCH   8  12
ATOM     11  C   UNL     1       3.668   1.357  18.483  0.00  0.00    +0.000 C 
ATOM     12  N   UNL     1       3.885   2.507  19.354  0.00  0.00    +0.000 NA
ATOM     13  H   UNL     1       4.774   2.999  19.272  0.00  0.00    +0.000 HD
ENDBRANCH   8  12
ENDBRANCH   2   8
ENDBRANCH   1   6
BRANCH   1  14
ATOM     14  N   UNL     1       6.797   7.591  16.908  0.00  0.00    +0.000 N 
ATOM     15  C   UNL     1       7.727   7.842  17.884  0.00  0.00    +0.000 C 
ATOM     16  O   UNL     1       8.144   7.010  18.675  0.00  0.00    +0.000 OA
ATOM     17  N   UNL     1       8.126   9.149  17.855  0.00  0.00    +0.000 N 
ATOM     18  H   UNL     1       6.221   8.376  16.643  0.00  0.00    +0.000 HD
ATOM     19  H   UNL     1       7.814   9.715  17.079  0.00  0.00    +0.000 HD
BRANCH  17  20
ATOM     20  C   UNL     1       9.066   9.729  18.791  0.00  0.00    +0.000 C 
BRANCH  20  21
ATOM     21  C   UNL     1       9.823  10.938  18.221  0.00  0.00    +0.000 C 
ATOM     22  C   UNL     1      10.830  11.537  19.183  0.00  0.00    +0.000 C 
ATOM     23  C   UNL     1      10.038  12.588  19.932  0.00  0.00    +0.000 C 
ATOM     24  O   UNL     1       8.928  12.963  19.103  0.00  0.00    +0.000 OA
ATOM     25  C   UNL     1       8.911  12.122  17.941  0.00  0.00    +0.000 C 
ENDBRANCH  20  21
ENDBRANCH  17  20
ENDBRANCH   1  14
TORSDOF 6
ENDMDL
MODEL 5
REMARK VINA RESULT:      -7.1      1.415      1.731
REMARK  Name = 
REMARK  7 active torsions:
REMARK  status: ('A' for Active; 'I' for Inactive)
REMARK    1  A    between atoms: C_1  and  N_2
REMARK    2  A    between atoms: N_2  and  S_3
REMARK    3  A    between atoms: S_3  and  C_6
REMARK    4  A    between atoms: C_10  and  C_11
REMARK    5  A    between atoms: C_11  and  N_12
REMARK    6  A    between atoms: N_15  and  C_16
REMARK    7  A    between atoms: C_16  and  C_17
REMARK                            x       y       z     vdW  Elec       q    Type
REMARK                         _______ _______ _______ _____ _____    ______ ____
ROOT
ATOM      1  C   UNL     1       5.550   5.854  16.599  0.00  0.00    +0.000 C 
ENDROOT
BRANCH   1   6
ATOM      2  C   UNL     1       3.195   4.436  19.252  0.00  0.00    +0.000 A 
ATOM      3  C   UNL     1       2.309   5.499  19.445  0.00  0.00    +0.000 A 
ATOM      4  C   UNL     1       2.489   6.678  18.724  0.00  0.00    +0.000 A 
ATOM      5  C   UNL     1       3.547   6.791  17.818  0.00  0.00    +0.000 A 
ATOM      6  C   UNL     1       4.448   5.730  17.622  0.00  0.00    +0.000 A 
ATOM      7  C   UNL     1       4.269   4.549  18.358  0.00  0.00    +0.000 A 
BRANCH   2   8
ATOM      8  S   UNL     1       3.015   2.966  20.228  0.00  0.00    +0.000 S 
ATOM      9  O   UNL     1       2.160   3.273  21.354  0.00  0.00    +0.000 OA
ATOM     10  O   UNL     1       4.324   2.374  20.416  0.00  0.00    +0.000 OA
BRANCH   8  12
ATOM     11  C   UNL     1       0.767   2.358  18.861  0.00  0.00    +0.000 C 
ATOM     12  N   UNL     1       2.117   1.949  19.232  0.00  0.00    +0.000 NA
ATOM     13  H   UNL     1       2.700   1.533  18.506  0.00  0.00    +0.000 HD
ENDBRANCH   8  12
ENDBRANCH   2   8
ENDBRANCH   1   6
BRANCH   1  14
ATOM     14  N   UNL     1       6.233   7.123  16.704  0.00  0.00    +0.000 N 
ATOM     15  C   UNL     1       7.311   7.266  17.540  0.00  0.00    +0.000 C 
ATOM     16  O   UNL     1       7.800   6.361  18.201  0.00  0.00    +0.000 OA
ATOM     17  N   UNL     1       7.766   8.554  17.536  0.00  0.00    +0.000 N 
ATOM     18  H   UNL     1       5.664   7.947  16.583  0.00  0.00    +0.000 HD
ATOM     19  H   UNL     1       7.370   9.187  16.856  0.00  0.00    +0.000 HD
BRANCH  17  20
ATOM     20  C   UNL     1       8.864   9.027  18.354  0.00  0.00    +0.000 C 
BRANCH  20  21
ATOM     21  C   UNL     1       8.693  10.482  18.816  0.00  0.00    +0.000 C 
ATOM     22  C   UNL     1       9.368  11.493  17.912  0.00  0.00    +0.000 C 
ATOM     23  C   UNL     1      10.757  11.637  18.497  0.00  0.00    +0.000 C 
ATOM     24  O   UNL     1      10.686  11.248  19.876  0.00  0.00    +0.000 OA
ATOM     25  C   UNL     1       9.367  10.754  20.152  0.00  0.00    +0.000 C 
ENDBRANCH  20  21
ENDBRANCH  17  20
ENDBRANCH   1  14
TORSDOF 6
ENDMDL
MODEL 6
REMARK VINA RESULT:      -6.9      3.783      9.775
REMARK  Name = 
REMARK  7 active torsions:
REMARK  status: ('A' for Active; 'I' for Inactive)
REMARK    1  A    between atoms: C_1  and  N_2
REMARK    2  A    between atoms: N_2  and  S_3
REMARK    3  A    between atoms: S_3  and  C_6
REMARK    4  A    between atoms: C_10  and  C_11
REMARK    5  A    between atoms: C_11  and  N_12
REMARK    6  A    between atoms: N_15  and  C_16
REMARK    7  A    between atoms: C_16  and  C_17
REMARK                            x       y       z     vdW  Elec       q    Type
REMARK                         _______ _______ _______ _____ _____    ______ ____
ROOT
ATOM      1  C   UNL     1       9.018   9.984  18.943  0.00  0.00    +0.000 C 
ENDROOT
BRANCH   1   6
ATOM      2  C   UNL     1       9.419  13.662  17.987  0.00  0.00    +0.000 A 
ATOM      3  C   UNL     1      10.675  13.662  17.376  0.00  0.00    +0.000 A 
ATOM      4  C   UNL     1      11.394  12.471  17.290  0.00  0.00    +0.000 A 
ATOM      5  C   UNL     1      10.859  11.290  17.811  0.00  0.00    +0.000 A 
ATOM      6  C   UNL     1       9.600  11.280  18.435  0.00  0.00    +0.000 A 
ATOM      7  C   UNL     1       8.885  12.483  18.529  0.00  0.00    +0.000 A 
BRANCH   2   8
ATOM      8  S   UNL     1       8.540  15.190  18.169  0.00  0.00    +0.000 S 
ATOM      9  O   UNL     1       8.704  15.647  19.532  0.00  0.00    +0.000 OA
ATOM     10  O   UNL     1       7.224  15.039  17.580  0.00  0.00    +0.000 OA
BRANCH   8  12
ATOM     11  C   UNL     1       9.796  17.549  17.785  0.00  0.00    +0.000 C 
ATOM     12  N   UNL     1       9.422  16.259  17.215  0.00  0.00    +0.000 NA
ATOM     13  H   UNL     1      10.123  15.769  16.659  0.00  0.00    +0.000 HD
ENDBRANCH   8  12
ENDBRANCH   2   8
ENDBRANCH   1   6
BRANCH   1  14
ATOM     14  N   UNL     1       8.204   9.337  17.940  0.00  0.00    +0.000 N 
ATOM     15  C   UNL     1       7.992   7.983  17.985  0.00  0.00    +0.000 C 
ATOM     16  O   UNL     1       8.410   7.244  18.864  0.00  0.00    +0.000 OA
ATOM     17  N   UNL     1       7.251   7.567  16.914  0.00  0.00    +0.000 N 
ATOM     18  H   UNL     1       8.225   9.744  17.017  0.00  0.00    +0.000 HD
ATOM     19  H   UNL     1       6.850   8.279  16.320  0.00  0.00    +0.000 HD
BRANCH  17  20
ATOM     20  C   UNL     1       6.902   6.186  16.658  0.00  0.00    +0.000 C 
BRANCH  20  21
ATOM     21  C   UNL     1       5.444   6.001  16.210  0.00  0.00    +0.000 C 
ATOM     22  C   UNL     1       4.442   6.743  17.072  0.00  0.00    +0.000 C 
ATOM     23  C   UNL     1       4.073   5.742  18.146  0.00  0.00    +0.000 C 
ATOM     24  O   UNL     1       4.341   4.433  17.626  0.00  0.00    +0.000 OA
ATOM     25  C   UNL     1       4.969   4.563  16.342  0.00  0.00    +0.000 C 
ENDBRANCH  20  21
ENDBRANCH  17  20
ENDBRANCH   1  14
TORSDOF 6
ENDMDL
MODEL 7
REMARK VINA RESULT:      -6.9      4.942      7.243
REMARK  Name = 
REMARK  7 active torsions:
REMARK  status: ('A' for Active; 'I' for Inactive)
REMARK    1  A    between atoms: C_1  and  N_2
REMARK    2  A    between atoms: N_2  and  S_3
REMARK    3  A    between atoms: S_3  and  C_6
REMARK    4  A    between atoms: C_10  and  C_11
REMARK    5  A    between atoms: C_11  and  N_12
REMARK    6  A    between atoms: N_15  and  C_16
REMARK    7  A    between atoms: C_16  and  C_17
REMARK                            x       y       z     vdW  Elec       q    Type
REMARK                         _______ _______ _______ _____ _____    ______ ____
ROOT
ATOM      1  C   UNL     1       2.593   6.149  19.760  0.00  0.00    +0.000 C 
ENDROOT
BRANCH   1   6
ATOM      2  C   UNL     1       5.583   4.870  17.754  0.00  0.00    +0.000 A 
ATOM      3  C   UNL     1       4.991   3.891  16.952  0.00  0.00    +0.000 A 
ATOM      4  C   UNL     1       3.626   3.640  17.077  0.00  0.00    +0.000 A 
ATOM      5  C   UNL     1       2.861   4.362  17.996  0.00  0.00    +0.000 A 
ATOM      6  C   UNL     1       3.448   5.343  18.812  0.00  0.00    +0.000 A 
ATOM      7  C   UNL     1       4.824   5.586  18.692  0.00  0.00    +0.000 A 
BRANCH   2   8
ATOM      8  S   UNL     1       7.334   5.135  17.653  0.00  0.00    +0.000 S 
ATOM      9  O   UNL     1       7.882   4.180  16.715  0.00  0.00    +0.000 OA
ATOM     10  O   UNL     1       7.860   5.256  18.998  0.00  0.00    +0.000 OA
BRANCH   8  12
ATOM     11  C   UNL     1       7.783   7.796  17.729  0.00  0.00    +0.000 C 
ATOM     12  N   UNL     1       7.455   6.637  16.906  0.00  0.00    +0.000 NA
ATOM     13  H   UNL     1       7.908   6.562  15.995  0.00  0.00    +0.000 HD
ENDBRANCH   8  12
ENDBRANCH   2   8
ENDBRANCH   1   6
BRANCH   1  14
ATOM     14  N   UNL     1       2.327   7.472  19.244  0.00  0.00    +0.000 N 
ATOM     15  C   UNL     1       1.516   8.337  19.932  0.00  0.00    +0.000 C 
ATOM     16  O   UNL     1       1.011   8.097  21.019  0.00  0.00    +0.000 OA
ATOM     17  N   UNL     1       1.346   9.504  19.242  0.00  0.00    +0.000 N 
ATOM     18  H   UNL     1       2.308   7.563  18.239  0.00  0.00    +0.000 HD
ATOM     19  H   UNL     1       1.914   9.645  18.418  0.00  0.00    +0.000 HD
BRANCH  17  20
ATOM     20  C   UNL     1       0.506  10.594  19.689  0.00  0.00    +0.000 C 
BRANCH  20  21
ATOM     21  C   UNL     1      -0.217  11.314  18.541  0.00  0.00    +0.000 C 
ATOM     22  C   UNL     1      -1.065  12.486  18.993  0.00  0.00    +0.000 C 
ATOM     23  C   UNL     1      -2.425  11.873  19.254  0.00  0.00    +0.000 C 
ATOM     24  O   UNL     1      -2.511  10.669  18.478  0.00  0.00    +0.000 OA
ATOM     25  C   UNL     1      -1.243  10.431  17.850  0.00  0.00    +0.000 C 
ENDBRANCH  20  21
ENDBRANCH  17  20
ENDBRANCH   1  14
TORSDOF 6
ENDMDL
MODEL 8
REMARK VINA RESULT:      -6.8      5.477      7.598
REMARK  Name = 
REMARK  7 active torsions:
REMARK  status: ('A' for Active; 'I' for Inactive)
REMARK    1  A    between atoms: C_1  and  N_2
REMARK    2  A    between atoms: N_2  and  S_3
REMARK    3  A    between atoms: S_3  and  C_6
REMARK    4  A    between atoms: C_10  and  C_11
REMARK    5  A    between atoms: C_11  and  N_12
REMARK    6  A    between atoms: N_15  and  C_16
REMARK    7  A    between atoms: C_16  and  C_17
REMARK                            x       y       z     vdW  Elec       q    Type
REMARK                         _______ _______ _______ _____ _____    ______ ____
ROOT
ATOM      1  C   UNL     1       2.304   7.809  19.390  0.00  0.00    +0.000 C 
ENDROOT
BRANCH   1   6
ATOM      2  C   UNL     1       3.789   4.396  18.526  0.00  0.00    +0.000 A 
ATOM      3  C   UNL     1       4.542   4.693  17.387  0.00  0.00    +0.000 A 
ATOM      4  C   UNL     1       4.553   5.996  16.896  0.00  0.00    +0.000 A 
ATOM      5  C   UNL     1       3.815   6.994  17.539  0.00  0.00    +0.000 A 
ATOM      6  C   UNL     1       3.049   6.705  18.680  0.00  0.00    +0.000 A 
ATOM      7  C   UNL     1       3.032   5.389  19.166  0.00  0.00    +0.000 A 
BRANCH   2   8
ATOM      8  S   UNL     1       3.711   2.721  19.105  0.00  0.00    +0.000 S 
ATOM      9  O   UNL     1       4.801   2.513  20.033  0.00  0.00    +0.000 OA
ATOM     10  O   UNL     1       3.515   1.848  17.965  0.00  0.00    +0.000 OA
BRANCH   8  12
ATOM     11  C   UNL     1       2.434   2.705  21.484  0.00  0.00    +0.000 C 
ATOM     12  N   UNL     1       2.306   2.699  20.031  0.00  0.00    +0.000 NA
ATOM     13  H   UNL     1       1.581   3.286  19.619  0.00  0.00    +0.000 HD
ENDBRANCH   8  12
ENDBRANCH   2   8
ENDBRANCH   1   6
BRANCH   1  14
ATOM     14  N   UNL     1       1.575   8.641  18.462  0.00  0.00    +0.000 N 
ATOM     15  C   UNL     1       0.542   9.430  18.900  0.00  0.00    +0.000 C 
ATOM     16  O   UNL     1       0.196   9.535  20.067  0.00  0.00    +0.000 OA
ATOM     17  N   UNL     1      -0.050  10.085  17.857  0.00  0.00    +0.000 N 
ATOM     18  H   UNL     1       1.484   8.288  17.522  0.00  0.00    +0.000 HD
ATOM     19  H   UNL     1       0.399  10.025  16.954  0.00  0.00    +0.000 HD
BRANCH  17  20
ATOM     20  C   UNL     1      -1.198  10.956  17.994  0.00  0.00    +0.000 C 
BRANCH  20  21
ATOM     21  C   UNL     1      -2.536  10.241  17.750  0.00  0.00    +0.000 C 
ATOM     22  C   UNL     1      -2.718   9.755  16.326  0.00  0.00    +0.000 C 
ATOM     23  C   UNL     1      -3.394  10.917  15.629  0.00  0.00    +0.000 C 
ATOM     24  O   UNL     1      -4.057  11.696  16.634  0.00  0.00    +0.000 OA
ATOM     25  C   UNL     1      -3.733  11.161  17.925  0.00  0.00    +0.000 C 
ENDBRANCH  20  21
ENDBRANCH  17  20
ENDBRANCH   1  14
TORSDOF 6
ENDMDL
MODEL 9
REMARK VINA RESULT:      -6.8      6.483      9.192
REMARK  Name = 
REMARK  7 active torsions:
REMARK  status: ('A' for Active; 'I' for Inactive)
REMARK    1  A    between atoms: C_1  and  N_2
REMARK    2  A    between atoms: N_2  and  S_3
REMARK    3  A    between atoms: S_3  and  C_6
REMARK    4  A    between atoms: C_10  and  C_11
REMARK    5  A    between atoms: C_11  and  N_12
REMARK    6  A    between atoms: N_15  and  C_16
REMARK    7  A    between atoms: C_16  and  C_17
REMARK                            x       y       z     vdW  Elec       q    Type
REMARK                         _______ _______ _______ _____ _____    ______ ____
ROOT
ATOM      1  C   UNL     1       1.834   9.125  17.966  0.00  0.00    +0.000 C 
ENDROOT
BRANCH   1   6
ATOM      2  C   UNL     1      -1.512  10.948  18.250  0.00  0.00    +0.000 A 
ATOM      3  C   UNL     1      -1.222  11.928  19.202  0.00  0.00    +0.000 A 
ATOM      4  C   UNL     1       0.054  11.984  19.759  0.00  0.00    +0.000 A 
ATOM      5  C   UNL     1       1.031  11.066  19.366  0.00  0.00    +0.000 A 
ATOM      6  C   UNL     1       0.748  10.072  18.415  0.00  0.00    +0.000 A 
ATOM      7  C   UNL     1      -0.541  10.011  17.865  0.00  0.00    +0.000 A 
BRANCH   2   8
ATOM      8  S   UNL     1      -3.157  10.824  17.601  0.00  0.00    +0.000 S 
ATOM      9  O   UNL     1      -3.974  11.831  18.244  0.00  0.00    +0.000 OA
ATOM     10  O   UNL     1      -3.548   9.429  17.596  0.00  0.00    +0.000 OA
BRANCH   8  12
ATOM     11  C   UNL     1      -2.969  10.310  14.957  0.00  0.00    +0.000 C 
ATOM     12  N   UNL     1      -2.981  11.325  16.004  0.00  0.00    +0.000 NA
ATOM     13  H   UNL     1      -3.505  12.182  15.824  0.00  0.00    +0.000 HD
ENDBRANCH   8  12
ENDBRANCH   2   8
ENDBRANCH   1   6
BRANCH   1  14
ATOM     14  N   UNL     1       2.079   8.091  18.945  0.00  0.00    +0.000 N 
ATOM     15  C   UNL     1       2.935   7.058  18.666  0.00  0.00    +0.000 C 
ATOM     16  O   UNL     1       3.580   6.950  17.633  0.00  0.00    +0.000 OA
ATOM     17  N   UNL     1       2.974   6.162  19.697  0.00  0.00    +0.000 N 
ATOM     18  H   UNL     1       1.309   7.866  19.557  0.00  0.00    +0.000 HD
ATOM     19  H   UNL     1       2.502   6.416  20.554  0.00  0.00    +0.000 HD
BRANCH  17  20
ATOM     20  C   UNL     1       3.752   4.941  19.680  0.00  0.00    +0.000 C 
BRANCH  20  21
ATOM     21  C   UNL     1       2.896   3.678  19.495  0.00  0.00    +0.000 C 
ATOM     22  C   UNL     1       3.334   2.810  18.332  0.00  0.00    +0.000 C 
ATOM     23  C   UNL     1       2.530   3.335  17.162  0.00  0.00    +0.000 C 
ATOM     24  O   UNL     1       1.364   3.979  17.694  0.00  0.00    +0.000 OA
ATOM     25  C   UNL     1       1.456   3.996  19.126  0.00  0.00    +0.000 C 
ENDBRANCH  20  21
ENDBRANCH  17  20
ENDBRANCH   1  14
TORSDOF 6
ENDMDL
