MODEL 1
REMARK VINA RESULT:      -5.8      0.000      0.000
REMARK  Name = 
REMARK  18 active torsions:
REMARK  status: ('A' for Active; 'I' for Inactive)
REMARK    1  A    between atoms: C_1  and  C_2
REMARK    2  A    between atoms: C_2  and  C_3
REMARK    3  A    between atoms: C_3  and  C_4
REMARK    4  A    between atoms: C_4  and  C_5
REMARK    5  A    between atoms: C_5  and  C_6
REMARK    6  A    between atoms: C_6  and  C_7
REMARK    7  A    between atoms: C_7  and  C_8
REMARK    8  A    between atoms: C_8  and  C_9
REMARK    9  A    between atoms: C_9  and  C_10
REMARK   10  A    between atoms: C_10  and  C_11
REMARK   11  A    between atoms: C_11  and  C_12
REMARK   12  A    between atoms: C_12  and  C_13
REMARK   13  A    between atoms: C_13  and  C_14
REMARK   14  A    between atoms: C_14  and  C_15
REMARK   15  A    between atoms: C_15  and  C_16
REMARK   16  A    between atoms: C_16  and  C_17
REMARK   17  A    between atoms: C_17  and  C_18
REMARK   18  A    between atoms: C_21  and  C_22
REMARK                            x       y       z     vdW  Elec       q    Type
REMARK                         _______ _______ _______ _____ _____    ______ ____
ROOT
ATOM      1  C   UNL     1       5.717   3.825  18.733  0.00  0.00    +0.000 C 
ENDROOT
BRANCH   1   2
ATOM      2  C   UNL     1       5.976   5.237  19.245  0.00  0.00    +0.000 C 
BRANCH   2   3
ATOM      3  C   UNL     1       6.595   6.102  18.149  0.00  0.00    +0.000 C 
BRANCH   3   4
ATOM      4  C   UNL     1       5.660   6.215  16.947  0.00  0.00    +0.000 C 
BRANCH   4   5
ATOM      5  C   UNL     1       6.298   5.680  15.726  0.00  0.00    +0.000 A 
ATOM      6  N   UNL     1       7.552   5.746  15.338  0.00  0.00    +0.000 NA
ATOM      7  N   UNL     1       7.631   5.048  14.153  0.00  0.00    +0.000 NA
ATOM      8  C   UNL     1       6.416   4.598  13.897  0.00  0.00    +0.000 A 
ATOM      9  O   UNL     1       5.508   4.977  14.855  0.00  0.00    +0.000 OA
BRANCH   8  10
ATOM     10  C   UNL     1       5.941   3.738  12.828  0.00  0.00    +0.000 A 
ATOM     11  C   UNL     1       6.752   2.714  12.324  0.00  0.00    +0.000 A 
ATOM     12  C   UNL     1       6.231   1.871  11.358  0.00  0.00    +0.000 A 
ATOM     13  N   UNL     1       4.985   1.986  10.853  0.00  0.00    +0.000 NA
ATOM     14  C   UNL     1       4.227   2.988  11.339  0.00  0.00    +0.000 A 
ATOM     15  C   UNL     1       4.654   3.879  12.308  0.00  0.00    +0.000 A 
ENDBRANCH   8  10
ENDBRANCH   4   5
ENDBRANCH   3   4
ENDBRANCH   2   3
ENDBRANCH   1   2
BRANCH   1  16
ATOM     16  C   UNL     1       4.605   3.152  19.529  0.00  0.00    +0.000 C 
BRANCH  16  17
ATOM     17  C   UNL     1       4.349   1.748  18.998  0.00  0.00    +0.000 C 
BRANCH  17  18
ATOM     18  C   UNL     1       3.089   1.721  18.145  0.00  0.00    +0.000 C 
BRANCH  18  19
ATOM     19  C   UNL     1       2.890   3.061  17.453  0.00  0.00    +0.000 C 
BRANCH  19  20
ATOM     20  C   UNL     1       1.480   3.576  17.693  0.00  0.00    +0.000 C 
BRANCH  20  21
ATOM     21  C   UNL     1       0.803   2.772  18.791  0.00  0.00    +0.000 C 
BRANCH  21  22
ATOM     22  C   UNL     1       0.485   3.665  19.981  0.00  0.00    +0.000 C 
BRANCH  22  23
ATOM     23  C   UNL     1       1.544   3.505  21.061  0.00  0.00    +0.000 C 
BRANCH  23  24
ATOM     24  C   UNL     1       2.222   4.838  21.344  0.00  0.00    +0.000 C 
BRANCH  24  25
ATOM     25  C   UNL     1       1.727   5.906  20.377  0.00  0.00    +0.000 C 
BRANCH  25  26
ATOM     26  C   UNL     1       2.875   6.422  19.517  0.00  0.00    +0.000 C 
BRANCH  26  28
ATOM     27  C   UNL     1       1.924   8.513  18.518  0.00  0.00    +0.000 C 
ATOM     28  C   UNL     1       2.352   7.082  18.247  0.00  0.00    +0.000 C 
ENDBRANCH  26  28
ENDBRANCH  25  26
ENDBRANCH  24  25
ENDBRANCH  23  24
ENDBRANCH  22  23
ENDBRANCH  21  22
ENDBRANCH  20  21
ENDBRANCH  19  20
ENDBRANCH  18  19
ENDBRANCH  17  18
ENDBRANCH  16  17
ENDBRANCH   1  16
TORSDOF 17
ENDMDL
MODEL 2
REMARK VINA RESULT:      -5.7      5.808      8.180
REMARK  Name = 
REMARK  18 active torsions:
REMARK  status: ('A' for Active; 'I' for Inactive)
REMARK    1  A    between atoms: C_1  and  C_2
REMARK    2  A    between atoms: C_2  and  C_3
REMARK    3  A    between atoms: C_3  and  C_4
REMARK    4  A    between atoms: C_4  and  C_5
REMARK    5  A    between atoms: C_5  and  C_6
REMARK    6  A    between atoms: C_6  and  C_7
REMARK    7  A    between atoms: C_7  and  C_8
REMARK    8  A    between atoms: C_8  and  C_9
REMARK    9  A    between atoms: C_9  and  C_10
REMARK   10  A    between atoms: C_10  and  C_11
REMARK   11  A    between atoms: C_11  and  C_12
REMARK   12  A    between atoms: C_12  and  C_13
REMARK   13  A    between atoms: C_13  and  C_14
REMARK   14  A    between atoms: C_14  and  C_15
REMARK   15  A    between atoms: C_15  and  C_16
REMARK   16  A    between atoms: C_16  and  C_17
REMARK   17  A    between atoms: C_17  and  C_18
REMARK   18  A    between atoms: C_21  and  C_22
REMARK                            x       y       z     vdW  Elec       q    Type
REMARK                         _______ _______ _______ _____ _____    ______ ____
ROOT
ATOM      1  C   UNL     1       6.596   7.170  17.568  0.00  0.00    +0.000 C 
ENDROOT
BRANCH   1   2
ATOM      2  C   UNL     1       8.019   7.623  17.874  0.00  0.00    +0.000 C 
BRANCH   2   3
ATOM      3  C   UNL     1       8.168   9.125  17.644  0.00  0.00    +0.000 C 
BRANCH   3   4
ATOM      4  C   UNL     1       8.914   9.785  18.802  0.00  0.00    +0.000 C 
BRANCH   4   5
ATOM      5  C   UNL     1       9.528  11.061  18.380  0.00  0.00    +0.000 A 
ATOM      6  N   UNL     1      10.654  11.278  17.738  0.00  0.00    +0.000 NA
ATOM      7  N   UNL     1      10.739  12.640  17.548  0.00  0.00    +0.000 NA
ATOM      8  C   UNL     1       9.653  13.165  18.085  0.00  0.00    +0.000 A 
ATOM      9  O   UNL     1       8.839  12.214  18.649  0.00  0.00    +0.000 OA
BRANCH   8  10
ATOM     10  C   UNL     1       9.186  14.541  18.101  0.00  0.00    +0.000 A 
ATOM     11  C   UNL     1       7.898  14.850  18.554  0.00  0.00    +0.000 A 
ATOM     12  C   UNL     1       7.523  16.181  18.624  0.00  0.00    +0.000 A 
ATOM     13  N   UNL     1       8.321  17.206  18.262  0.00  0.00    +0.000 NA
ATOM     14  C   UNL     1       9.551  16.886  17.813  0.00  0.00    +0.000 A 
ATOM     15  C   UNL     1      10.020  15.588  17.712  0.00  0.00    +0.000 A 
ENDBRANCH   8  10
ENDBRANCH   4   5
ENDBRANCH   3   4
ENDBRANCH   2   3
ENDBRANCH   1   2
BRANCH   1  16
ATOM     16  C   UNL     1       6.354   5.754  18.074  0.00  0.00    +0.000 C 
BRANCH  16  17
ATOM     17  C   UNL     1       6.852   4.736  17.056  0.00  0.00    +0.000 C 
BRANCH  17  18
ATOM     18  C   UNL     1       5.680   4.061  16.358  0.00  0.00    +0.000 C 
BRANCH  18  19
ATOM     19  C   UNL     1       4.372   4.729  16.755  0.00  0.00    +0.000 C 
BRANCH  19  20
ATOM     20  C   UNL     1       3.292   3.684  16.984  0.00  0.00    +0.000 C 
BRANCH  20  21
ATOM     21  C   UNL     1       3.824   2.557  17.855  0.00  0.00    +0.000 C 
BRANCH  21  22
ATOM     22  C   UNL     1       2.674   1.725  18.403  0.00  0.00    +0.000 C 
BRANCH  22  23
ATOM     23  C   UNL     1       1.632   2.625  19.052  0.00  0.00    +0.000 C 
BRANCH  23  24
ATOM     24  C   UNL     1       1.769   2.591  20.567  0.00  0.00    +0.000 C 
BRANCH  24  25
ATOM     25  C   UNL     1       1.772   4.004  21.136  0.00  0.00    +0.000 C 
BRANCH  25  26
ATOM     26  C   UNL     1       2.669   4.914  20.305  0.00  0.00    +0.000 C 
BRANCH  26  28
ATOM     27  C   UNL     1       2.650   7.008  18.929  0.00  0.00    +0.000 C 
ATOM     28  C   UNL     1       2.025   6.282  20.107  0.00  0.00    +0.000 C 
ENDBRANCH  26  28
ENDBRANCH  25  26
ENDBRANCH  24  25
ENDBRANCH  23  24
ENDBRANCH  22  23
ENDBRANCH  21  22
ENDBRANCH  20  21
ENDBRANCH  19  20
ENDBRANCH  18  19
ENDBRANCH  17  18
ENDBRANCH  16  17
ENDBRANCH   1  16
TORSDOF 17
ENDMDL
MODEL 3
REMARK VINA RESULT:      -5.7      4.807      8.279
REMARK  Name = 
REMARK  18 active torsions:
REMARK  status: ('A' for Active; 'I' for Inactive)
REMARK    1  A    between atoms: C_1  and  C_2
REMARK    2  A    between atoms: C_2  and  C_3
REMARK    3  A    between atoms: C_3  and  C_4
REMARK    4  A    between atoms: C_4  and  C_5
REMARK    5  A    between atoms: C_5  and  C_6
REMARK    6  A    between atoms: C_6  and  C_7
REMARK    7  A    between atoms: C_7  and  C_8
REMARK    8  A    between atoms: C_8  and  C_9
REMARK    9  A    between atoms: C_9  and  C_10
REMARK   10  A    between atoms: C_10  and  C_11
REMARK   11  A    between atoms: C_11  and  C_12
REMARK   12  A    between atoms: C_12  and  C_13
REMARK   13  A    between atoms: C_13  and  C_14
REMARK   14  A    between atoms: C_14  and  C_15
REMARK   15  A    between atoms: C_15  and  C_16
REMARK   16  A    between atoms: C_16  and  C_17
REMARK   17  A    between atoms: C_17  and  C_18
REMARK   18  A    between atoms: C_21  and  C_22
REMARK                            x       y       z     vdW  Elec       q    Type
REMARK                         _______ _______ _______ _____ _____    ______ ____
ROOT
ATOM      1  C   UNL     1       2.880   7.360  17.287  0.00  0.00    +0.000 C 
ENDROOT
BRANCH   1   2
ATOM      2  C   UNL     1       2.472   8.391  18.333  0.00  0.00    +0.000 C 
BRANCH   2   3
ATOM      3  C   UNL     1       1.943   7.703  19.589  0.00  0.00    +0.000 C 
BRANCH   3   4
ATOM      4  C   UNL     1       1.404   8.726  20.588  0.00  0.00    +0.000 C 
BRANCH   4   5
ATOM      5  C   UNL     1       0.693   9.821  19.894  0.00  0.00    +0.000 A 
ATOM      6  N   UNL     1       1.043  11.077  19.733  0.00  0.00    +0.000 NA
ATOM      7  N   UNL     1       0.053  11.662  18.973  0.00  0.00    +0.000 NA
ATOM      8  C   UNL     1      -0.835  10.719  18.717  0.00  0.00    +0.000 A 
ATOM      9  O   UNL     1      -0.497   9.517  19.289  0.00  0.00    +0.000 OA
BRANCH   8  10
ATOM     10  C   UNL     1      -2.032  10.757  17.895  0.00  0.00    +0.000 A 
ATOM     11  C   UNL     1      -3.145  11.505  18.294  0.00  0.00    +0.000 A 
ATOM     12  C   UNL     1      -4.236  11.574  17.443  0.00  0.00    +0.000 A 
ATOM     13  N   UNL     1      -4.300  10.946  16.251  0.00  0.00    +0.000 NA
ATOM     14  C   UNL     1      -3.223  10.218  15.893  0.00  0.00    +0.000 A 
ATOM     15  C   UNL     1      -2.085  10.091  16.670  0.00  0.00    +0.000 A 
ENDBRANCH   8  10
ENDBRANCH   4   5
ENDBRANCH   3   4
ENDBRANCH   2   3
ENDBRANCH   1   2
BRANCH   1  16
ATOM     16  C   UNL     1       4.384   7.119  17.317  0.00  0.00    +0.000 C 
BRANCH  16  17
ATOM     17  C   UNL     1       4.902   6.831  15.914  0.00  0.00    +0.000 C 
BRANCH  17  18
ATOM     18  C   UNL     1       5.348   5.380  15.797  0.00  0.00    +0.000 C 
BRANCH  18  19
ATOM     19  C   UNL     1       6.862   5.282  15.897  0.00  0.00    +0.000 C 
BRANCH  19  20
ATOM     20  C   UNL     1       7.261   4.526  17.154  0.00  0.00    +0.000 C 
BRANCH  20  21
ATOM     21  C   UNL     1       7.736   5.494  18.225  0.00  0.00    +0.000 C 
BRANCH  21  22
ATOM     22  C   UNL     1       6.757   5.517  19.389  0.00  0.00    +0.000 C 
BRANCH  22  23
ATOM     23  C   UNL     1       5.730   4.405  19.238  0.00  0.00    +0.000 C 
BRANCH  23  24
ATOM     24  C   UNL     1       4.374   4.858  19.762  0.00  0.00    +0.000 C 
BRANCH  24  25
ATOM     25  C   UNL     1       3.324   3.778  19.536  0.00  0.00    +0.000 C 
BRANCH  25  26
ATOM     26  C   UNL     1       3.598   3.029  18.237  0.00  0.00    +0.000 C 
BRANCH  26  28
ATOM     27  C   UNL     1       1.384   4.092  17.744  0.00  0.00    +0.000 C 
ATOM     28  C   UNL     1       2.626   3.457  17.144  0.00  0.00    +0.000 C 
ENDBRANCH  26  28
ENDBRANCH  25  26
ENDBRANCH  24  25
ENDBRANCH  23  24
ENDBRANCH  22  23
ENDBRANCH  21  22
ENDBRANCH  20  21
ENDBRANCH  19  20
ENDBRANCH  18  19
ENDBRANCH  17  18
ENDBRANCH  16  17
ENDBRANCH   1  16
TORSDOF 17
ENDMDL
MODEL 4
REMARK VINA RESULT:      -5.7      4.771      8.054
REMARK  Name = 
REMARK  18 active torsions:
REMARK  status: ('A' for Active; 'I' for Inactive)
REMARK    1  A    between atoms: C_1  and  C_2
REMARK    2  A    between atoms: C_2  and  C_3
REMARK    3  A    between atoms: C_3  and  C_4
REMARK    4  A    between atoms: C_4  and  C_5
REMARK    5  A    between atoms: C_5  and  C_6
REMARK    6  A    between atoms: C_6  and  C_7
REMARK    7  A    between atoms: C_7  and  C_8
REMARK    8  A    between atoms: C_8  and  C_9
REMARK    9  A    between atoms: C_9  and  C_10
REMARK   10  A    between atoms: C_10  and  C_11
REMARK   11  A    between atoms: C_11  and  C_12
REMARK   12  A    between atoms: C_12  and  C_13
REMARK   13  A    between atoms: C_13  and  C_14
REMARK   14  A    between atoms: C_14  and  C_15
REMARK   15  A    between atoms: C_15  and  C_16
REMARK   16  A    between atoms: C_16  and  C_17
REMARK   17  A    between atoms: C_17  and  C_18
REMARK   18  A    between atoms: C_21  and  C_22
REMARK                            x       y       z     vdW  Elec       q    Type
REMARK                         _______ _______ _______ _____ _____    ______ ____
ROOT
ATOM      1  C   UNL     1       4.362   7.193  16.445  0.00  0.00    +0.000 C 
ENDROOT
BRANCH   1   2
ATOM      2  C   UNL     1       3.746   6.977  17.822  0.00  0.00    +0.000 C 
BRANCH   2   3
ATOM      3  C   UNL     1       2.340   7.569  17.883  0.00  0.00    +0.000 C 
BRANCH   3   4
ATOM      4  C   UNL     1       2.392   9.091  17.998  0.00  0.00    +0.000 C 
BRANCH   4   5
ATOM      5  C   UNL     1       1.112   9.629  18.508  0.00  0.00    +0.000 A 
ATOM      6  N   UNL     1       0.802  10.052  19.712  0.00  0.00    +0.000 NA
ATOM      7  N   UNL     1      -0.501  10.495  19.646  0.00  0.00    +0.000 NA
ATOM      8  C   UNL     1      -0.899  10.315  18.399  0.00  0.00    +0.000 A 
ATOM      9  O   UNL     1       0.078   9.750  17.618  0.00  0.00    +0.000 OA
BRANCH   8  10
ATOM     10  C   UNL     1      -2.148  10.678  17.752  0.00  0.00    +0.000 A 
ATOM     11  C   UNL     1      -2.450  10.201  16.472  0.00  0.00    +0.000 A 
ATOM     12  C   UNL     1      -3.684  10.510  15.924  0.00  0.00    +0.000 A 
ATOM     13  N   UNL     1      -4.614  11.263  16.546  0.00  0.00    +0.000 NA
ATOM     14  C   UNL     1      -4.296  11.726  17.772  0.00  0.00    +0.000 A 
ATOM     15  C   UNL     1      -3.093  11.468  18.405  0.00  0.00    +0.000 A 
ENDBRANCH   8  10
ENDBRANCH   4   5
ENDBRANCH   3   4
ENDBRANCH   2   3
ENDBRANCH   1   2
BRANCH   1  16
ATOM     16  C   UNL     1       5.737   6.543  16.354  0.00  0.00    +0.000 C 
BRANCH  16  17
ATOM     17  C   UNL     1       6.633   7.039  17.481  0.00  0.00    +0.000 C 
BRANCH  17  18
ATOM     18  C   UNL     1       7.170   5.868  18.291  0.00  0.00    +0.000 C 
BRANCH  18  19
ATOM     19  C   UNL     1       6.776   4.551  17.641  0.00  0.00    +0.000 C 
BRANCH  19  20
ATOM     20  C   UNL     1       5.604   3.926  18.381  0.00  0.00    +0.000 C 
BRANCH  20  21
ATOM     21  C   UNL     1       4.533   3.482  17.397  0.00  0.00    +0.000 C 
BRANCH  21  22
ATOM     22  C   UNL     1       3.776   2.282  17.945  0.00  0.00    +0.000 C 
BRANCH  22  23
ATOM     23  C   UNL     1       2.349   2.271  17.419  0.00  0.00    +0.000 C 
BRANCH  23  24
ATOM     24  C   UNL     1       1.363   2.520  18.551  0.00  0.00    +0.000 C 
BRANCH  24  25
ATOM     25  C   UNL     1       1.510   3.939  19.087  0.00  0.00    +0.000 C 
BRANCH  25  26
ATOM     26  C   UNL     1       0.887   4.055  20.473  0.00  0.00    +0.000 C 
BRANCH  26  28
ATOM     27  C   UNL     1       2.802   2.814  21.507  0.00  0.00    +0.000 C 
ATOM     28  C   UNL     1       1.293   2.879  21.354  0.00  0.00    +0.000 C 
ENDBRANCH  26  28
ENDBRANCH  25  26
ENDBRANCH  24  25
ENDBRANCH  23  24
ENDBRANCH  22  23
ENDBRANCH  21  22
ENDBRANCH  20  21
ENDBRANCH  19  20
ENDBRANCH  18  19
ENDBRANCH  17  18
ENDBRANCH  16  17
ENDBRANCH   1  16
TORSDOF 17
ENDMDL
MODEL 5
REMARK VINA RESULT:      -5.7      4.995      8.342
REMARK  Name = 
REMARK  18 active torsions:
REMARK  status: ('A' for Active; 'I' for Inactive)
REMARK    1  A    between atoms: C_1  and  C_2
REMARK    2  A    between atoms: C_2  and  C_3
REMARK    3  A    between atoms: C_3  and  C_4
REMARK    4  A    between atoms: C_4  and  C_5
REMARK    5  A    between atoms: C_5  and  C_6
REMARK    6  A    between atoms: C_6  and  C_7
REMARK    7  A    between atoms: C_7  and  C_8
REMARK    8  A    between atoms: C_8  and  C_9
REMARK    9  A    between atoms: C_9  and  C_10
REMARK   10  A    between atoms: C_10  and  C_11
REMARK   11  A    between atoms: C_11  and  C_12
REMARK   12  A    between atoms: C_12  and  C_13
REMARK   13  A    between atoms: C_13  and  C_14
REMARK   14  A    between atoms: C_14  and  C_15
REMARK   15  A    between atoms: C_15  and  C_16
REMARK   16  A    between atoms: C_16  and  C_17
REMARK   17  A    between atoms: C_17  and  C_18
REMARK   18  A    between atoms: C_21  and  C_22
REMARK                            x       y       z     vdW  Elec       q    Type
REMARK                         _______ _______ _______ _____ _____    ______ ____
ROOT
ATOM      1  C   UNL     1       2.290   6.189  19.666  0.00  0.00    +0.000 C 
ENDROOT
BRANCH   1   2
ATOM      2  C   UNL     1       2.145   7.656  20.052  0.00  0.00    +0.000 C 
BRANCH   2   3
ATOM      3  C   UNL     1       1.067   7.829  21.120  0.00  0.00    +0.000 C 
BRANCH   3   4
ATOM      4  C   UNL     1       1.180   9.193  21.797  0.00  0.00    +0.000 C 
BRANCH   4   5
ATOM      5  C   UNL     1       0.336  10.196  21.114  0.00  0.00    +0.000 A 
ATOM      6  N   UNL     1       0.245  11.491  21.315  0.00  0.00    +0.000 NA
ATOM      7  N   UNL     1      -0.649  11.969  20.381  0.00  0.00    +0.000 NA
ATOM      8  C   UNL     1      -1.041  10.929  19.667  0.00  0.00    +0.000 A 
ATOM      9  O   UNL     1      -0.461   9.759  20.090  0.00  0.00    +0.000 OA
BRANCH   8  10
ATOM     10  C   UNL     1      -1.909  10.865  18.504  0.00  0.00    +0.000 A 
ATOM     11  C   UNL     1      -1.612  10.004  17.441  0.00  0.00    +0.000 A 
ATOM     12  C   UNL     1      -2.506   9.919  16.388  0.00  0.00    +0.000 A 
ATOM     13  N   UNL     1      -3.647  10.635  16.312  0.00  0.00    +0.000 NA
ATOM     14  C   UNL     1      -3.906  11.471  17.337  0.00  0.00    +0.000 A 
ATOM     15  C   UNL     1      -3.079  11.622  18.436  0.00  0.00    +0.000 A 
ENDBRANCH   8  10
ENDBRANCH   4   5
ENDBRANCH   3   4
ENDBRANCH   2   3
ENDBRANCH   1   2
BRANCH   1  16
ATOM     16  C   UNL     1       1.443   5.301  20.568  0.00  0.00    +0.000 C 
BRANCH  16  17
ATOM     17  C   UNL     1       2.316   4.265  21.263  0.00  0.00    +0.000 C 
BRANCH  17  18
ATOM     18  C   UNL     1       2.202   2.916  20.566  0.00  0.00    +0.000 C 
BRANCH  18  19
ATOM     19  C   UNL     1       3.454   2.636  19.750  0.00  0.00    +0.000 C 
BRANCH  19  20
ATOM     20  C   UNL     1       3.108   1.823  18.513  0.00  0.00    +0.000 C 
BRANCH  20  21
ATOM     21  C   UNL     1       2.668   2.740  17.383  0.00  0.00    +0.000 C 
BRANCH  21  22
ATOM     22  C   UNL     1       3.498   4.014  17.383  0.00  0.00    +0.000 C 
BRANCH  22  23
ATOM     23  C   UNL     1       4.478   4.008  16.220  0.00  0.00    +0.000 C 
BRANCH  23  24
ATOM     24  C   UNL     1       5.877   4.368  16.701  0.00  0.00    +0.000 C 
BRANCH  24  25
ATOM     25  C   UNL     1       5.897   5.777  17.280  0.00  0.00    +0.000 C 
BRANCH  25  26
ATOM     26  C   UNL     1       7.243   6.444  17.018  0.00  0.00    +0.000 C 
BRANCH  26  28
ATOM     27  C   UNL     1       7.854   5.822  19.366  0.00  0.00    +0.000 C 
ATOM     28  C   UNL     1       7.878   6.921  18.319  0.00  0.00    +0.000 C 
ENDBRANCH  26  28
ENDBRANCH  25  26
ENDBRANCH  24  25
ENDBRANCH  23  24
ENDBRANCH  22  23
ENDBRANCH  21  22
ENDBRANCH  20  21
ENDBRANCH  19  20
ENDBRANCH  18  19
ENDBRANCH  17  18
ENDBRANCH  16  17
ENDBRANCH   1  16
TORSDOF 17
ENDMDL
MODEL 6
REMARK VINA RESULT:      -5.7      4.105      8.754
REMARK  Name = 
REMARK  18 active torsions:
REMARK  status: ('A' for Active; 'I' for Inactive)
REMARK    1  A    between atoms: C_1  and  C_2
REMARK    2  A    between atoms: C_2  and  C_3
REMARK    3  A    between atoms: C_3  and  C_4
REMARK    4  A    between atoms: C_4  and  C_5
REMARK    5  A    between atoms: C_5  and  C_6
REMARK    6  A    between atoms: C_6  and  C_7
REMARK    7  A    between atoms: C_7  and  C_8
REMARK    8  A    between atoms: C_8  and  C_9
REMARK    9  A    between atoms: C_9  and  C_10
REMARK   10  A    between atoms: C_10  and  C_11
REMARK   11  A    between atoms: C_11  and  C_12
REMARK   12  A    between atoms: C_12  and  C_13
REMARK   13  A    between atoms: C_13  and  C_14
REMARK   14  A    between atoms: C_14  and  C_15
REMARK   15  A    between atoms: C_15  and  C_16
REMARK   16  A    between atoms: C_16  and  C_17
REMARK   17  A    between atoms: C_17  and  C_18
REMARK   18  A    between atoms: C_21  and  C_22
REMARK                            x       y       z     vdW  Elec       q    Type
REMARK                         _______ _______ _______ _____ _____    ______ ____
ROOT
ATOM      1  C   UNL     1       2.969   4.593  19.905  0.00  0.00    +0.000 C 
ENDROOT
BRANCH   1   2
ATOM      2  C   UNL     1       4.225   5.429  19.683  0.00  0.00    +0.000 C 
BRANCH   2   3
ATOM      3  C   UNL     1       3.970   6.520  18.646  0.00  0.00    +0.000 C 
BRANCH   3   4
ATOM      4  C   UNL     1       2.482   6.637  18.328  0.00  0.00    +0.000 C 
BRANCH   4   5
ATOM      5  C   UNL     1       1.969   7.981  18.669  0.00  0.00    +0.000 A 
ATOM      6  N   UNL     1       1.862   9.053  17.917  0.00  0.00    +0.000 NA
ATOM      7  N   UNL     1       1.279  10.024  18.702  0.00  0.00    +0.000 NA
ATOM      8  C   UNL     1       1.065   9.475  19.885  0.00  0.00    +0.000 A 
ATOM      9  O   UNL     1       1.495   8.172  19.940  0.00  0.00    +0.000 OA
BRANCH   8  10
ATOM     10  C   UNL     1       0.404  10.013  21.061  0.00  0.00    +0.000 A 
ATOM     11  C   UNL     1      -0.074  11.328  21.069  0.00  0.00    +0.000 A 
ATOM     12  C   UNL     1      -0.765  11.775  22.183  0.00  0.00    +0.000 A 
ATOM     13  N   UNL     1      -0.991  11.021  23.278  0.00  0.00    +0.000 NA
ATOM     14  C   UNL     1      -0.508   9.763  23.257  0.00  0.00    +0.000 A 
ATOM     15  C   UNL     1       0.189   9.223  22.190  0.00  0.00    +0.000 A 
ENDBRANCH   8  10
ENDBRANCH   4   5
ENDBRANCH   3   4
ENDBRANCH   2   3
ENDBRANCH   1   2
BRANCH   1  16
ATOM     16  C   UNL     1       3.326   3.163  20.286  0.00  0.00    +0.000 C 
BRANCH  16  17
ATOM     17  C   UNL     1       2.546   2.175  19.428  0.00  0.00    +0.000 C 
BRANCH  17  18
ATOM     18  C   UNL     1       1.944   2.878  18.219  0.00  0.00    +0.000 C 
BRANCH  18  19
ATOM     19  C   UNL     1       2.740   2.546  16.966  0.00  0.00    +0.000 C 
BRANCH  19  20
ATOM     20  C   UNL     1       3.318   3.813  16.356  0.00  0.00    +0.000 C 
BRANCH  20  21
ATOM     21  C   UNL     1       4.829   3.839  16.521  0.00  0.00    +0.000 C 
BRANCH  21  22
ATOM     22  C   UNL     1       5.472   4.621  15.386  0.00  0.00    +0.000 C 
BRANCH  22  23
ATOM     23  C   UNL     1       6.305   3.697  14.511  0.00  0.00    +0.000 C 
BRANCH  23  24
ATOM     24  C   UNL     1       6.271   4.162  13.062  0.00  0.00    +0.000 C 
BRANCH  24  25
ATOM     25  C   UNL     1       6.632   3.018  12.124  0.00  0.00    +0.000 C 
BRANCH  25  26
ATOM     26  C   UNL     1       5.377   2.418  11.502  0.00  0.00    +0.000 C 
BRANCH  26  28
ATOM     27  C   UNL     1       3.327   3.342  10.397  0.00  0.00    +0.000 C 
ATOM     28  C   UNL     1       4.191   3.365  11.645  0.00  0.00    +0.000 C 
ENDBRANCH  26  28
ENDBRANCH  25  26
ENDBRANCH  24  25
ENDBRANCH  23  24
ENDBRANCH  22  23
ENDBRANCH  21  22
ENDBRANCH  20  21
ENDBRANCH  19  20
ENDBRANCH  18  19
ENDBRANCH  17  18
ENDBRANCH  16  17
ENDBRANCH   1  16
TORSDOF 17
ENDMDL
MODEL 7
REMARK VINA RESULT:      -5.6      6.218      9.526
REMARK  Name = 
REMARK  18 active torsions:
REMARK  status: ('A' for Active; 'I' for Inactive)
REMARK    1  A    between atoms: C_1  and  C_2
REMARK    2  A    between atoms: C_2  and  C_3
REMARK    3  A    between atoms: C_3  and  C_4
REMARK    4  A    between atoms: C_4  and  C_5
REMARK    5  A    between atoms: C_5  and  C_6
REMARK    6  A    between atoms: C_6  and  C_7
REMARK    7  A    between atoms: C_7  and  C_8
REMARK    8  A    between atoms: C_8  and  C_9
REMARK    9  A    between atoms: C_9  and  C_10
REMARK   10  A    between atoms: C_10  and  C_11
REMARK   11  A    between atoms: C_11  and  C_12
REMARK   12  A    between atoms: C_12  and  C_13
REMARK   13  A    between atoms: C_13  and  C_14
REMARK   14  A    between atoms: C_14  and  C_15
REMARK   15  A    between atoms: C_15  and  C_16
REMARK   16  A    between atoms: C_16  and  C_17
REMARK   17  A    between atoms: C_17  and  C_18
REMARK   18  A    between atoms: C_21  and  C_22
REMARK                            x       y       z     vdW  Elec       q    Type
REMARK                         _______ _______ _______ _____ _____    ______ ____
ROOT
ATOM      1  C   UNL     1       7.815   8.168  17.749  0.00  0.00    +0.000 C 
ENDROOT
BRANCH   1   2
ATOM      2  C   UNL     1       7.794   6.685  18.104  0.00  0.00    +0.000 C 
BRANCH   2   3
ATOM      3  C   UNL     1       6.644   5.977  17.392  0.00  0.00    +0.000 C 
BRANCH   3   4
ATOM      4  C   UNL     1       5.622   6.983  16.868  0.00  0.00    +0.000 C 
BRANCH   4   5
ATOM      5  C   UNL     1       4.334   6.853  17.582  0.00  0.00    +0.000 A 
ATOM      6  N   UNL     1       3.312   7.678  17.624  0.00  0.00    +0.000 NA
ATOM      7  N   UNL     1       2.346   7.062  18.390  0.00  0.00    +0.000 NA
ATOM      8  C   UNL     1       2.844   5.897  18.762  0.00  0.00    +0.000 A 
ATOM      9  O   UNL     1       4.119   5.702  18.292  0.00  0.00    +0.000 OA
BRANCH   8  10
ATOM     10  C   UNL     1       2.231   4.811  19.507  0.00  0.00    +0.000 A 
ATOM     11  C   UNL     1       1.366   3.911  18.873  0.00  0.00    +0.000 A 
ATOM     12  C   UNL     1       0.865   2.848  19.603  0.00  0.00    +0.000 A 
ATOM     13  N   UNL     1       1.145   2.632  20.905  0.00  0.00    +0.000 NA
ATOM     14  C   UNL     1       1.966   3.520  21.502  0.00  0.00    +0.000 A 
ATOM     15  C   UNL     1       2.522   4.610  20.856  0.00  0.00    +0.000 A 
ENDBRANCH   8  10
ENDBRANCH   4   5
ENDBRANCH   3   4
ENDBRANCH   2   3
ENDBRANCH   1   2
BRANCH   1  16
ATOM     16  C   UNL     1       8.708   8.945  18.707  0.00  0.00    +0.000 C 
BRANCH  16  17
ATOM     17  C   UNL     1       8.957  10.351  18.177  0.00  0.00    +0.000 C 
BRANCH  17  18
ATOM     18  C   UNL     1      10.015  11.057  19.011  0.00  0.00    +0.000 C 
BRANCH  18  19
ATOM     19  C   UNL     1       9.427  11.510  20.339  0.00  0.00    +0.000 C 
BRANCH  19  20
ATOM     20  C   UNL     1      10.363  12.491  21.025  0.00  0.00    +0.000 C 
BRANCH  20  21
ATOM     21  C   UNL     1       9.567  13.509  21.827  0.00  0.00    +0.000 C 
BRANCH  21  22
ATOM     22  C   UNL     1      10.056  14.918  21.526  0.00  0.00    +0.000 C 
BRANCH  22  23
ATOM     23  C   UNL     1      11.020  14.904  20.350  0.00  0.00    +0.000 C 
BRANCH  23  24
ATOM     24  C   UNL     1      10.445  15.691  19.181  0.00  0.00    +0.000 C 
BRANCH  24  25
ATOM     25  C   UNL     1       9.137  16.363  19.580  0.00  0.00    +0.000 C 
BRANCH  25  26
ATOM     26  C   UNL     1       8.052  16.077  18.548  0.00  0.00    +0.000 C 
BRANCH  26  28
ATOM     27  C   UNL     1       7.480  13.833  17.594  0.00  0.00    +0.000 C 
ATOM     28  C   UNL     1       7.386  14.732  18.813  0.00  0.00    +0.000 C 
ENDBRANCH  26  28
ENDBRANCH  25  26
ENDBRANCH  24  25
ENDBRANCH  23  24
ENDBRANCH  22  23
ENDBRANCH  21  22
ENDBRANCH  20  21
ENDBRANCH  19  20
ENDBRANCH  18  19
ENDBRANCH  17  18
ENDBRANCH  16  17
ENDBRANCH   1  16
TORSDOF 17
ENDMDL
MODEL 8
REMARK VINA RESULT:      -5.6      5.588      9.055
REMARK  Name = 
REMARK  18 active torsions:
REMARK  status: ('A' for Active; 'I' for Inactive)
REMARK    1  A    between atoms: C_1  and  C_2
REMARK    2  A    between atoms: C_2  and  C_3
REMARK    3  A    between atoms: C_3  and  C_4
REMARK    4  A    between atoms: C_4  and  C_5
REMARK    5  A    between atoms: C_5  and  C_6
REMARK    6  A    between atoms: C_6  and  C_7
REMARK    7  A    between atoms: C_7  and  C_8
REMARK    8  A    between atoms: C_8  and  C_9
REMARK    9  A    between atoms: C_9  and  C_10
REMARK   10  A    between atoms: C_10  and  C_11
REMARK   11  A    between atoms: C_11  and  C_12
REMARK   12  A    between atoms: C_12  and  C_13
REMARK   13  A    between atoms: C_13  and  C_14
REMARK   14  A    between atoms: C_14  and  C_15
REMARK   15  A    between atoms: C_15  and  C_16
REMARK   16  A    between atoms: C_16  and  C_17
REMARK   17  A    between atoms: C_17  and  C_18
REMARK   18  A    between atoms: C_21  and  C_22
REMARK                            x       y       z     vdW  Elec       q    Type
REMARK                         _______ _______ _______ _____ _____    ______ ____
ROOT
ATOM      1  C   UNL     1       7.973   8.410  17.649  0.00  0.00    +0.000 C 
ENDROOT
BRANCH   1   2
ATOM      2  C   UNL     1       8.319   7.417  18.753  0.00  0.00    +0.000 C 
BRANCH   2   3
ATOM      3  C   UNL     1       7.728   6.043  18.447  0.00  0.00    +0.000 C 
BRANCH   3   4
ATOM      4  C   UNL     1       7.062   6.027  17.073  0.00  0.00    +0.000 C 
BRANCH   4   5
ATOM      5  C   UNL     1       5.791   5.272  17.108  0.00  0.00    +0.000 A 
ATOM      6  N   UNL     1       5.171   4.632  16.143  0.00  0.00    +0.000 NA
ATOM      7  N   UNL     1       4.054   4.057  16.712  0.00  0.00    +0.000 NA
ATOM      8  C   UNL     1       4.072   4.383  17.991  0.00  0.00    +0.000 A 
ATOM      9  O   UNL     1       5.148   5.172  18.313  0.00  0.00    +0.000 OA
BRANCH   8  10
ATOM     10  C   UNL     1       3.187   3.983  19.072  0.00  0.00    +0.000 A 
ATOM     11  C   UNL     1       2.914   4.860  20.128  0.00  0.00    +0.000 A 
ATOM     12  C   UNL     1       2.006   4.467  21.097  0.00  0.00    +0.000 A 
ATOM     13  N   UNL     1       1.377   3.273  21.097  0.00  0.00    +0.000 NA
ATOM     14  C   UNL     1       1.667   2.438  20.080  0.00  0.00    +0.000 A 
ATOM     15  C   UNL     1       2.555   2.740  19.062  0.00  0.00    +0.000 A 
ENDBRANCH   8  10
ENDBRANCH   4   5
ENDBRANCH   3   4
ENDBRANCH   2   3
ENDBRANCH   1   2
BRANCH   1  16
ATOM     16  C   UNL     1       8.181   9.843  18.120  0.00  0.00    +0.000 C 
BRANCH  16  17
ATOM     17  C   UNL     1       9.497   9.967  18.877  0.00  0.00    +0.000 C 
BRANCH  17  18
ATOM     18  C   UNL     1       9.314  10.809  20.131  0.00  0.00    +0.000 C 
BRANCH  18  19
ATOM     19  C   UNL     1      10.534  11.688  20.360  0.00  0.00    +0.000 C 
BRANCH  19  20
ATOM     20  C   UNL     1      11.460  11.631  19.156  0.00  0.00    +0.000 C 
BRANCH  20  21
ATOM     21  C   UNL     1      11.608  13.012  18.536  0.00  0.00    +0.000 C 
BRANCH  21  22
ATOM     22  C   UNL     1      10.481  13.272  17.549  0.00  0.00    +0.000 C 
BRANCH  22  23
ATOM     23  C   UNL     1       9.590  14.401  18.047  0.00  0.00    +0.000 C 
BRANCH  23  24
ATOM     24  C   UNL     1       8.223  13.863  18.445  0.00  0.00    +0.000 C 
BRANCH  24  25
ATOM     25  C   UNL     1       7.119  14.601  17.698  0.00  0.00    +0.000 C 
BRANCH  25  26
ATOM     26  C   UNL     1       6.698  15.850  18.463  0.00  0.00    +0.000 C 
BRANCH  26  28
ATOM     27  C   UNL     1       5.063  15.108  20.210  0.00  0.00    +0.000 C 
ATOM     28  C   UNL     1       6.493  15.542  19.942  0.00  0.00    +0.000 C 
ENDBRANCH  26  28
ENDBRANCH  25  26
ENDBRANCH  24  25
ENDBRANCH  23  24
ENDBRANCH  22  23
ENDBRANCH  21  22
ENDBRANCH  20  21
ENDBRANCH  19  20
ENDBRANCH  18  19
ENDBRANCH  17  18
ENDBRANCH  16  17
ENDBRANCH   1  16
TORSDOF 17
ENDMDL
MODEL 9
REMARK VINA RESULT:      -5.6      4.660      9.135
REMARK  Name = 
REMARK  18 active torsions:
REMARK  status: ('A' for Active; 'I' for Inactive)
REMARK    1  A    between atoms: C_1  and  C_2
REMARK    2  A    between atoms: C_2  and  C_3
REMARK    3  A    between atoms: C_3  and  C_4
REMARK    4  A    between atoms: C_4  and  C_5
REMARK    5  A    between atoms: C_5  and  C_6
REMARK    6  A    between atoms: C_6  and  C_7
REMARK    7  A    between atoms: C_7  and  C_8
REMARK    8  A    between atoms: C_8  and  C_9
REMARK    9  A    between atoms: C_9  and  C_10
REMARK   10  A    between atoms: C_10  and  C_11
REMARK   11  A    between atoms: C_11  and  C_12
REMARK   12  A    between atoms: C_12  and  C_13
REMARK   13  A    between atoms: C_13  and  C_14
REMARK   14  A    between atoms: C_14  and  C_15
REMARK   15  A    between atoms: C_15  and  C_16
REMARK   16  A    between atoms: C_16  and  C_17
REMARK   17  A    between atoms: C_17  and  C_18
REMARK   18  A    between atoms: C_21  and  C_22
REMARK                            x       y       z     vdW  Elec       q    Type
REMARK                         _______ _______ _______ _____ _____    ______ ____
ROOT
ATOM      1  C   UNL     1       1.499   4.902  20.434  0.00  0.00    +0.000 C 
ENDROOT
BRANCH   1   2
ATOM      2  C   UNL     1       2.558   5.750  19.738  0.00  0.00    +0.000 C 
BRANCH   2   3
ATOM      3  C   UNL     1       2.293   7.236  19.965  0.00  0.00    +0.000 C 
BRANCH   3   4
ATOM      4  C   UNL     1       2.048   7.957  18.641  0.00  0.00    +0.000 C 
BRANCH   4   5
ATOM      5  C   UNL     1       1.511   9.315  18.867  0.00  0.00    +0.000 A 
ATOM      6  N   UNL     1       1.521  10.363  18.075  0.00  0.00    +0.000 NA
ATOM      7  N   UNL     1       0.849  11.364  18.743  0.00  0.00    +0.000 NA
ATOM      8  C   UNL     1       0.469  10.855  19.901  0.00  0.00    +0.000 A 
ATOM      9  O   UNL     1       0.871   9.552  20.055  0.00  0.00    +0.000 OA
BRANCH   8  10
ATOM     10  C   UNL     1      -0.340  11.436  20.959  0.00  0.00    +0.000 A 
ATOM     11  C   UNL     1      -0.885  12.718  20.816  0.00  0.00    +0.000 A 
ATOM     12  C   UNL     1      -1.711  13.202  21.816  0.00  0.00    +0.000 A 
ATOM     13  N   UNL     1      -2.012  12.517  22.939  0.00  0.00    +0.000 NA
ATOM     14  C   UNL     1      -1.463  11.292  23.065  0.00  0.00    +0.000 A 
ATOM     15  C   UNL     1      -0.630  10.719  22.120  0.00  0.00    +0.000 A 
ENDBRANCH   8  10
ENDBRANCH   4   5
ENDBRANCH   3   4
ENDBRANCH   2   3
ENDBRANCH   1   2
BRANCH   1  16
ATOM     16  C   UNL     1       2.132   3.986  21.474  0.00  0.00    +0.000 C 
BRANCH  16  17
ATOM     17  C   UNL     1       1.741   2.538  21.212  0.00  0.00    +0.000 C 
BRANCH  17  18
ATOM     18  C   UNL     1       1.322   2.352  19.761  0.00  0.00    +0.000 C 
BRANCH  18  19
ATOM     19  C   UNL     1       2.483   1.810  18.941  0.00  0.00    +0.000 C 
BRANCH  19  20
ATOM     20  C   UNL     1       2.533   2.489  17.581  0.00  0.00    +0.000 C 
BRANCH  20  21
ATOM     21  C   UNL     1       3.974   2.730  17.162  0.00  0.00    +0.000 C 
BRANCH  21  22
ATOM     22  C   UNL     1       4.197   4.203  16.858  0.00  0.00    +0.000 C 
BRANCH  22  23
ATOM     23  C   UNL     1       5.522   4.400  16.137  0.00  0.00    +0.000 C 
BRANCH  23  24
ATOM     24  C   UNL     1       5.311   4.410  14.630  0.00  0.00    +0.000 C 
BRANCH  24  25
ATOM     25  C   UNL     1       6.632   4.197  13.902  0.00  0.00    +0.000 C 
BRANCH  25  26
ATOM     26  C   UNL     1       6.390   3.916  12.424  0.00  0.00    +0.000 C 
BRANCH  26  28
ATOM     27  C   UNL     1       4.209   3.444  11.286  0.00  0.00    +0.000 C 
ATOM     28  C   UNL     1       5.262   2.907  12.238  0.00  0.00    +0.000 C 
ENDBRANCH  26  28
ENDBRANCH  25  26
ENDBRANCH  24  25
ENDBRANCH  23  24
ENDBRANCH  22  23
ENDBRANCH  21  22
ENDBRANCH  20  21
ENDBRANCH  19  20
ENDBRANCH  18  19
ENDBRANCH  17  18
ENDBRANCH  16  17
ENDBRANCH   1  16
TORSDOF 17
ENDMDL
