MODEL 1
REMARK VINA RESULT:      -7.6      0.000      0.000
REMARK  Name = 
REMARK  10 active torsions:
REMARK  status: ('A' for Active; 'I' for Inactive)
REMARK    1  A    between atoms: C_1  and  C_2
REMARK    2  A    between atoms: C_2  and  N_3
REMARK    3  A    between atoms: N_3  and  C_4
REMARK    4  A    between atoms: C_4  and  C_5
REMARK    5  A    between atoms: N_7  and  C_8
REMARK    6  A    between atoms: C_11  and  N_12
REMARK    7  A    between atoms: C_13  and  C_14
REMARK    8  A    between atoms: C_18  and  C_20
REMARK    9  A    between atoms: N_22  and  C_23
REMARK   10  A    between atoms: C_30  and  C_31
REMARK                            x       y       z     vdW  Elec       q    Type
REMARK                         _______ _______ _______ _____ _____    ______ ____
ROOT
ATOM      1  N   UNL     1       0.034  12.806  20.533  0.00  0.00    +0.000 N 
ATOM      2  C   UNL     1      -0.996  13.432  19.811  0.00  0.00    +0.000 C 
ATOM      3  O   UNL     1      -0.753  14.225  18.903  0.00  0.00    +0.000 OA
ENDROOT
BRANCH   2   4
ATOM      4  C   UNL     1      -2.373  13.188  20.191  0.00  0.00    +0.000 A 
ATOM      5  C   UNL     1      -3.038  13.700  21.282  0.00  0.00    +0.000 A 
ATOM      6  N   UNL     1      -4.311  13.181  21.277  0.00  0.00    +0.000 N 
ATOM      7  N   UNL     1      -4.446  12.229  20.317  0.00  0.00    +0.000 NA
ATOM      8  C   UNL     1      -3.300  12.275  19.619  0.00  0.00    +0.000 A 
BRANCH   6   9
ATOM      9  C   UNL     1      -5.382  13.543  22.139  0.00  0.00    +0.000 A 
ATOM     10  C   UNL     1      -6.536  12.746  22.224  0.00  0.00    +0.000 A 
ATOM     11  C   UNL     1      -7.582  13.107  23.076  0.00  0.00    +0.000 A 
ATOM     12  C   UNL     1      -7.488  14.263  23.846  0.00  0.00    +0.000 A 
ATOM     13  C   UNL     1      -6.342  15.054  23.774  0.00  0.00    +0.000 A 
ATOM     14  C   UNL     1      -5.284  14.695  22.923  0.00  0.00    +0.000 A 
ENDBRANCH   6   9
BRANCH   8  15
ATOM     15  C   UNL     1      -3.118  11.459  18.361  0.00  0.00    +0.000 A 
ATOM     16  C   UNL     1      -2.070  10.585  18.148  0.00  0.00    +0.000 A 
ATOM     17  C   UNL     1      -2.125   9.974  16.857  0.00  0.00    +0.000 A 
ATOM     18  C   UNL     1      -3.244  10.355  16.154  0.00  0.00    +0.000 A 
ATOM     19  S   UNL     1      -4.210  11.446  17.041  0.00  0.00    +0.000 S 
ENDBRANCH   8  15
ENDBRANCH   2   4
BRANCH   1  21
ATOM     20  C   UNL     1       2.173  13.978  20.941  0.00  0.00    +0.000 C 
ATOM     21  C   UNL     1       1.392  13.045  20.033  0.00  0.00    +0.000 C 
ENDBRANCH   1  21
BRANCH   1  22
ATOM     22  C   UNL     1      -0.137  11.637  21.410  0.00  0.00    +0.000 C 
BRANCH  22  23
ATOM     23  C   UNL     1       0.719  10.371  21.243  0.00  0.00    +0.000 C 
ATOM     24  O   UNL     1       1.415   9.991  22.185  0.00  0.00    +0.000 OA
ATOM     25  N   UNL     1       0.605   9.722  20.028  0.00  0.00    +0.000 N 
ATOM     26  H   UNL     1       0.246  10.267  19.254  0.00  0.00    +0.000 HD
BRANCH  25  27
ATOM     27  C   UNL     1       1.328   8.553  19.710  0.00  0.00    +0.000 A 
ATOM     28  C   UNL     1       1.386   7.458  20.571  0.00  0.00    +0.000 A 
ATOM     29  C   UNL     1       2.079   6.296  20.202  0.00  0.00    +0.000 A 
ATOM     30  C   UNL     1       2.757   6.225  18.985  0.00  0.00    +0.000 A 
ATOM     31  C   UNL     1       2.724   7.339  18.138  0.00  0.00    +0.000 A 
ATOM     32  C   UNL     1       1.986   8.482  18.483  0.00  0.00    +0.000 A 
BRANCH  30  33
ATOM     33  N   UNL     1       3.464   5.084  18.540  0.00  0.00    +0.000 N 
ATOM     34  C   UNL     1       2.974   4.047  17.766  0.00  0.00    +0.000 C 
ATOM     35  C   UNL     1       4.020   3.016  17.422  0.00  0.00    +0.000 C 
ATOM     36  O   UNL     1       1.822   3.904  17.370  0.00  0.00    +0.000 OA
ATOM     37  H   UNL     1       4.442   5.044  18.797  0.00  0.00    +0.000 HD
ENDBRANCH  30  33
ENDBRANCH  25  27
ENDBRANCH  22  23
ENDBRANCH   1  22
TORSDOF 8
ENDMDL
MODEL 2
REMARK VINA RESULT:      -7.4      5.849     10.380
REMARK  Name = 
REMARK  10 active torsions:
REMARK  status: ('A' for Active; 'I' for Inactive)
REMARK    1  A    between atoms: C_1  and  C_2
REMARK    2  A    between atoms: C_2  and  N_3
REMARK    3  A    between atoms: N_3  and  C_4
REMARK    4  A    between atoms: C_4  and  C_5
REMARK    5  A    between atoms: N_7  and  C_8
REMARK    6  A    between atoms: C_11  and  N_12
REMARK    7  A    between atoms: C_13  and  C_14
REMARK    8  A    between atoms: C_18  and  C_20
REMARK    9  A    between atoms: N_22  and  C_23
REMARK   10  A    between atoms: C_30  and  C_31
REMARK                            x       y       z     vdW  Elec       q    Type
REMARK                         _______ _______ _______ _____ _____    ______ ____
ROOT
ATOM      1  N   UNL     1       6.613   5.544  16.461  0.00  0.00    +0.000 N 
ATOM      2  C   UNL     1       5.274   5.123  16.391  0.00  0.00    +0.000 C 
ATOM      3  O   UNL     1       4.890   4.351  15.515  0.00  0.00    +0.000 OA
ENDROOT
BRANCH   2   4
ATOM      4  C   UNL     1       4.314   5.665  17.331  0.00  0.00    +0.000 A 
ATOM      5  C   UNL     1       3.876   6.967  17.415  0.00  0.00    +0.000 A 
ATOM      6  N   UNL     1       2.997   7.045  18.470  0.00  0.00    +0.000 N 
ATOM      7  N   UNL     1       2.973   5.881  19.172  0.00  0.00    +0.000 NA
ATOM      8  C   UNL     1       3.717   5.027  18.452  0.00  0.00    +0.000 A 
BRANCH   6   9
ATOM      9  C   UNL     1       2.201   8.165  18.834  0.00  0.00    +0.000 A 
ATOM     10  C   UNL     1       1.606   8.241  20.105  0.00  0.00    +0.000 A 
ATOM     11  C   UNL     1       0.828   9.346  20.456  0.00  0.00    +0.000 A 
ATOM     12  C   UNL     1       0.635  10.381  19.545  0.00  0.00    +0.000 A 
ATOM     13  C   UNL     1       1.229  10.318  18.285  0.00  0.00    +0.000 A 
ATOM     14  C   UNL     1       2.017   9.212  17.927  0.00  0.00    +0.000 A 
ENDBRANCH   6   9
BRANCH   8  15
ATOM     15  C   UNL     1       3.814   3.567  18.830  0.00  0.00    +0.000 A 
ATOM     16  C   UNL     1       4.480   3.098  19.946  0.00  0.00    +0.000 A 
ATOM     17  C   UNL     1       4.446   1.672  20.039  0.00  0.00    +0.000 A 
ATOM     18  C   UNL     1       3.704   1.107  19.028  0.00  0.00    +0.000 A 
ATOM     19  S   UNL     1       3.067   2.286  17.973  0.00  0.00    +0.000 S 
ENDBRANCH   8  15
ENDBRANCH   2   4
BRANCH   1  21
ATOM     20  C   UNL     1       7.600   5.616  14.195  0.00  0.00    +0.000 C 
ATOM     21  C   UNL     1       7.532   4.888  15.525  0.00  0.00    +0.000 C 
ENDBRANCH   1  21
BRANCH   1  22
ATOM     22  C   UNL     1       7.233   6.205  17.620  0.00  0.00    +0.000 C 
BRANCH  22  23
ATOM     23  C   UNL     1       7.493   7.720  17.641  0.00  0.00    +0.000 C 
ATOM     24  O   UNL     1       6.850   8.448  16.882  0.00  0.00    +0.000 OA
ATOM     25  N   UNL     1       8.427   8.160  18.560  0.00  0.00    +0.000 N 
ATOM     26  H   UNL     1       9.081   7.470  18.907  0.00  0.00    +0.000 HD
BRANCH  25  27
ATOM     27  C   UNL     1       8.789   9.516  18.700  0.00  0.00    +0.000 A 
ATOM     28  C   UNL     1       8.574  10.451  17.688  0.00  0.00    +0.000 A 
ATOM     29  C   UNL     1       8.907  11.799  17.879  0.00  0.00    +0.000 A 
ATOM     30  C   UNL     1       9.496  12.227  19.069  0.00  0.00    +0.000 A 
ATOM     31  C   UNL     1       9.741  11.279  20.070  0.00  0.00    +0.000 A 
ATOM     32  C   UNL     1       9.359   9.940  19.900  0.00  0.00    +0.000 A 
BRANCH  30  33
ATOM     33  N   UNL     1       9.846  13.571  19.338  0.00  0.00    +0.000 N 
ATOM     34  C   UNL     1      10.863  14.303  18.750  0.00  0.00    +0.000 C 
ATOM     35  C   UNL     1      10.921  15.732  19.230  0.00  0.00    +0.000 C 
ATOM     36  O   UNL     1      11.679  13.901  17.927  0.00  0.00    +0.000 OA
ATOM     37  H   UNL     1       9.266  14.050  20.015  0.00  0.00    +0.000 HD
ENDBRANCH  30  33
ENDBRANCH  25  27
ENDBRANCH  22  23
ENDBRANCH   1  22
TORSDOF 8
ENDMDL
MODEL 3
REMARK VINA RESULT:      -7.4      1.284      1.607
REMARK  Name = 
REMARK  10 active torsions:
REMARK  status: ('A' for Active; 'I' for Inactive)
REMARK    1  A    between atoms: C_1  and  C_2
REMARK    2  A    between atoms: C_2  and  N_3
REMARK    3  A    between atoms: N_3  and  C_4
REMARK    4  A    between atoms: C_4  and  C_5
REMARK    5  A    between atoms: N_7  and  C_8
REMARK    6  A    between atoms: C_11  and  N_12
REMARK    7  A    between atoms: C_13  and  C_14
REMARK    8  A    between atoms: C_18  and  C_20
REMARK    9  A    between atoms: N_22  and  C_23
REMARK   10  A    between atoms: C_30  and  C_31
REMARK                            x       y       z     vdW  Elec       q    Type
REMARK                         _______ _______ _______ _____ _____    ______ ____
ROOT
ATOM      1  N   UNL     1       0.446  12.194  19.346  0.00  0.00    +0.000 N 
ATOM      2  C   UNL     1      -0.642  12.899  18.804  0.00  0.00    +0.000 C 
ATOM      3  O   UNL     1      -0.487  13.731  17.912  0.00  0.00    +0.000 OA
ENDROOT
BRANCH   2   4
ATOM      4  C   UNL     1      -1.965  12.689  19.357  0.00  0.00    +0.000 A 
ATOM      5  C   UNL     1      -2.432  13.114  20.581  0.00  0.00    +0.000 A 
ATOM      6  N   UNL     1      -3.725  12.667  20.712  0.00  0.00    +0.000 N 
ATOM      7  N   UNL     1      -4.059  11.833  19.691  0.00  0.00    +0.000 NA
ATOM      8  C   UNL     1      -3.023  11.894  18.840  0.00  0.00    +0.000 A 
BRANCH   6   9
ATOM      9  C   UNL     1      -4.636  12.989  21.754  0.00  0.00    +0.000 A 
ATOM     10  C   UNL     1      -4.208  13.698  22.890  0.00  0.00    +0.000 A 
ATOM     11  C   UNL     1      -5.110  14.013  23.907  0.00  0.00    +0.000 A 
ATOM     12  C   UNL     1      -6.443  13.625  23.804  0.00  0.00    +0.000 A 
ATOM     13  C   UNL     1      -6.878  12.930  22.676  0.00  0.00    +0.000 A 
ATOM     14  C   UNL     1      -5.978  12.613  21.646  0.00  0.00    +0.000 A 
ENDBRANCH   6   9
BRANCH   8  15
ATOM     15  C   UNL     1      -3.078  11.211  17.494  0.00  0.00    +0.000 A 
ATOM     16  C   UNL     1      -2.153  10.281  17.058  0.00  0.00    +0.000 A 
ATOM     17  C   UNL     1      -2.425   9.826  15.731  0.00  0.00    +0.000 A 
ATOM     18  C   UNL     1      -3.580  10.375  15.224  0.00  0.00    +0.000 A 
ATOM     19  S   UNL     1      -4.319  11.436  16.336  0.00  0.00    +0.000 S 
ENDBRANCH   8  15
ENDBRANCH   2   4
BRANCH   1  21
ATOM     20  C   UNL     1       2.595  13.417  19.414  0.00  0.00    +0.000 C 
ATOM     21  C   UNL     1       1.734  12.406  18.677  0.00  0.00    +0.000 C 
ENDBRANCH   1  21
BRANCH   1  22
ATOM     22  C   UNL     1       0.341  10.986  20.180  0.00  0.00    +0.000 C 
BRANCH  22  23
ATOM     23  C   UNL     1       0.798   9.610  19.668  0.00  0.00    +0.000 C 
ATOM     24  O   UNL     1       0.705   9.358  18.466  0.00  0.00    +0.000 OA
ATOM     25  N   UNL     1       1.324   8.756  20.619  0.00  0.00    +0.000 N 
ATOM     26  H   UNL     1       1.084   8.949  21.584  0.00  0.00    +0.000 HD
BRANCH  25  27
ATOM     27  C   UNL     1       1.779   7.455  20.318  0.00  0.00    +0.000 A 
ATOM     28  C   UNL     1       1.316   6.330  20.999  0.00  0.00    +0.000 A 
ATOM     29  C   UNL     1       1.759   5.048  20.643  0.00  0.00    +0.000 A 
ATOM     30  C   UNL     1       2.699   4.874  19.627  0.00  0.00    +0.000 A 
ATOM     31  C   UNL     1       3.186   6.010  18.969  0.00  0.00    +0.000 A 
ATOM     32  C   UNL     1       2.703   7.288  19.288  0.00  0.00    +0.000 A 
BRANCH  30  33
ATOM     33  N   UNL     1       3.181   3.614  19.205  0.00  0.00    +0.000 N 
ATOM     34  C   UNL     1       2.772   2.892  18.097  0.00  0.00    +0.000 C 
ATOM     35  C   UNL     1       3.542   1.608  17.907  0.00  0.00    +0.000 C 
ATOM     36  O   UNL     1       1.878   3.191  17.312  0.00  0.00    +0.000 OA
ATOM     37  H   UNL     1       3.927   3.218  19.762  0.00  0.00    +0.000 HD
ENDBRANCH  30  33
ENDBRANCH  25  27
ENDBRANCH  22  23
ENDBRANCH   1  22
TORSDOF 8
ENDMDL
MODEL 4
REMARK VINA RESULT:      -7.4      1.128      1.133
REMARK  Name = 
REMARK  10 active torsions:
REMARK  status: ('A' for Active; 'I' for Inactive)
REMARK    1  A    between atoms: C_1  and  C_2
REMARK    2  A    between atoms: C_2  and  N_3
REMARK    3  A    between atoms: N_3  and  C_4
REMARK    4  A    between atoms: C_4  and  C_5
REMARK    5  A    between atoms: N_7  and  C_8
REMARK    6  A    between atoms: C_11  and  N_12
REMARK    7  A    between atoms: C_13  and  C_14
REMARK    8  A    between atoms: C_18  and  C_20
REMARK    9  A    between atoms: N_22  and  C_23
REMARK   10  A    between atoms: C_30  and  C_31
REMARK                            x       y       z     vdW  Elec       q    Type
REMARK                         _______ _______ _______ _____ _____    ______ ____
ROOT
ATOM      1  N   UNL     1       0.202  12.439  20.062  0.00  0.00    +0.000 N 
ATOM      2  C   UNL     1      -0.840  12.960  19.277  0.00  0.00    +0.000 C 
ATOM      3  O   UNL     1      -0.613  13.674  18.302  0.00  0.00    +0.000 OA
ENDROOT
BRANCH   2   4
ATOM      4  C   UNL     1      -2.212  12.706  19.667  0.00  0.00    +0.000 A 
ATOM      5  C   UNL     1      -2.846  13.138  20.811  0.00  0.00    +0.000 A 
ATOM      6  N   UNL     1      -4.126  12.639  20.792  0.00  0.00    +0.000 N 
ATOM      7  N   UNL     1      -4.297  11.769  19.762  0.00  0.00    +0.000 NA
ATOM      8  C   UNL     1      -3.165  11.856  19.044  0.00  0.00    +0.000 A 
BRANCH   6   9
ATOM      9  C   UNL     1      -5.173  12.945  21.704  0.00  0.00    +0.000 A 
ATOM     10  C   UNL     1      -6.512  12.664  21.383  0.00  0.00    +0.000 A 
ATOM     11  C   UNL     1      -7.533  12.966  22.285  0.00  0.00    +0.000 A 
ATOM     12  C   UNL     1      -7.231  13.550  23.512  0.00  0.00    +0.000 A 
ATOM     13  C   UNL     1      -5.904  13.824  23.842  0.00  0.00    +0.000 A 
ATOM     14  C   UNL     1      -4.871  13.519  22.942  0.00  0.00    +0.000 A 
ENDBRANCH   6   9
BRANCH   8  15
ATOM     15  C   UNL     1      -3.024  11.140  17.721  0.00  0.00    +0.000 A 
ATOM     16  C   UNL     1      -2.050  10.198  17.449  0.00  0.00    +0.000 A 
ATOM     17  C   UNL     1      -2.126   9.712  16.107  0.00  0.00    +0.000 A 
ATOM     18  C   UNL     1      -3.189  10.252  15.421  0.00  0.00    +0.000 A 
ATOM     19  S   UNL     1      -4.078  11.342  16.387  0.00  0.00    +0.000 S 
ENDBRANCH   8  15
ENDBRANCH   2   4
BRANCH   1  21
ATOM     20  C   UNL     1       2.419  13.413  20.563  0.00  0.00    +0.000 C 
ATOM     21  C   UNL     1       1.557  12.676  19.554  0.00  0.00    +0.000 C 
ENDBRANCH   1  21
BRANCH   1  22
ATOM     22  C   UNL     1       0.060  11.351  21.043  0.00  0.00    +0.000 C 
BRANCH  22  23
ATOM     23  C   UNL     1       0.183   9.875  20.634  0.00  0.00    +0.000 C 
ATOM     24  O   UNL     1      -0.834   9.181  20.586  0.00  0.00    +0.000 OA
ATOM     25  N   UNL     1       1.454   9.441  20.310  0.00  0.00    +0.000 N 
ATOM     26  H   UNL     1       2.226   9.996  20.660  0.00  0.00    +0.000 HD
BRANCH  25  27
ATOM     27  C   UNL     1       1.740   8.115  19.924  0.00  0.00    +0.000 A 
ATOM     28  C   UNL     1       1.635   7.044  20.812  0.00  0.00    +0.000 A 
ATOM     29  C   UNL     1       1.886   5.734  20.381  0.00  0.00    +0.000 A 
ATOM     30  C   UNL     1       2.283   5.477  19.069  0.00  0.00    +0.000 A 
ATOM     31  C   UNL     1       2.420   6.559  18.191  0.00  0.00    +0.000 A 
ATOM     32  C   UNL     1       2.117   7.864  18.606  0.00  0.00    +0.000 A 
BRANCH  30  33
ATOM     33  N   UNL     1       2.539   4.182  18.560  0.00  0.00    +0.000 N 
ATOM     34  C   UNL     1       3.652   3.396  18.802  0.00  0.00    +0.000 C 
ATOM     35  C   UNL     1       3.574   2.039  18.147  0.00  0.00    +0.000 C 
ATOM     36  O   UNL     1       4.643   3.702  19.457  0.00  0.00    +0.000 OA
ATOM     37  H   UNL     1       1.811   3.784  17.982  0.00  0.00    +0.000 HD
ENDBRANCH  30  33
ENDBRANCH  25  27
ENDBRANCH  22  23
ENDBRANCH   1  22
TORSDOF 8
ENDMDL
MODEL 5
REMARK VINA RESULT:      -7.3      3.108      7.773
REMARK  Name = 
REMARK  10 active torsions:
REMARK  status: ('A' for Active; 'I' for Inactive)
REMARK    1  A    between atoms: C_1  and  C_2
REMARK    2  A    between atoms: C_2  and  N_3
REMARK    3  A    between atoms: N_3  and  C_4
REMARK    4  A    between atoms: C_4  and  C_5
REMARK    5  A    between atoms: N_7  and  C_8
REMARK    6  A    between atoms: C_11  and  N_12
REMARK    7  A    between atoms: C_13  and  C_14
REMARK    8  A    between atoms: C_18  and  C_20
REMARK    9  A    between atoms: N_22  and  C_23
REMARK   10  A    between atoms: C_30  and  C_31
REMARK                            x       y       z     vdW  Elec       q    Type
REMARK                         _______ _______ _______ _____ _____    ______ ____
ROOT
ATOM      1  N   UNL     1       0.973   8.913  20.504  0.00  0.00    +0.000 N 
ATOM      2  C   UNL     1       0.929   9.555  19.255  0.00  0.00    +0.000 C 
ATOM      3  O   UNL     1       1.776   9.334  18.390  0.00  0.00    +0.000 OA
ENDROOT
BRANCH   2   4
ATOM      4  C   UNL     1      -0.097  10.547  19.007  0.00  0.00    +0.000 A 
ATOM      5  C   UNL     1      -1.430  10.318  18.749  0.00  0.00    +0.000 A 
ATOM      6  N   UNL     1      -2.030  11.537  18.540  0.00  0.00    +0.000 N 
ATOM      7  N   UNL     1      -1.108  12.534  18.494  0.00  0.00    +0.000 NA
ATOM      8  C   UNL     1       0.051  11.950  18.838  0.00  0.00    +0.000 A 
BRANCH   6   9
ATOM      9  C   UNL     1      -3.421  11.785  18.378  0.00  0.00    +0.000 A 
ATOM     10  C   UNL     1      -4.061  11.519  17.156  0.00  0.00    +0.000 A 
ATOM     11  C   UNL     1      -5.427  11.763  17.006  0.00  0.00    +0.000 A 
ATOM     12  C   UNL     1      -6.165  12.274  18.070  0.00  0.00    +0.000 A 
ATOM     13  C   UNL     1      -5.540  12.532  19.289  0.00  0.00    +0.000 A 
ATOM     14  C   UNL     1      -4.167  12.285  19.449  0.00  0.00    +0.000 A 
ENDBRANCH   6   9
BRANCH   8  15
ATOM     15  C   UNL     1       1.305  12.767  19.047  0.00  0.00    +0.000 A 
ATOM     16  C   UNL     1       2.106  13.233  18.022  0.00  0.00    +0.000 A 
ATOM     17  C   UNL     1       3.247  13.944  18.506  0.00  0.00    +0.000 A 
ATOM     18  C   UNL     1       3.247  14.049  19.878  0.00  0.00    +0.000 A 
ATOM     19  S   UNL     1       1.886  13.287  20.571  0.00  0.00    +0.000 S 
ENDBRANCH   8  15
ENDBRANCH   2   4
BRANCH   1  21
ATOM     20  C   UNL     1       1.378   6.482  20.713  0.00  0.00    +0.000 C 
ATOM     21  C   UNL     1       1.994   7.868  20.643  0.00  0.00    +0.000 C 
ENDBRANCH   1  21
BRANCH   1  22
ATOM     22  C   UNL     1      -0.132   8.871  21.474  0.00  0.00    +0.000 C 
BRANCH  22  23
ATOM     23  C   UNL     1      -0.430  10.054  22.410  0.00  0.00    +0.000 C 
ATOM     24  O   UNL     1       0.173  10.136  23.481  0.00  0.00    +0.000 OA
ATOM     25  N   UNL     1      -1.349  10.975  21.945  0.00  0.00    +0.000 N 
ATOM     26  H   UNL     1      -1.976  10.662  21.215  0.00  0.00    +0.000 HD
BRANCH  25  27
ATOM     27  C   UNL     1      -1.742  12.111  22.684  0.00  0.00    +0.000 A 
ATOM     28  C   UNL     1      -0.907  13.216  22.847  0.00  0.00    +0.000 A 
ATOM     29  C   UNL     1      -1.347  14.345  23.552  0.00  0.00    +0.000 A 
ATOM     30  C   UNL     1      -2.612  14.372  24.138  0.00  0.00    +0.000 A 
ATOM     31  C   UNL     1      -3.434  13.247  24.002  0.00  0.00    +0.000 A 
ATOM     32  C   UNL     1      -3.015  12.138  23.251  0.00  0.00    +0.000 A 
BRANCH  30  33
ATOM     33  N   UNL     1      -3.129  15.479  24.851  0.00  0.00    +0.000 N 
ATOM     34  C   UNL     1      -3.929  16.492  24.354  0.00  0.00    +0.000 C 
ATOM     35  C   UNL     1      -4.352  17.487  25.408  0.00  0.00    +0.000 C 
ATOM     36  O   UNL     1      -4.291  16.643  23.192  0.00  0.00    +0.000 OA
ATOM     37  H   UNL     1      -2.908  15.509  25.838  0.00  0.00    +0.000 HD
ENDBRANCH  30  33
ENDBRANCH  25  27
ENDBRANCH  22  23
ENDBRANCH   1  22
TORSDOF 8
ENDMDL
MODEL 6
REMARK VINA RESULT:      -7.3      2.111      5.086
REMARK  Name = 
REMARK  10 active torsions:
REMARK  status: ('A' for Active; 'I' for Inactive)
REMARK    1  A    between atoms: C_1  and  C_2
REMARK    2  A    between atoms: C_2  and  N_3
REMARK    3  A    between atoms: N_3  and  C_4
REMARK    4  A    between atoms: C_4  and  C_5
REMARK    5  A    between atoms: N_7  and  C_8
REMARK    6  A    between atoms: C_11  and  N_12
REMARK    7  A    between atoms: C_13  and  C_14
REMARK    8  A    between atoms: C_18  and  C_20
REMARK    9  A    between atoms: N_22  and  C_23
REMARK   10  A    between atoms: C_30  and  C_31
REMARK                            x       y       z     vdW  Elec       q    Type
REMARK                         _______ _______ _______ _____ _____    ______ ____
ROOT
ATOM      1  N   UNL     1      -2.276  12.309  22.223  0.00  0.00    +0.000 N 
ATOM      2  C   UNL     1      -2.493  13.185  21.146  0.00  0.00    +0.000 C 
ATOM      3  O   UNL     1      -3.562  13.777  21.006  0.00  0.00    +0.000 OA
ENDROOT
BRANCH   2   4
ATOM      4  C   UNL     1      -1.458  13.341  20.144  0.00  0.00    +0.000 A 
ATOM      5  C   UNL     1      -0.404  14.227  20.168  0.00  0.00    +0.000 A 
ATOM      6  N   UNL     1       0.309  14.059  19.005  0.00  0.00    +0.000 N 
ATOM      7  N   UNL     1      -0.333  13.212  18.157  0.00  0.00    +0.000 NA
ATOM      8  C   UNL     1      -1.365  12.728  18.865  0.00  0.00    +0.000 A 
BRANCH   6   9
ATOM      9  C   UNL     1       1.550  14.667  18.671  0.00  0.00    +0.000 A 
ATOM     10  C   UNL     1       2.700  13.886  18.464  0.00  0.00    +0.000 A 
ATOM     11  C   UNL     1       3.914  14.491  18.134  0.00  0.00    +0.000 A 
ATOM     12  C   UNL     1       3.993  15.875  18.009  0.00  0.00    +0.000 A 
ATOM     13  C   UNL     1       2.855  16.656  18.204  0.00  0.00    +0.000 A 
ATOM     14  C   UNL     1       1.629  16.055  18.532  0.00  0.00    +0.000 A 
ENDBRANCH   6   9
BRANCH   8  15
ATOM     15  C   UNL     1      -2.244  11.631  18.313  0.00  0.00    +0.000 A 
ATOM     16  C   UNL     1      -3.623  11.696  18.259  0.00  0.00    +0.000 A 
ATOM     17  C   UNL     1      -4.202  10.502  17.725  0.00  0.00    +0.000 A 
ATOM     18  C   UNL     1      -3.245   9.595  17.335  0.00  0.00    +0.000 A 
ATOM     19  S   UNL     1      -1.666  10.175  17.620  0.00  0.00    +0.000 S 
ENDBRANCH   8  15
ENDBRANCH   2   4
BRANCH   1  21
ATOM     20  C   UNL     1      -3.192  13.381  24.255  0.00  0.00    +0.000 C 
ATOM     21  C   UNL     1      -3.341  12.270  23.231  0.00  0.00    +0.000 C 
ENDBRANCH   1  21
BRANCH   1  22
ATOM     22  C   UNL     1      -0.963  11.799  22.648  0.00  0.00    +0.000 C 
BRANCH  22  23
ATOM     23  C   UNL     1      -0.410  10.462  22.127  0.00  0.00    +0.000 C 
ATOM     24  O   UNL     1      -0.768   9.415  22.668  0.00  0.00    +0.000 OA
ATOM     25  N   UNL     1       0.441  10.543  21.041  0.00  0.00    +0.000 N 
ATOM     26  H   UNL     1       0.881  11.440  20.875  0.00  0.00    +0.000 HD
BRANCH  25  27
ATOM     27  C   UNL     1       1.042   9.413  20.449  0.00  0.00    +0.000 A 
ATOM     28  C   UNL     1       1.441   9.398  19.113  0.00  0.00    +0.000 A 
ATOM     29  C   UNL     1       2.075   8.271  18.570  0.00  0.00    +0.000 A 
ATOM     30  C   UNL     1       2.285   7.129  19.342  0.00  0.00    +0.000 A 
ATOM     31  C   UNL     1       1.853   7.136  20.674  0.00  0.00    +0.000 A 
ATOM     32  C   UNL     1       1.267   8.282  21.233  0.00  0.00    +0.000 A 
BRANCH  30  33
ATOM     33  N   UNL     1       2.929   5.962  18.868  0.00  0.00    +0.000 N 
ATOM     34  C   UNL     1       2.392   4.989  18.044  0.00  0.00    +0.000 C 
ATOM     35  C   UNL     1       3.379   3.906  17.682  0.00  0.00    +0.000 C 
ATOM     36  O   UNL     1       1.243   4.935  17.618  0.00  0.00    +0.000 OA
ATOM     37  H   UNL     1       3.896   5.850  19.143  0.00  0.00    +0.000 HD
ENDBRANCH  30  33
ENDBRANCH  25  27
ENDBRANCH  22  23
ENDBRANCH   1  22
TORSDOF 8
ENDMDL
MODEL 7
REMARK VINA RESULT:      -7.3      1.473      1.868
REMARK  Name = 
REMARK  10 active torsions:
REMARK  status: ('A' for Active; 'I' for Inactive)
REMARK    1  A    between atoms: C_1  and  C_2
REMARK    2  A    between atoms: C_2  and  N_3
REMARK    3  A    between atoms: N_3  and  C_4
REMARK    4  A    between atoms: C_4  and  C_5
REMARK    5  A    between atoms: N_7  and  C_8
REMARK    6  A    between atoms: C_11  and  N_12
REMARK    7  A    between atoms: C_13  and  C_14
REMARK    8  A    between atoms: C_18  and  C_20
REMARK    9  A    between atoms: N_22  and  C_23
REMARK   10  A    between atoms: C_30  and  C_31
REMARK                            x       y       z     vdW  Elec       q    Type
REMARK                         _______ _______ _______ _____ _____    ______ ____
ROOT
ATOM      1  N   UNL     1       0.541  12.317  19.240  0.00  0.00    +0.000 N 
ATOM      2  C   UNL     1      -0.602  12.986  18.772  0.00  0.00    +0.000 C 
ATOM      3  O   UNL     1      -0.526  13.860  17.911  0.00  0.00    +0.000 OA
ENDROOT
BRANCH   2   4
ATOM      4  C   UNL     1      -1.888  12.684  19.367  0.00  0.00    +0.000 A 
ATOM      5  C   UNL     1      -2.334  13.054  20.616  0.00  0.00    +0.000 A 
ATOM      6  N   UNL     1      -3.593  12.527  20.783  0.00  0.00    +0.000 N 
ATOM      7  N   UNL     1      -3.914  11.696  19.757  0.00  0.00    +0.000 NA
ATOM      8  C   UNL     1      -2.916  11.838  18.870  0.00  0.00    +0.000 A 
BRANCH   6   9
ATOM      9  C   UNL     1      -4.482  12.772  21.865  0.00  0.00    +0.000 A 
ATOM     10  C   UNL     1      -5.821  13.126  21.629  0.00  0.00    +0.000 A 
ATOM     11  C   UNL     1      -6.689  13.362  22.696  0.00  0.00    +0.000 A 
ATOM     12  C   UNL     1      -6.230  13.249  24.006  0.00  0.00    +0.000 A 
ATOM     13  C   UNL     1      -4.905  12.889  24.250  0.00  0.00    +0.000 A 
ATOM     14  C   UNL     1      -4.028  12.646  23.180  0.00  0.00    +0.000 A 
ENDBRANCH   6   9
BRANCH   8  15
ATOM     15  C   UNL     1      -2.980  11.180  17.511  0.00  0.00    +0.000 A 
ATOM     16  C   UNL     1      -3.844  11.565  16.504  0.00  0.00    +0.000 A 
ATOM     17  C   UNL     1      -3.717  10.746  15.339  0.00  0.00    +0.000 A 
ATOM     18  C   UNL     1      -2.721   9.807  15.474  0.00  0.00    +0.000 A 
ATOM     19  S   UNL     1      -1.956   9.908  16.995  0.00  0.00    +0.000 S 
ENDBRANCH   8  15
ENDBRANCH   2   4
BRANCH   1  21
ATOM     20  C   UNL     1       2.695  13.528  19.345  0.00  0.00    +0.000 C 
ATOM     21  C   UNL     1       1.789  12.623  18.530  0.00  0.00    +0.000 C 
ENDBRANCH   1  21
BRANCH   1  22
ATOM     22  C   UNL     1       0.533  11.072  20.024  0.00  0.00    +0.000 C 
BRANCH  22  23
ATOM     23  C   UNL     1       1.074   9.752  19.451  0.00  0.00    +0.000 C 
ATOM     24  O   UNL     1       1.238   9.652  18.234  0.00  0.00    +0.000 OA
ATOM     25  N   UNL     1       1.377   8.771  20.376  0.00  0.00    +0.000 N 
ATOM     26  H   UNL     1       0.940   8.854  21.285  0.00  0.00    +0.000 HD
BRANCH  25  27
ATOM     27  C   UNL     1       1.873   7.501  20.015  0.00  0.00    +0.000 A 
ATOM     28  C   UNL     1       2.704   7.314  18.911  0.00  0.00    +0.000 A 
ATOM     29  C   UNL     1       3.213   6.043  18.608  0.00  0.00    +0.000 A 
ATOM     30  C   UNL     1       2.869   4.933  19.380  0.00  0.00    +0.000 A 
ATOM     31  C   UNL     1       2.007   5.120  20.468  0.00  0.00    +0.000 A 
ATOM     32  C   UNL     1       1.541   6.400  20.803  0.00  0.00    +0.000 A 
BRANCH  30  33
ATOM     33  N   UNL     1       3.353   3.626  19.144  0.00  0.00    +0.000 N 
ATOM     34  C   UNL     1       2.810   2.674  18.298  0.00  0.00    +0.000 C 
ATOM     35  C   UNL     1       3.618   1.401  18.239  0.00  0.00    +0.000 C 
ATOM     36  O   UNL     1       1.779   2.774  17.642  0.00  0.00    +0.000 OA
ATOM     37  H   UNL     1       4.207   3.378  19.628  0.00  0.00    +0.000 HD
ENDBRANCH  30  33
ENDBRANCH  25  27
ENDBRANCH  22  23
ENDBRANCH   1  22
TORSDOF 8
ENDMDL
MODEL 8
REMARK VINA RESULT:      -7.1      1.057      1.434
REMARK  Name = 
REMARK  10 active torsions:
REMARK  status: ('A' for Active; 'I' for Inactive)
REMARK    1  A    between atoms: C_1  and  C_2
REMARK    2  A    between atoms: C_2  and  N_3
REMARK    3  A    between atoms: N_3  and  C_4
REMARK    4  A    between atoms: C_4  and  C_5
REMARK    5  A    between atoms: N_7  and  C_8
REMARK    6  A    between atoms: C_11  and  N_12
REMARK    7  A    between atoms: C_13  and  C_14
REMARK    8  A    between atoms: C_18  and  C_20
REMARK    9  A    between atoms: N_22  and  C_23
REMARK   10  A    between atoms: C_30  and  C_31
REMARK                            x       y       z     vdW  Elec       q    Type
REMARK                         _______ _______ _______ _____ _____    ______ ____
ROOT
ATOM      1  N   UNL     1       0.154  13.044  20.701  0.00  0.00    +0.000 N 
ATOM      2  C   UNL     1      -0.857  13.569  19.878  0.00  0.00    +0.000 C 
ATOM      3  O   UNL     1      -0.592  14.268  18.902  0.00  0.00    +0.000 OA
ENDROOT
BRANCH   2   4
ATOM      4  C   UNL     1      -2.244  13.336  20.229  0.00  0.00    +0.000 A 
ATOM      5  C   UNL     1      -2.945  13.902  21.270  0.00  0.00    +0.000 A 
ATOM      6  N   UNL     1      -4.214  13.374  21.255  0.00  0.00    +0.000 N 
ATOM      7  N   UNL     1      -4.313  12.369  20.345  0.00  0.00    +0.000 NA
ATOM      8  C   UNL     1      -3.147  12.386  19.681  0.00  0.00    +0.000 A 
BRANCH   6   9
ATOM      9  C   UNL     1      -5.313  13.774  22.063  0.00  0.00    +0.000 A 
ATOM     10  C   UNL     1      -6.044  14.935  21.757  0.00  0.00    +0.000 A 
ATOM     11  C   UNL     1      -7.124  15.320  22.554  0.00  0.00    +0.000 A 
ATOM     12  C   UNL     1      -7.482  14.555  23.660  0.00  0.00    +0.000 A 
ATOM     13  C   UNL     1      -6.768  13.397  23.965  0.00  0.00    +0.000 A 
ATOM     14  C   UNL     1      -5.683  13.001  23.166  0.00  0.00    +0.000 A 
ENDBRANCH   6   9
BRANCH   8  15
ATOM     15  C   UNL     1      -2.922  11.502  18.476  0.00  0.00    +0.000 A 
ATOM     16  C   UNL     1      -1.869  10.617  18.349  0.00  0.00    +0.000 A 
ATOM     17  C   UNL     1      -1.879   9.938  17.091  0.00  0.00    +0.000 A 
ATOM     18  C   UNL     1      -2.971  10.282  16.328  0.00  0.00    +0.000 A 
ATOM     19  S   UNL     1      -3.966  11.419  17.120  0.00  0.00    +0.000 S 
ENDBRANCH   8  15
ENDBRANCH   2   4
BRANCH   1  21
ATOM     20  C   UNL     1       2.288  14.219  21.128  0.00  0.00    +0.000 C 
ATOM     21  C   UNL     1       1.527  13.259  20.231  0.00  0.00    +0.000 C 
ENDBRANCH   1  21
BRANCH   1  22
ATOM     22  C   UNL     1      -0.031  11.970  21.689  0.00  0.00    +0.000 C 
BRANCH  22  23
ATOM     23  C   UNL     1       0.652  10.602  21.531  0.00  0.00    +0.000 C 
ATOM     24  O   UNL     1       1.110  10.043  22.529  0.00  0.00    +0.000 OA
ATOM     25  N   UNL     1       0.663  10.077  20.253  0.00  0.00    +0.000 N 
ATOM     26  H   UNL     1       0.528  10.731  19.492  0.00  0.00    +0.000 HD
BRANCH  25  27
ATOM     27  C   UNL     1       1.258   8.837  19.935  0.00  0.00    +0.000 A 
ATOM     28  C   UNL     1       1.891   8.608  18.714  0.00  0.00    +0.000 A 
ATOM     29  C   UNL     1       2.509   7.377  18.451  0.00  0.00    +0.000 A 
ATOM     30  C   UNL     1       2.469   6.344  19.387  0.00  0.00    +0.000 A 
ATOM     31  C   UNL     1       1.802   6.567  20.598  0.00  0.00    +0.000 A 
ATOM     32  C   UNL     1       1.231   7.816  20.884  0.00  0.00    +0.000 A 
BRANCH  30  33
ATOM     33  N   UNL     1       3.079   5.082  19.197  0.00  0.00    +0.000 N 
ATOM     34  C   UNL     1       4.420   4.773  19.342  0.00  0.00    +0.000 C 
ATOM     35  C   UNL     1       4.721   3.312  19.121  0.00  0.00    +0.000 C 
ATOM     36  O   UNL     1       5.331   5.551  19.608  0.00  0.00    +0.000 OA
ATOM     37  H   UNL     1       2.455   4.323  18.958  0.00  0.00    +0.000 HD
ENDBRANCH  30  33
ENDBRANCH  25  27
ENDBRANCH  22  23
ENDBRANCH   1  22
TORSDOF 8
ENDMDL
MODEL 9
REMARK VINA RESULT:      -7.0      3.989      7.708
REMARK  Name = 
REMARK  10 active torsions:
REMARK  status: ('A' for Active; 'I' for Inactive)
REMARK    1  A    between atoms: C_1  and  C_2
REMARK    2  A    between atoms: C_2  and  N_3
REMARK    3  A    between atoms: N_3  and  C_4
REMARK    4  A    between atoms: C_4  and  C_5
REMARK    5  A    between atoms: N_7  and  C_8
REMARK    6  A    between atoms: C_11  and  N_12
REMARK    7  A    between atoms: C_13  and  C_14
REMARK    8  A    between atoms: C_18  and  C_20
REMARK    9  A    between atoms: N_22  and  C_23
REMARK   10  A    between atoms: C_30  and  C_31
REMARK                            x       y       z     vdW  Elec       q    Type
REMARK                         _______ _______ _______ _____ _____    ______ ____
ROOT
ATOM      1  N   UNL     1       0.488  15.031  20.512  0.00  0.00    +0.000 N 
ATOM      2  C   UNL     1      -0.105  14.177  19.566  0.00  0.00    +0.000 C 
ATOM      3  O   UNL     1      -0.760  14.620  18.624  0.00  0.00    +0.000 OA
ENDROOT
BRANCH   2   4
ATOM      4  C   UNL     1       0.002  12.743  19.746  0.00  0.00    +0.000 A 
ATOM      5  C   UNL     1       0.850  11.883  19.085  0.00  0.00    +0.000 A 
ATOM      6  N   UNL     1       0.591  10.612  19.539  0.00  0.00    +0.000 N 
ATOM      7  N   UNL     1      -0.500  10.594  20.348  0.00  0.00    +0.000 NA
ATOM      8  C   UNL     1      -0.820  11.886  20.527  0.00  0.00    +0.000 A 
BRANCH   6   9
ATOM      9  C   UNL     1       1.324   9.432  19.231  0.00  0.00    +0.000 A 
ATOM     10  C   UNL     1       1.449   8.398  20.174  0.00  0.00    +0.000 A 
ATOM     11  C   UNL     1       2.168   7.242  19.863  0.00  0.00    +0.000 A 
ATOM     12  C   UNL     1       2.767   7.108  18.614  0.00  0.00    +0.000 A 
ATOM     13  C   UNL     1       2.640   8.126  17.669  0.00  0.00    +0.000 A 
ATOM     14  C   UNL     1       1.915   9.289  17.973  0.00  0.00    +0.000 A 
ENDBRANCH   6   9
BRANCH   8  15
ATOM     15  C   UNL     1      -1.904  12.295  21.496  0.00  0.00    +0.000 A 
ATOM     16  C   UNL     1      -1.800  12.182  22.869  0.00  0.00    +0.000 A 
ATOM     17  C   UNL     1      -2.988  12.607  23.540  0.00  0.00    +0.000 A 
ATOM     18  C   UNL     1      -3.933  13.086  22.663  0.00  0.00    +0.000 A 
ATOM     19  S   UNL     1      -3.393  13.013  21.046  0.00  0.00    +0.000 S 
ENDBRANCH   8  15
ENDBRANCH   2   4
BRANCH   1  21
ATOM     20  C   UNL     1       0.417  17.308  21.476  0.00  0.00    +0.000 C 
ATOM     21  C   UNL     1       0.400  16.464  20.213  0.00  0.00    +0.000 C 
ENDBRANCH   1  21
BRANCH   1  22
ATOM     22  C   UNL     1       1.522  14.634  21.480  0.00  0.00    +0.000 C 
BRANCH  22  23
ATOM     23  C   UNL     1       2.964  14.328  21.041  0.00  0.00    +0.000 C 
ATOM     24  O   UNL     1       3.553  13.373  21.547  0.00  0.00    +0.000 OA
ATOM     25  N   UNL     1       3.483  15.151  20.059  0.00  0.00    +0.000 N 
ATOM     26  H   UNL     1       3.034  16.050  19.936  0.00  0.00    +0.000 HD
BRANCH  25  27
ATOM     27  C   UNL     1       4.792  15.012  19.552  0.00  0.00    +0.000 A 
ATOM     28  C   UNL     1       5.921  15.232  20.341  0.00  0.00    +0.000 A 
ATOM     29  C   UNL     1       7.207  15.042  19.814  0.00  0.00    +0.000 A 
ATOM     30  C   UNL     1       7.385  14.669  18.482  0.00  0.00    +0.000 A 
ATOM     31  C   UNL     1       6.249  14.483  17.685  0.00  0.00    +0.000 A 
ATOM     32  C   UNL     1       4.962  14.620  18.225  0.00  0.00    +0.000 A 
BRANCH  30  33
ATOM     33  N   UNL     1       8.648  14.447  17.887  0.00  0.00    +0.000 N 
ATOM     34  C   UNL     1       9.407  13.290  17.944  0.00  0.00    +0.000 C 
ATOM     35  C   UNL     1      10.682  13.375  17.142  0.00  0.00    +0.000 C 
ATOM     36  O   UNL     1       9.144  12.267  18.568  0.00  0.00    +0.000 OA
ATOM     37  H   UNL     1       9.016  15.211  17.336  0.00  0.00    +0.000 HD
ENDBRANCH  30  33
ENDBRANCH  25  27
ENDBRANCH  22  23
ENDBRANCH   1  22
TORSDOF 8
ENDMDL
