MODEL 1
REMARK VINA RESULT:      -7.6      0.000      0.000
REMARK  Name = 
REMARK  6 active torsions:
REMARK  status: ('A' for Active; 'I' for Inactive)
REMARK    1  A    between atoms: C_1  and  C_2
REMARK    2  A    between atoms: C_5  and  C_6
REMARK    3  A    between atoms: C_9  and  C_10
REMARK    4  A    between atoms: C_15  and  S_16
REMARK    5  A    between atoms: S_16  and  N_19
REMARK    6  A    between atoms: N_19  and  C_20
REMARK                            x       y       z     vdW  Elec       q    Type
REMARK                         _______ _______ _______ _____ _____    ______ ____
ROOT
ATOM      1  C   UNL     1       0.747   2.348  19.095  0.00  0.00    +0.000 C 
ATOM      2  C   UNL     1       1.906   3.094  18.500  0.00  0.00    +0.000 A 
ATOM      3  C   UNL     1       2.496   2.562  17.339  0.00  0.00    +0.000 A 
ATOM      4  C   UNL     1       3.615   3.160  16.749  0.00  0.00    +0.000 A 
ATOM      5  C   UNL     1       4.185   4.310  17.302  0.00  0.00    +0.000 A 
ATOM      6  C   UNL     1       3.587   4.863  18.440  0.00  0.00    +0.000 A 
ATOM      7  C   UNL     1       2.453   4.275  19.034  0.00  0.00    +0.000 A 
ENDROOT
BRANCH   5   8
ATOM      8  C   UNL     1       5.395   4.901  16.751  0.00  0.00    +0.000 A 
ATOM      9  C   UNL     1       6.085   4.800  15.565  0.00  0.00    +0.000 A 
ATOM     10  N   UNL     1       7.143   5.672  15.549  0.00  0.00    +0.000 NA
ATOM     11  C   UNL     1       7.075   6.268  16.720  0.00  0.00    +0.000 A 
ATOM     12  O   UNL     1       6.048   5.833  17.515  0.00  0.00    +0.000 OA
BRANCH  11  13
ATOM     13  C   UNL     1       8.048   7.364  17.130  0.00  0.00    +0.000 C 
ATOM     14  C   UNL     1       7.487   8.645  17.717  0.00  0.00    +0.000 C 
ATOM     15  C   UNL     1       8.203   7.682  18.602  0.00  0.00    +0.000 C 
ENDBRANCH  11  13
ENDBRANCH   5   8
BRANCH   7  16
ATOM     16  S   UNL     1       1.841   5.075  20.523  0.00  0.00    +0.000 S 
ATOM     17  O   UNL     1       0.426   5.325  20.372  0.00  0.00    +0.000 OA
ATOM     18  O   UNL     1       2.338   4.327  21.658  0.00  0.00    +0.000 OA
BRANCH  16  19
ATOM     19  N   UNL     1       2.585   6.594  20.502  0.00  0.00    +0.000 N 
ATOM     20  H   UNL     1       3.216   6.722  21.290  0.00  0.00    +0.000 HD
BRANCH  19  21
ATOM     21  C   UNL     1       1.839   7.721  20.065  0.00  0.00    +0.000 A 
ATOM     22  C   UNL     1       1.996   8.175  18.756  0.00  0.00    +0.000 A 
ATOM     23  C   UNL     1       1.330   9.326  18.336  0.00  0.00    +0.000 A 
ATOM     24  C   UNL     1       0.497  10.013  19.219  0.00  0.00    +0.000 A 
ATOM     25  C   UNL     1       0.332   9.553  20.525  0.00  0.00    +0.000 A 
ATOM     26  C   UNL     1       1.015   8.411  20.954  0.00  0.00    +0.000 A 
ENDBRANCH  19  21
ENDBRANCH  16  19
ENDBRANCH   7  16
TORSDOF 5
ENDMDL
MODEL 2
REMARK VINA RESULT:      -7.6      2.478      5.839
REMARK  Name = 
REMARK  6 active torsions:
REMARK  status: ('A' for Active; 'I' for Inactive)
REMARK    1  A    between atoms: C_1  and  C_2
REMARK    2  A    between atoms: C_5  and  C_6
REMARK    3  A    between atoms: C_9  and  C_10
REMARK    4  A    between atoms: C_15  and  S_16
REMARK    5  A    between atoms: S_16  and  N_19
REMARK    6  A    between atoms: N_19  and  C_20
REMARK                            x       y       z     vdW  Elec       q    Type
REMARK                         _______ _______ _______ _____ _____    ______ ____
ROOT
ATOM      1  C   UNL     1       2.145   2.570  21.025  0.00  0.00    +0.000 C 
ATOM      2  C   UNL     1       2.202   3.935  20.401  0.00  0.00    +0.000 A 
ATOM      3  C   UNL     1       1.932   5.041  21.228  0.00  0.00    +0.000 A 
ATOM      4  C   UNL     1       1.909   6.344  20.720  0.00  0.00    +0.000 A 
ATOM      5  C   UNL     1       2.150   6.586  19.365  0.00  0.00    +0.000 A 
ATOM      6  C   UNL     1       2.449   5.495  18.540  0.00  0.00    +0.000 A 
ATOM      7  C   UNL     1       2.487   4.181  19.045  0.00  0.00    +0.000 A 
ENDROOT
BRANCH   5   8
ATOM      8  C   UNL     1       2.051   7.924  18.802  0.00  0.00    +0.000 A 
ATOM      9  C   UNL     1       2.529   8.553  17.675  0.00  0.00    +0.000 A 
ATOM     10  N   UNL     1       2.042   9.832  17.595  0.00  0.00    +0.000 NA
ATOM     11  C   UNL     1       1.295   9.949  18.672  0.00  0.00    +0.000 A 
ATOM     12  O   UNL     1       1.271   8.833  19.466  0.00  0.00    +0.000 OA
BRANCH  11  13
ATOM     13  C   UNL     1       0.511  11.217  18.980  0.00  0.00    +0.000 C 
ATOM     14  C   UNL     1      -0.917  11.323  18.479  0.00  0.00    +0.000 C 
ATOM     15  C   UNL     1      -0.661  11.129  19.935  0.00  0.00    +0.000 C 
ENDBRANCH  11  13
ENDBRANCH   5   8
BRANCH   7  16
ATOM     16  S   UNL     1       2.828   2.887  17.846  0.00  0.00    +0.000 S 
ATOM     17  O   UNL     1       2.469   1.610  18.420  0.00  0.00    +0.000 OA
ATOM     18  O   UNL     1       2.268   3.306  16.578  0.00  0.00    +0.000 OA
BRANCH  16  19
ATOM     19  N   UNL     1       4.515   2.883  17.724  0.00  0.00    +0.000 N 
ATOM     20  H   UNL     1       4.942   2.203  18.349  0.00  0.00    +0.000 HD
BRANCH  19  21
ATOM     21  C   UNL     1       5.195   4.115  17.526  0.00  0.00    +0.000 A 
ATOM     22  C   UNL     1       5.117   4.742  16.284  0.00  0.00    +0.000 A 
ATOM     23  C   UNL     1       5.842   5.911  16.049  0.00  0.00    +0.000 A 
ATOM     24  C   UNL     1       6.630   6.458  17.062  0.00  0.00    +0.000 A 
ATOM     25  C   UNL     1       6.699   5.836  18.308  0.00  0.00    +0.000 A 
ATOM     26  C   UNL     1       5.990   4.654  18.537  0.00  0.00    +0.000 A 
ENDBRANCH  19  21
ENDBRANCH  16  19
ENDBRANCH   7  16
TORSDOF 5
ENDMDL
MODEL 3
REMARK VINA RESULT:      -7.5      2.684      5.845
REMARK  Name = 
REMARK  6 active torsions:
REMARK  status: ('A' for Active; 'I' for Inactive)
REMARK    1  A    between atoms: C_1  and  C_2
REMARK    2  A    between atoms: C_5  and  C_6
REMARK    3  A    between atoms: C_9  and  C_10
REMARK    4  A    between atoms: C_15  and  S_16
REMARK    5  A    between atoms: S_16  and  N_19
REMARK    6  A    between atoms: N_19  and  C_20
REMARK                            x       y       z     vdW  Elec       q    Type
REMARK                         _______ _______ _______ _____ _____    ______ ____
ROOT
ATOM      1  C   UNL     1       2.350   2.527  21.463  0.00  0.00    +0.000 C 
ATOM      2  C   UNL     1       2.419   3.876  20.807  0.00  0.00    +0.000 A 
ATOM      3  C   UNL     1       1.536   4.870  21.266  0.00  0.00    +0.000 A 
ATOM      4  C   UNL     1       1.493   6.137  20.676  0.00  0.00    +0.000 A 
ATOM      5  C   UNL     1       2.330   6.454  19.603  0.00  0.00    +0.000 A 
ATOM      6  C   UNL     1       3.233   5.481  19.158  0.00  0.00    +0.000 A 
ATOM      7  C   UNL     1       3.292   4.206  19.754  0.00  0.00    +0.000 A 
ENDROOT
BRANCH   5   8
ATOM      8  C   UNL     1       2.245   7.738  18.923  0.00  0.00    +0.000 A 
ATOM      9  C   UNL     1       2.702   8.250  17.731  0.00  0.00    +0.000 A 
ATOM     10  N   UNL     1       2.243   9.529  17.550  0.00  0.00    +0.000 NA
ATOM     11  C   UNL     1       1.533   9.763  18.633  0.00  0.00    +0.000 A 
ATOM     12  O   UNL     1       1.507   8.723  19.525  0.00  0.00    +0.000 OA
BRANCH  11  13
ATOM     13  C   UNL     1       0.789  11.072  18.848  0.00  0.00    +0.000 C 
ATOM     14  C   UNL     1       1.253  11.994  19.959  0.00  0.00    +0.000 C 
ATOM     15  C   UNL     1       1.503  12.371  18.538  0.00  0.00    +0.000 C 
ENDBRANCH  11  13
ENDBRANCH   5   8
BRANCH   7  16
ATOM     16  S   UNL     1       4.465   3.053  19.029  0.00  0.00    +0.000 S 
ATOM     17  O   UNL     1       5.063   2.268  20.085  0.00  0.00    +0.000 OA
ATOM     18  O   UNL     1       3.809   2.405  17.913  0.00  0.00    +0.000 OA
BRANCH  16  19
ATOM     19  N   UNL     1       5.697   4.048  18.436  0.00  0.00    +0.000 N 
ATOM     20  H   UNL     1       5.994   4.739  19.122  0.00  0.00    +0.000 HD
BRANCH  19  21
ATOM     21  C   UNL     1       5.667   4.444  17.072  0.00  0.00    +0.000 A 
ATOM     22  C   UNL     1       6.080   3.542  16.093  0.00  0.00    +0.000 A 
ATOM     23  C   UNL     1       6.130   3.941  14.757  0.00  0.00    +0.000 A 
ATOM     24  C   UNL     1       5.753   5.237  14.401  0.00  0.00    +0.000 A 
ATOM     25  C   UNL     1       5.330   6.135  15.380  0.00  0.00    +0.000 A 
ATOM     26  C   UNL     1       5.299   5.742  16.721  0.00  0.00    +0.000 A 
ENDBRANCH  19  21
ENDBRANCH  16  19
ENDBRANCH   7  16
TORSDOF 5
ENDMDL
MODEL 4
REMARK VINA RESULT:      -7.5      2.418      6.087
REMARK  Name = 
REMARK  6 active torsions:
REMARK  status: ('A' for Active; 'I' for Inactive)
REMARK    1  A    between atoms: C_1  and  C_2
REMARK    2  A    between atoms: C_5  and  C_6
REMARK    3  A    between atoms: C_9  and  C_10
REMARK    4  A    between atoms: C_15  and  S_16
REMARK    5  A    between atoms: S_16  and  N_19
REMARK    6  A    between atoms: N_19  and  C_20
REMARK                            x       y       z     vdW  Elec       q    Type
REMARK                         _______ _______ _______ _____ _____    ______ ____
ROOT
ATOM      1  C   UNL     1       2.415   2.744  21.015  0.00  0.00    +0.000 C 
ATOM      2  C   UNL     1       2.416   4.125  20.424  0.00  0.00    +0.000 A 
ATOM      3  C   UNL     1       1.827   5.156  21.177  0.00  0.00    +0.000 A 
ATOM      4  C   UNL     1       1.734   6.460  20.681  0.00  0.00    +0.000 A 
ATOM      5  C   UNL     1       2.224   6.778  19.412  0.00  0.00    +0.000 A 
ATOM      6  C   UNL     1       2.839   5.765  18.666  0.00  0.00    +0.000 A 
ATOM      7  C   UNL     1       2.948   4.451  19.163  0.00  0.00    +0.000 A 
ENDROOT
BRANCH   5   8
ATOM      8  C   UNL     1       2.066   8.109  18.845  0.00  0.00    +0.000 A 
ATOM      9  C   UNL     1       2.531   8.763  17.727  0.00  0.00    +0.000 A 
ATOM     10  N   UNL     1       1.980  10.014  17.637  0.00  0.00    +0.000 NA
ATOM     11  C   UNL     1       1.207  10.092  18.700  0.00  0.00    +0.000 A 
ATOM     12  O   UNL     1       1.226   8.976  19.494  0.00  0.00    +0.000 OA
BRANCH  11  13
ATOM     13  C   UNL     1       0.351  11.316  18.992  0.00  0.00    +0.000 C 
ATOM     14  C   UNL     1      -1.039  11.387  18.389  0.00  0.00    +0.000 C 
ATOM     15  C   UNL     1      -0.883  11.149  19.853  0.00  0.00    +0.000 C 
ENDBRANCH  11  13
ENDBRANCH   5   8
BRANCH   7  16
ATOM     16  S   UNL     1       3.712   3.255  18.060  0.00  0.00    +0.000 S 
ATOM     17  O   UNL     1       3.246   1.932  18.410  0.00  0.00    +0.000 OA
ATOM     18  O   UNL     1       3.568   3.751  16.708  0.00  0.00    +0.000 OA
BRANCH  16  19
ATOM     19  N   UNL     1       5.347   3.298  18.488  0.00  0.00    +0.000 N 
ATOM     20  H   UNL     1       5.513   2.900  19.410  0.00  0.00    +0.000 HD
BRANCH  19  21
ATOM     21  C   UNL     1       6.131   4.420  18.104  0.00  0.00    +0.000 A 
ATOM     22  C   UNL     1       6.578   5.303  19.084  0.00  0.00    +0.000 A 
ATOM     23  C   UNL     1       7.282   6.451  18.717  0.00  0.00    +0.000 A 
ATOM     24  C   UNL     1       7.549   6.704  17.371  0.00  0.00    +0.000 A 
ATOM     25  C   UNL     1       7.110   5.814  16.391  0.00  0.00    +0.000 A 
ATOM     26  C   UNL     1       6.388   4.674  16.757  0.00  0.00    +0.000 A 
ENDBRANCH  19  21
ENDBRANCH  16  19
ENDBRANCH   7  16
TORSDOF 5
ENDMDL
MODEL 5
REMARK VINA RESULT:      -7.3      1.318      2.480
REMARK  Name = 
REMARK  6 active torsions:
REMARK  status: ('A' for Active; 'I' for Inactive)
REMARK    1  A    between atoms: C_1  and  C_2
REMARK    2  A    between atoms: C_5  and  C_6
REMARK    3  A    between atoms: C_9  and  C_10
REMARK    4  A    between atoms: C_15  and  S_16
REMARK    5  A    between atoms: S_16  and  N_19
REMARK    6  A    between atoms: N_19  and  C_20
REMARK                            x       y       z     vdW  Elec       q    Type
REMARK                         _______ _______ _______ _____ _____    ______ ____
ROOT
ATOM      1  C   UNL     1       0.759   2.427  19.407  0.00  0.00    +0.000 C 
ATOM      2  C   UNL     1       1.854   3.107  18.637  0.00  0.00    +0.000 A 
ATOM      3  C   UNL     1       2.335   2.463  17.482  0.00  0.00    +0.000 A 
ATOM      4  C   UNL     1       3.391   2.997  16.735  0.00  0.00    +0.000 A 
ATOM      5  C   UNL     1       4.006   4.191  17.120  0.00  0.00    +0.000 A 
ATOM      6  C   UNL     1       3.515   4.854  18.251  0.00  0.00    +0.000 A 
ATOM      7  C   UNL     1       2.444   4.331  19.002  0.00  0.00    +0.000 A 
ENDROOT
BRANCH   5   8
ATOM      8  C   UNL     1       5.157   4.721  16.404  0.00  0.00    +0.000 A 
ATOM      9  C   UNL     1       6.058   5.740  16.611  0.00  0.00    +0.000 A 
ATOM     10  N   UNL     1       7.019   5.736  15.634  0.00  0.00    +0.000 NA
ATOM     11  C   UNL     1       6.674   4.730  14.859  0.00  0.00    +0.000 A 
ATOM     12  O   UNL     1       5.536   4.078  15.255  0.00  0.00    +0.000 OA
BRANCH  11  13
ATOM     13  C   UNL     1       7.496   4.322  13.645  0.00  0.00    +0.000 C 
ATOM     14  C   UNL     1       6.819   4.299  12.289  0.00  0.00    +0.000 C 
ATOM     15  C   UNL     1       7.809   5.369  12.597  0.00  0.00    +0.000 C 
ENDBRANCH  11  13
ENDBRANCH   5   8
BRANCH   7  16
ATOM     16  S   UNL     1       1.971   5.272  20.459  0.00  0.00    +0.000 S 
ATOM     17  O   UNL     1       0.560   5.577  20.381  0.00  0.00    +0.000 OA
ATOM     18  O   UNL     1       2.513   4.592  21.615  0.00  0.00    +0.000 OA
BRANCH  16  19
ATOM     19  N   UNL     1       2.775   6.747  20.266  0.00  0.00    +0.000 N 
ATOM     20  H   UNL     1       3.456   6.912  21.004  0.00  0.00    +0.000 HD
BRANCH  19  21
ATOM     21  C   UNL     1       2.051   7.868  19.775  0.00  0.00    +0.000 A 
ATOM     22  C   UNL     1       1.195   8.553  20.635  0.00  0.00    +0.000 A 
ATOM     23  C   UNL     1       0.419   9.606  20.149  0.00  0.00    +0.000 A 
ATOM     24  C   UNL     1       0.512   9.981  18.809  0.00  0.00    +0.000 A 
ATOM     25  C   UNL     1       1.377   9.302  17.952  0.00  0.00    +0.000 A 
ATOM     26  C   UNL     1       2.140   8.234  18.433  0.00  0.00    +0.000 A 
ENDBRANCH  19  21
ENDBRANCH  16  19
ENDBRANCH   7  16
TORSDOF 5
ENDMDL
MODEL 6
REMARK VINA RESULT:      -7.3      3.254      5.512
REMARK  Name = 
REMARK  6 active torsions:
REMARK  status: ('A' for Active; 'I' for Inactive)
REMARK    1  A    between atoms: C_1  and  C_2
REMARK    2  A    between atoms: C_5  and  C_6
REMARK    3  A    between atoms: C_9  and  C_10
REMARK    4  A    between atoms: C_15  and  S_16
REMARK    5  A    between atoms: S_16  and  N_19
REMARK    6  A    between atoms: N_19  and  C_20
REMARK                            x       y       z     vdW  Elec       q    Type
REMARK                         _______ _______ _______ _____ _____    ______ ____
ROOT
ATOM      1  C   UNL     1       6.164   4.023  18.557  0.00  0.00    +0.000 C 
ATOM      2  C   UNL     1       6.778   5.385  18.402  0.00  0.00    +0.000 A 
ATOM      3  C   UNL     1       7.864   5.707  19.236  0.00  0.00    +0.000 A 
ATOM      4  C   UNL     1       8.462   6.971  19.199  0.00  0.00    +0.000 A 
ATOM      5  C   UNL     1       7.991   7.959  18.330  0.00  0.00    +0.000 A 
ATOM      6  C   UNL     1       6.929   7.638  17.476  0.00  0.00    +0.000 A 
ATOM      7  C   UNL     1       6.329   6.364  17.497  0.00  0.00    +0.000 A 
ENDROOT
BRANCH   5   8
ATOM      8  C   UNL     1       8.545   9.304  18.333  0.00  0.00    +0.000 A 
ATOM      9  C   UNL     1       8.392  10.432  17.559  0.00  0.00    +0.000 A 
ATOM     10  N   UNL     1       9.112  11.475  18.081  0.00  0.00    +0.000 NA
ATOM     11  C   UNL     1       9.687  10.956  19.145  0.00  0.00    +0.000 A 
ATOM     12  O   UNL     1       9.405   9.631  19.349  0.00  0.00    +0.000 OA
BRANCH  11  13
ATOM     13  C   UNL     1      10.568  11.779  20.073  0.00  0.00    +0.000 C 
ATOM     14  C   UNL     1      12.051  11.872  19.769  0.00  0.00    +0.000 C 
ATOM     15  C   UNL     1      11.179  13.060  19.545  0.00  0.00    +0.000 C 
ENDBRANCH  11  13
ENDBRANCH   5   8
BRANCH   7  16
ATOM     16  S   UNL     1       4.940   6.129  16.380  0.00  0.00    +0.000 S 
ATOM     17  O   UNL     1       5.066   7.054  15.277  0.00  0.00    +0.000 OA
ATOM     18  O   UNL     1       4.808   4.708  16.138  0.00  0.00    +0.000 OA
BRANCH  16  19
ATOM     19  N   UNL     1       3.607   6.657  17.277  0.00  0.00    +0.000 N 
ATOM     20  H   UNL     1       3.698   7.630  17.562  0.00  0.00    +0.000 HD
BRANCH  19  21
ATOM     21  C   UNL     1       2.990   5.758  18.189  0.00  0.00    +0.000 A 
ATOM     22  C   UNL     1       2.117   4.787  17.702  0.00  0.00    +0.000 A 
ATOM     23  C   UNL     1       1.444   3.949  18.590  0.00  0.00    +0.000 A 
ATOM     24  C   UNL     1       1.656   4.073  19.963  0.00  0.00    +0.000 A 
ATOM     25  C   UNL     1       2.537   5.039  20.450  0.00  0.00    +0.000 A 
ATOM     26  C   UNL     1       3.196   5.892  19.562  0.00  0.00    +0.000 A 
ENDBRANCH  19  21
ENDBRANCH  16  19
ENDBRANCH   7  16
TORSDOF 5
ENDMDL
MODEL 7
REMARK VINA RESULT:      -7.3      3.804      6.347
REMARK  Name = 
REMARK  6 active torsions:
REMARK  status: ('A' for Active; 'I' for Inactive)
REMARK    1  A    between atoms: C_1  and  C_2
REMARK    2  A    between atoms: C_5  and  C_6
REMARK    3  A    between atoms: C_9  and  C_10
REMARK    4  A    between atoms: C_15  and  S_16
REMARK    5  A    between atoms: S_16  and  N_19
REMARK    6  A    between atoms: N_19  and  C_20
REMARK                            x       y       z     vdW  Elec       q    Type
REMARK                         _______ _______ _______ _____ _____    ______ ____
ROOT
ATOM      1  C   UNL     1       7.594   6.681  17.786  0.00  0.00    +0.000 C 
ATOM      2  C   UNL     1       7.139   5.816  16.646  0.00  0.00    +0.000 A 
ATOM      3  C   UNL     1       7.773   5.990  15.403  0.00  0.00    +0.000 A 
ATOM      4  C   UNL     1       7.376   5.267  14.273  0.00  0.00    +0.000 A 
ATOM      5  C   UNL     1       6.327   4.348  14.346  0.00  0.00    +0.000 A 
ATOM      6  C   UNL     1       5.708   4.146  15.586  0.00  0.00    +0.000 A 
ATOM      7  C   UNL     1       6.110   4.860  16.732  0.00  0.00    +0.000 A 
ENDROOT
BRANCH   5   8
ATOM      8  C   UNL     1       5.845   3.645  13.166  0.00  0.00    +0.000 A 
ATOM      9  C   UNL     1       6.284   2.586  12.406  0.00  0.00    +0.000 A 
ATOM     10  N   UNL     1       5.369   2.280  11.433  0.00  0.00    +0.000 NA
ATOM     11  C   UNL     1       4.409   3.161  11.619  0.00  0.00    +0.000 A 
ATOM     12  O   UNL     1       4.641   4.040  12.644  0.00  0.00    +0.000 OA
BRANCH  11  13
ATOM     13  C   UNL     1       3.144   3.172  10.773  0.00  0.00    +0.000 C 
ATOM     14  C   UNL     1       2.903   4.351   9.849  0.00  0.00    +0.000 C 
ATOM     15  C   UNL     1       3.275   3.027   9.271  0.00  0.00    +0.000 C 
ENDBRANCH  11  13
ENDBRANCH   5   8
BRANCH   7  16
ATOM     16  S   UNL     1       5.177   4.529  18.232  0.00  0.00    +0.000 S 
ATOM     17  O   UNL     1       6.095   4.133  19.276  0.00  0.00    +0.000 OA
ATOM     18  O   UNL     1       4.266   5.635  18.435  0.00  0.00    +0.000 OA
BRANCH  16  19
ATOM     19  N   UNL     1       4.281   3.145  17.854  0.00  0.00    +0.000 N 
ATOM     20  H   UNL     1       4.272   2.957  16.853  0.00  0.00    +0.000 HD
BRANCH  19  21
ATOM     21  C   UNL     1       3.095   2.870  18.587  0.00  0.00    +0.000 A 
ATOM     22  C   UNL     1       1.878   2.804  17.912  0.00  0.00    +0.000 A 
ATOM     23  C   UNL     1       0.696   2.612  18.627  0.00  0.00    +0.000 A 
ATOM     24  C   UNL     1       0.735   2.472  20.014  0.00  0.00    +0.000 A 
ATOM     25  C   UNL     1       1.955   2.527  20.689  0.00  0.00    +0.000 A 
ATOM     26  C   UNL     1       3.137   2.739  19.975  0.00  0.00    +0.000 A 
ENDBRANCH  19  21
ENDBRANCH  16  19
ENDBRANCH   7  16
TORSDOF 5
ENDMDL
MODEL 8
REMARK VINA RESULT:      -7.3      2.724      5.990
REMARK  Name = 
REMARK  6 active torsions:
REMARK  status: ('A' for Active; 'I' for Inactive)
REMARK    1  A    between atoms: C_1  and  C_2
REMARK    2  A    between atoms: C_5  and  C_6
REMARK    3  A    between atoms: C_9  and  C_10
REMARK    4  A    between atoms: C_15  and  S_16
REMARK    5  A    between atoms: S_16  and  N_19
REMARK    6  A    between atoms: N_19  and  C_20
REMARK                            x       y       z     vdW  Elec       q    Type
REMARK                         _______ _______ _______ _____ _____    ______ ____
ROOT
ATOM      1  C   UNL     1       2.032   2.591  21.054  0.00  0.00    +0.000 C 
ATOM      2  C   UNL     1       2.132   3.957  20.436  0.00  0.00    +0.000 A 
ATOM      3  C   UNL     1       1.726   5.055  21.215  0.00  0.00    +0.000 A 
ATOM      4  C   UNL     1       1.733   6.356  20.702  0.00  0.00    +0.000 A 
ATOM      5  C   UNL     1       2.142   6.604  19.389  0.00  0.00    +0.000 A 
ATOM      6  C   UNL     1       2.576   5.521  18.615  0.00  0.00    +0.000 A 
ATOM      7  C   UNL     1       2.584   4.209  19.128  0.00  0.00    +0.000 A 
ENDROOT
BRANCH   5   8
ATOM      8  C   UNL     1       2.080   7.938  18.810  0.00  0.00    +0.000 A 
ATOM      9  C   UNL     1       2.540   8.530  17.656  0.00  0.00    +0.000 A 
ATOM     10  N   UNL     1       2.108   9.828  17.578  0.00  0.00    +0.000 NA
ATOM     11  C   UNL     1       1.411   9.993  18.682  0.00  0.00    +0.000 A 
ATOM     12  O   UNL     1       1.369   8.890  19.492  0.00  0.00    +0.000 OA
BRANCH  11  13
ATOM     13  C   UNL     1       0.697  11.298  19.002  0.00  0.00    +0.000 C 
ATOM     14  C   UNL     1       1.204  12.133  20.163  0.00  0.00    +0.000 C 
ATOM     15  C   UNL     1       1.429  12.602  18.765  0.00  0.00    +0.000 C 
ENDBRANCH  11  13
ENDBRANCH   5   8
BRANCH   7  16
ATOM     16  S   UNL     1       3.114   2.923  17.989  0.00  0.00    +0.000 S 
ATOM     17  O   UNL     1       3.013   1.642  18.650  0.00  0.00    +0.000 OA
ATOM     18  O   UNL     1       2.446   3.154  16.726  0.00  0.00    +0.000 OA
BRANCH  16  19
ATOM     19  N   UNL     1       4.769   3.213  17.793  0.00  0.00    +0.000 N 
ATOM     20  H   UNL     1       5.234   3.391  18.681  0.00  0.00    +0.000 HD
BRANCH  19  21
ATOM     21  C   UNL     1       5.211   3.947  16.659  0.00  0.00    +0.000 A 
ATOM     22  C   UNL     1       5.076   5.334  16.652  0.00  0.00    +0.000 A 
ATOM     23  C   UNL     1       5.432   6.061  15.517  0.00  0.00    +0.000 A 
ATOM     24  C   UNL     1       5.936   5.402  14.396  0.00  0.00    +0.000 A 
ATOM     25  C   UNL     1       6.081   4.015  14.407  0.00  0.00    +0.000 A 
ATOM     26  C   UNL     1       5.706   3.284  15.537  0.00  0.00    +0.000 A 
ENDBRANCH  19  21
ENDBRANCH  16  19
ENDBRANCH   7  16
TORSDOF 5
ENDMDL
MODEL 9
REMARK VINA RESULT:      -7.3      2.398      6.118
REMARK  Name = 
REMARK  6 active torsions:
REMARK  status: ('A' for Active; 'I' for Inactive)
REMARK    1  A    between atoms: C_1  and  C_2
REMARK    2  A    between atoms: C_5  and  C_6
REMARK    3  A    between atoms: C_9  and  C_10
REMARK    4  A    between atoms: C_15  and  S_16
REMARK    5  A    between atoms: S_16  and  N_19
REMARK    6  A    between atoms: N_19  and  C_20
REMARK                            x       y       z     vdW  Elec       q    Type
REMARK                         _______ _______ _______ _____ _____    ______ ____
ROOT
ATOM      1  C   UNL     1       6.881   5.097  15.569  0.00  0.00    +0.000 C 
ATOM      2  C   UNL     1       5.780   5.812  16.300  0.00  0.00    +0.000 A 
ATOM      3  C   UNL     1       4.939   6.652  15.550  0.00  0.00    +0.000 A 
ATOM      4  C   UNL     1       3.923   7.398  16.157  0.00  0.00    +0.000 A 
ATOM      5  C   UNL     1       3.717   7.333  17.538  0.00  0.00    +0.000 A 
ATOM      6  C   UNL     1       4.531   6.477  18.289  0.00  0.00    +0.000 A 
ATOM      7  C   UNL     1       5.548   5.712  17.684  0.00  0.00    +0.000 A 
ENDROOT
BRANCH   5   8
ATOM      8  C   UNL     1       2.721   8.162  18.199  0.00  0.00    +0.000 A 
ATOM      9  C   UNL     1       2.002   9.287  17.867  0.00  0.00    +0.000 A 
ATOM     10  N   UNL     1       1.113   9.601  18.862  0.00  0.00    +0.000 NA
ATOM     11  C   UNL     1       1.321   8.672  19.771  0.00  0.00    +0.000 A 
ATOM     12  O   UNL     1       2.302   7.773  19.445  0.00  0.00    +0.000 OA
BRANCH  11  13
ATOM     13  C   UNL     1       0.512   8.602  21.058  0.00  0.00    +0.000 C 
ATOM     14  C   UNL     1       1.116   9.182  22.323  0.00  0.00    +0.000 C 
ATOM     15  C   UNL     1      -0.013   9.891  21.655  0.00  0.00    +0.000 C 
ENDBRANCH  11  13
ENDBRANCH   5   8
BRANCH   7  16
ATOM     16  S   UNL     1       6.542   4.707  18.795  0.00  0.00    +0.000 S 
ATOM     17  O   UNL     1       7.774   4.354  18.129  0.00  0.00    +0.000 OA
ATOM     18  O   UNL     1       6.565   5.369  20.082  0.00  0.00    +0.000 OA
BRANCH  16  19
ATOM     19  N   UNL     1       5.662   3.270  18.935  0.00  0.00    +0.000 N 
ATOM     20  H   UNL     1       6.157   2.477  18.532  0.00  0.00    +0.000 HD
BRANCH  19  21
ATOM     21  C   UNL     1       4.249   3.308  18.788  0.00  0.00    +0.000 A 
ATOM     22  C   UNL     1       3.458   3.614  19.894  0.00  0.00    +0.000 A 
ATOM     23  C   UNL     1       2.068   3.579  19.785  0.00  0.00    +0.000 A 
ATOM     24  C   UNL     1       1.472   3.254  18.566  0.00  0.00    +0.000 A 
ATOM     25  C   UNL     1       2.264   2.959  17.457  0.00  0.00    +0.000 A 
ATOM     26  C   UNL     1       3.657   2.974  17.571  0.00  0.00    +0.000 A 
ENDBRANCH  19  21
ENDBRANCH  16  19
ENDBRANCH   7  16
TORSDOF 5
ENDMDL
