MODEL 1
REMARK VINA RESULT:      -6.1      0.000      0.000
REMARK  Name = 
REMARK  8 active torsions:
REMARK  status: ('A' for Active; 'I' for Inactive)
REMARK    1  A    between atoms: C_1  and  C_2
REMARK    2  A    between atoms: C_5  and  C_6
REMARK    3  A    between atoms: C_6  and  N_7
REMARK    4  A    between atoms: N_7  and  C_8
REMARK    5  A    between atoms: N_7  and  C_12
REMARK    6  A    between atoms: C_8  and  C_9
REMARK    7  A    between atoms: C_12  and  C_13
REMARK    8  A    between atoms: C_12  and  C_14
REMARK                            x       y       z     vdW  Elec       q    Type
REMARK                         _______ _______ _______ _____ _____    ______ ____
ROOT
ATOM      1  N   UNL     1       3.215   4.203  19.267  0.00  0.00    +0.000 NA
ENDROOT
BRANCH   1   2
ATOM      2  C   UNL     1       1.993   4.489  20.070  0.00  0.00    +0.000 C 
ATOM      3  C   UNL     1       1.903   3.640  21.350  0.00  0.00    +0.000 C 
ATOM      4  C   UNL     1       1.913   5.962  20.512  0.00  0.00    +0.000 C 
ENDBRANCH   1   2
BRANCH   1   5
ATOM      5  C   UNL     1       4.267   5.240  19.438  0.00  0.00    +0.000 C 
BRANCH   5  10
ATOM      6  C   UNL     1       6.842   4.599  15.353  0.00  0.00    +0.000 C 
ATOM      7  C   UNL     1       6.649   4.722  16.808  0.00  0.00    +0.000 A 
ATOM      8  C   UNL     1       7.487   4.699  17.895  0.00  0.00    +0.000 A 
ATOM      9  N   UNL     1       6.764   4.874  19.048  0.00  0.00    +0.000 NA
ATOM     10  C   UNL     1       5.519   5.008  18.634  0.00  0.00    +0.000 A 
ATOM     11  O   UNL     1       5.373   4.913  17.267  0.00  0.00    +0.000 OA
ENDBRANCH   5  10
ENDBRANCH   1   5
BRANCH   1  12
ATOM     12  C   UNL     1       3.753   2.836  19.492  0.00  0.00    +0.000 C 
BRANCH  12  13
ATOM     13  C   UNL     1       3.393   1.837  18.383  0.00  0.00    +0.000 C 
ATOM     14  N   UNL     1       4.131   0.686  18.364  0.00  0.00    +0.000 N 
ATOM     15  O   UNL     1       2.507   2.012  17.554  0.00  0.00    +0.000 OA
ATOM     16  H   UNL     1       4.644   0.386  19.185  0.00  0.00    +0.000 HD
ATOM     17  H   UNL     1       3.840  -0.022  17.703  0.00  0.00    +0.000 HD
ENDBRANCH  12  13
ENDBRANCH   1  12
TORSDOF 5
ENDMDL
MODEL 2
REMARK VINA RESULT:      -5.9      2.297      3.823
REMARK  Name = 
REMARK  8 active torsions:
REMARK  status: ('A' for Active; 'I' for Inactive)
REMARK    1  A    between atoms: C_1  and  C_2
REMARK    2  A    between atoms: C_5  and  C_6
REMARK    3  A    between atoms: C_6  and  N_7
REMARK    4  A    between atoms: N_7  and  C_8
REMARK    5  A    between atoms: N_7  and  C_12
REMARK    6  A    between atoms: C_8  and  C_9
REMARK    7  A    between atoms: C_12  and  C_13
REMARK    8  A    between atoms: C_12  and  C_14
REMARK                            x       y       z     vdW  Elec       q    Type
REMARK                         _______ _______ _______ _____ _____    ______ ____
ROOT
ATOM      1  N   UNL     1       4.961   4.481  17.827  0.00  0.00    +0.000 NA
ENDROOT
BRANCH   1   2
ATOM      2  C   UNL     1       3.818   3.721  18.406  0.00  0.00    +0.000 C 
ATOM      3  C   UNL     1       3.191   4.417  19.627  0.00  0.00    +0.000 C 
ATOM      4  C   UNL     1       2.682   3.507  17.388  0.00  0.00    +0.000 C 
ENDBRANCH   1   2
BRANCH   1   5
ATOM      5  C   UNL     1       4.613   5.149  16.545  0.00  0.00    +0.000 C 
BRANCH   5  10
ATOM      6  C   UNL     1       6.173   3.330  12.304  0.00  0.00    +0.000 C 
ATOM      7  C   UNL     1       6.284   4.116  13.544  0.00  0.00    +0.000 A 
ATOM      8  C   UNL     1       7.257   4.912  14.096  0.00  0.00    +0.000 A 
ATOM      9  N   UNL     1       6.823   5.421  15.293  0.00  0.00    +0.000 NA
ATOM     10  C   UNL     1       5.605   4.935  15.431  0.00  0.00    +0.000 A 
ATOM     11  O   UNL     1       5.212   4.113  14.397  0.00  0.00    +0.000 OA
ENDBRANCH   5  10
ENDBRANCH   1   5
BRANCH   1  12
ATOM     12  C   UNL     1       5.575   5.433  18.790  0.00  0.00    +0.000 C 
BRANCH  12  13
ATOM     13  C   UNL     1       7.038   5.115  19.130  0.00  0.00    +0.000 C 
ATOM     14  N   UNL     1       7.735   4.443  18.165  0.00  0.00    +0.000 N 
ATOM     15  O   UNL     1       7.589   5.429  20.179  0.00  0.00    +0.000 OA
ATOM     16  H   UNL     1       7.413   4.436  17.204  0.00  0.00    +0.000 HD
ATOM     17  H   UNL     1       8.723   4.314  18.334  0.00  0.00    +0.000 HD
ENDBRANCH  12  13
ENDBRANCH   1  12
TORSDOF 5
ENDMDL
MODEL 3
REMARK VINA RESULT:      -5.9      2.574      4.398
REMARK  Name = 
REMARK  8 active torsions:
REMARK  status: ('A' for Active; 'I' for Inactive)
REMARK    1  A    between atoms: C_1  and  C_2
REMARK    2  A    between atoms: C_5  and  C_6
REMARK    3  A    between atoms: C_6  and  N_7
REMARK    4  A    between atoms: N_7  and  C_8
REMARK    5  A    between atoms: N_7  and  C_12
REMARK    6  A    between atoms: C_8  and  C_9
REMARK    7  A    between atoms: C_12  and  C_13
REMARK    8  A    between atoms: C_12  and  C_14
REMARK                            x       y       z     vdW  Elec       q    Type
REMARK                         _______ _______ _______ _____ _____    ______ ____
ROOT
ATOM      1  N   UNL     1       6.134   5.765  17.190  0.00  0.00    +0.000 NA
ENDROOT
BRANCH   1   2
ATOM      2  C   UNL     1       6.906   6.542  18.199  0.00  0.00    +0.000 C 
ATOM      3  C   UNL     1       7.950   5.690  18.943  0.00  0.00    +0.000 C 
ATOM      4  C   UNL     1       7.668   7.724  17.571  0.00  0.00    +0.000 C 
ENDBRANCH   1   2
BRANCH   1   5
ATOM      5  C   UNL     1       6.916   4.638  16.615  0.00  0.00    +0.000 C 
BRANCH   5  10
ATOM      6  C   UNL     1       5.742   3.081  12.151  0.00  0.00    +0.000 C 
ATOM      7  C   UNL     1       6.456   3.915  13.133  0.00  0.00    +0.000 A 
ATOM      8  C   UNL     1       7.371   4.934  13.045  0.00  0.00    +0.000 A 
ATOM      9  N   UNL     1       7.708   5.372  14.301  0.00  0.00    +0.000 NA
ATOM     10  C   UNL     1       6.987   4.621  15.111  0.00  0.00    +0.000 A 
ATOM     11  O   UNL     1       6.202   3.694  14.460  0.00  0.00    +0.000 OA
ENDBRANCH   5  10
ENDBRANCH   1   5
BRANCH   1  12
ATOM     12  C   UNL     1       4.810   5.311  17.691  0.00  0.00    +0.000 C 
BRANCH  12  13
ATOM     13  C   UNL     1       4.825   3.900  18.295  0.00  0.00    +0.000 C 
ATOM     14  N   UNL     1       4.281   2.918  17.513  0.00  0.00    +0.000 N 
ATOM     15  O   UNL     1       5.290   3.621  19.394  0.00  0.00    +0.000 OA
ATOM     16  H   UNL     1       4.168   3.055  16.515  0.00  0.00    +0.000 HD
ATOM     17  H   UNL     1       4.373   1.972  17.854  0.00  0.00    +0.000 HD
ENDBRANCH  12  13
ENDBRANCH   1  12
TORSDOF 5
ENDMDL
MODEL 4
REMARK VINA RESULT:      -5.8      2.006      5.206
REMARK  Name = 
REMARK  8 active torsions:
REMARK  status: ('A' for Active; 'I' for Inactive)
REMARK    1  A    between atoms: C_1  and  C_2
REMARK    2  A    between atoms: C_5  and  C_6
REMARK    3  A    between atoms: C_6  and  N_7
REMARK    4  A    between atoms: N_7  and  C_8
REMARK    5  A    between atoms: N_7  and  C_12
REMARK    6  A    between atoms: C_8  and  C_9
REMARK    7  A    between atoms: C_12  and  C_13
REMARK    8  A    between atoms: C_12  and  C_14
REMARK                            x       y       z     vdW  Elec       q    Type
REMARK                         _______ _______ _______ _____ _____    ______ ____
ROOT
ATOM      1  N   UNL     1       5.639   5.373  18.054  0.00  0.00    +0.000 NA
ENDROOT
BRANCH   1   2
ATOM      2  C   UNL     1       5.194   6.532  17.230  0.00  0.00    +0.000 C 
ATOM      3  C   UNL     1       5.191   6.230  15.720  0.00  0.00    +0.000 C 
ATOM      4  C   UNL     1       3.770   6.994  17.590  0.00  0.00    +0.000 C 
ENDBRANCH   1   2
BRANCH   1   5
ATOM      5  C   UNL     1       4.879   4.132  17.752  0.00  0.00    +0.000 C 
BRANCH   5  10
ATOM      6  C   UNL     1       1.197   3.183  20.797  0.00  0.00    +0.000 C 
ATOM      7  C   UNL     1       2.575   3.077  20.290  0.00  0.00    +0.000 A 
ATOM      8  C   UNL     1       3.692   2.378  20.677  0.00  0.00    +0.000 A 
ATOM      9  N   UNL     1       4.732   2.647  19.825  0.00  0.00    +0.000 NA
ATOM     10  C   UNL     1       4.223   3.486  18.945  0.00  0.00    +0.000 A 
ATOM     11  O   UNL     1       2.903   3.805  19.177  0.00  0.00    +0.000 OA
ENDBRANCH   5  10
ENDBRANCH   1   5
BRANCH   1  12
ATOM     12  C   UNL     1       7.107   5.144  17.993  0.00  0.00    +0.000 C 
BRANCH  12  13
ATOM     13  C   UNL     1       7.914   6.032  18.950  0.00  0.00    +0.000 C 
ATOM     14  N   UNL     1       8.222   5.469  20.158  0.00  0.00    +0.000 N 
ATOM     15  O   UNL     1       8.286   7.171  18.692  0.00  0.00    +0.000 OA
ATOM     16  H   UNL     1       8.194   4.463  20.282  0.00  0.00    +0.000 HD
ATOM     17  H   UNL     1       8.836   6.003  20.757  0.00  0.00    +0.000 HD
ENDBRANCH  12  13
ENDBRANCH   1  12
TORSDOF 5
ENDMDL
MODEL 5
REMARK VINA RESULT:      -5.8      1.067      1.087
REMARK  Name = 
REMARK  8 active torsions:
REMARK  status: ('A' for Active; 'I' for Inactive)
REMARK    1  A    between atoms: C_1  and  C_2
REMARK    2  A    between atoms: C_5  and  C_6
REMARK    3  A    between atoms: C_6  and  N_7
REMARK    4  A    between atoms: N_7  and  C_8
REMARK    5  A    between atoms: N_7  and  C_12
REMARK    6  A    between atoms: C_8  and  C_9
REMARK    7  A    between atoms: C_12  and  C_13
REMARK    8  A    between atoms: C_12  and  C_14
REMARK                            x       y       z     vdW  Elec       q    Type
REMARK                         _______ _______ _______ _____ _____    ______ ____
ROOT
ATOM      1  N   UNL     1       3.372   4.363  19.086  0.00  0.00    +0.000 NA
ENDROOT
BRANCH   1   2
ATOM      2  C   UNL     1       2.171   5.205  19.345  0.00  0.00    +0.000 C 
ATOM      3  C   UNL     1       1.414   4.795  20.621  0.00  0.00    +0.000 C 
ATOM      4  C   UNL     1       2.524   6.696  19.501  0.00  0.00    +0.000 C 
ENDBRANCH   1   2
BRANCH   1   5
ATOM      5  C   UNL     1       4.643   5.069  19.393  0.00  0.00    +0.000 C 
BRANCH   5  10
ATOM      6  C   UNL     1       6.533   4.237  14.981  0.00  0.00    +0.000 C 
ATOM      7  C   UNL     1       6.579   4.458  16.436  0.00  0.00    +0.000 A 
ATOM      8  C   UNL     1       7.586   4.547  17.366  0.00  0.00    +0.000 A 
ATOM      9  N   UNL     1       7.056   4.776  18.610  0.00  0.00    +0.000 NA
ATOM     10  C   UNL     1       5.755   4.830  18.405  0.00  0.00    +0.000 A 
ATOM     11  O   UNL     1       5.389   4.630  17.092  0.00  0.00    +0.000 OA
ENDBRANCH   5  10
ENDBRANCH   1   5
BRANCH   1  12
ATOM     12  C   UNL     1       3.309   3.036  19.754  0.00  0.00    +0.000 C 
BRANCH  12  13
ATOM     13  C   UNL     1       2.953   1.881  18.808  0.00  0.00    +0.000 C 
ATOM     14  N   UNL     1       1.618   1.701  18.572  0.00  0.00    +0.000 N 
ATOM     15  O   UNL     1       3.775   1.148  18.269  0.00  0.00    +0.000 OA
ATOM     16  H   UNL     1       0.956   2.448  18.751  0.00  0.00    +0.000 HD
ATOM     17  H   UNL     1       1.375   1.010  17.876  0.00  0.00    +0.000 HD
ENDBRANCH  12  13
ENDBRANCH   1  12
TORSDOF 5
ENDMDL
MODEL 6
REMARK VINA RESULT:      -5.8      1.822      2.071
REMARK  Name = 
REMARK  8 active torsions:
REMARK  status: ('A' for Active; 'I' for Inactive)
REMARK    1  A    between atoms: C_1  and  C_2
REMARK    2  A    between atoms: C_5  and  C_6
REMARK    3  A    between atoms: C_6  and  N_7
REMARK    4  A    between atoms: N_7  and  C_8
REMARK    5  A    between atoms: N_7  and  C_12
REMARK    6  A    between atoms: C_8  and  C_9
REMARK    7  A    between atoms: C_12  and  C_13
REMARK    8  A    between atoms: C_12  and  C_14
REMARK                            x       y       z     vdW  Elec       q    Type
REMARK                         _______ _______ _______ _____ _____    ______ ____
ROOT
ATOM      1  N   UNL     1       2.672   3.909  18.520  0.00  0.00    +0.000 NA
ENDROOT
BRANCH   1   2
ATOM      2  C   UNL     1       1.291   3.880  19.080  0.00  0.00    +0.000 C 
ATOM      3  C   UNL     1       0.596   2.519  18.895  0.00  0.00    +0.000 C 
ATOM      4  C   UNL     1       1.266   4.187  20.589  0.00  0.00    +0.000 C 
ENDBRANCH   1   2
BRANCH   1   5
ATOM      5  C   UNL     1       2.986   5.192  17.839  0.00  0.00    +0.000 C 
BRANCH   5  10
ATOM      6  C   UNL     1       7.455   7.109  17.536  0.00  0.00    +0.000 C 
ATOM      7  C   UNL     1       6.377   6.167  17.191  0.00  0.00    +0.000 A 
ATOM      8  C   UNL     1       6.270   5.096  16.339  0.00  0.00    +0.000 A 
ATOM      9  N   UNL     1       5.011   4.557  16.419  0.00  0.00    +0.000 NA
ATOM     10  C   UNL     1       4.395   5.302  17.315  0.00  0.00    +0.000 A 
ATOM     11  O   UNL     1       5.172   6.319  17.824  0.00  0.00    +0.000 OA
ENDBRANCH   5  10
ENDBRANCH   1   5
BRANCH   1  12
ATOM     12  C   UNL     1       3.713   3.550  19.518  0.00  0.00    +0.000 C 
BRANCH  12  13
ATOM     13  C   UNL     1       4.195   2.096  19.417  0.00  0.00    +0.000 C 
ATOM     14  N   UNL     1       5.172   1.735  20.304  0.00  0.00    +0.000 N 
ATOM     15  O   UNL     1       3.758   1.275  18.619  0.00  0.00    +0.000 OA
ATOM     16  H   UNL     1       5.334   2.278  21.145  0.00  0.00    +0.000 HD
ATOM     17  H   UNL     1       5.428   0.758  20.315  0.00  0.00    +0.000 HD
ENDBRANCH  12  13
ENDBRANCH   1  12
TORSDOF 5
ENDMDL
MODEL 7
REMARK VINA RESULT:      -5.8      1.417      1.523
REMARK  Name = 
REMARK  8 active torsions:
REMARK  status: ('A' for Active; 'I' for Inactive)
REMARK    1  A    between atoms: C_1  and  C_2
REMARK    2  A    between atoms: C_5  and  C_6
REMARK    3  A    between atoms: C_6  and  N_7
REMARK    4  A    between atoms: N_7  and  C_8
REMARK    5  A    between atoms: N_7  and  C_12
REMARK    6  A    between atoms: C_8  and  C_9
REMARK    7  A    between atoms: C_12  and  C_13
REMARK    8  A    between atoms: C_12  and  C_14
REMARK                            x       y       z     vdW  Elec       q    Type
REMARK                         _______ _______ _______ _____ _____    ______ ____
ROOT
ATOM      1  N   UNL     1       3.150   3.883  18.781  0.00  0.00    +0.000 NA
ENDROOT
BRANCH   1   2
ATOM      2  C   UNL     1       1.835   4.426  19.223  0.00  0.00    +0.000 C 
ATOM      3  C   UNL     1       0.808   3.326  19.546  0.00  0.00    +0.000 C 
ATOM      4  C   UNL     1       1.957   5.300  20.486  0.00  0.00    +0.000 C 
ENDBRANCH   1   2
BRANCH   1   5
ATOM      5  C   UNL     1       4.298   4.669  19.304  0.00  0.00    +0.000 C 
BRANCH   5  10
ATOM      6  C   UNL     1       6.755   4.544  15.099  0.00  0.00    +0.000 C 
ATOM      7  C   UNL     1       6.611   4.574  16.564  0.00  0.00    +0.000 A 
ATOM      8  C   UNL     1       7.491   4.602  17.617  0.00  0.00    +0.000 A 
ATOM      9  N   UNL     1       6.802   4.632  18.803  0.00  0.00    +0.000 NA
ATOM     10  C   UNL     1       5.534   4.632  18.443  0.00  0.00    +0.000 A 
ATOM     11  O   UNL     1       5.342   4.584  17.079  0.00  0.00    +0.000 OA
ENDBRANCH   5  10
ENDBRANCH   1   5
BRANCH   1  12
ATOM     12  C   UNL     1       3.306   2.432  19.066  0.00  0.00    +0.000 C 
BRANCH  12  13
ATOM     13  C   UNL     1       3.974   2.133  20.415  0.00  0.00    +0.000 C 
ATOM     14  N   UNL     1       5.221   1.574  20.345  0.00  0.00    +0.000 N 
ATOM     15  O   UNL     1       3.469   2.368  21.506  0.00  0.00    +0.000 OA
ATOM     16  H   UNL     1       5.772   1.643  19.497  0.00  0.00    +0.000 HD
ATOM     17  H   UNL     1       5.712   1.463  21.221  0.00  0.00    +0.000 HD
ENDBRANCH  12  13
ENDBRANCH   1  12
TORSDOF 5
ENDMDL
MODEL 8
REMARK VINA RESULT:      -5.8      2.070      5.512
REMARK  Name = 
REMARK  8 active torsions:
REMARK  status: ('A' for Active; 'I' for Inactive)
REMARK    1  A    between atoms: C_1  and  C_2
REMARK    2  A    between atoms: C_5  and  C_6
REMARK    3  A    between atoms: C_6  and  N_7
REMARK    4  A    between atoms: N_7  and  C_8
REMARK    5  A    between atoms: N_7  and  C_12
REMARK    6  A    between atoms: C_8  and  C_9
REMARK    7  A    between atoms: C_12  and  C_13
REMARK    8  A    between atoms: C_12  and  C_14
REMARK                            x       y       z     vdW  Elec       q    Type
REMARK                         _______ _______ _______ _____ _____    ______ ____
ROOT
ATOM      1  N   UNL     1       5.828   5.013  17.851  0.00  0.00    +0.000 NA
ENDROOT
BRANCH   1   2
ATOM      2  C   UNL     1       5.253   4.911  16.481  0.00  0.00    +0.000 C 
ATOM      3  C   UNL     1       5.215   6.261  15.743  0.00  0.00    +0.000 C 
ATOM      4  C   UNL     1       6.045   3.941  15.585  0.00  0.00    +0.000 C 
ENDBRANCH   1   2
BRANCH   1   5
ATOM      5  C   UNL     1       5.274   3.995  18.782  0.00  0.00    +0.000 C 
BRANCH   5  10
ATOM      6  C   UNL     1       0.947   3.097  20.832  0.00  0.00    +0.000 C 
ATOM      7  C   UNL     1       2.033   3.948  20.319  0.00  0.00    +0.000 A 
ATOM      8  C   UNL     1       2.245   5.303  20.252  0.00  0.00    +0.000 A 
ATOM      9  N   UNL     1       3.460   5.560  19.670  0.00  0.00    +0.000 NA
ATOM     10  C   UNL     1       3.955   4.365  19.411  0.00  0.00    +0.000 A 
ATOM     11  O   UNL     1       3.125   3.327  19.773  0.00  0.00    +0.000 OA
ENDBRANCH   5  10
ENDBRANCH   1   5
BRANCH   1  12
ATOM     12  C   UNL     1       7.315   5.010  17.861  0.00  0.00    +0.000 C 
BRANCH  12  13
ATOM     13  C   UNL     1       7.931   6.004  18.856  0.00  0.00    +0.000 C 
ATOM     14  N   UNL     1       8.204   5.502  20.098  0.00  0.00    +0.000 N 
ATOM     15  O   UNL     1       8.187   7.175  18.598  0.00  0.00    +0.000 OA
ATOM     16  H   UNL     1       8.285   4.502  20.246  0.00  0.00    +0.000 HD
ATOM     17  H   UNL     1       8.700   6.115  20.730  0.00  0.00    +0.000 HD
ENDBRANCH  12  13
ENDBRANCH   1  12
TORSDOF 5
ENDMDL
MODEL 9
REMARK VINA RESULT:      -5.7      2.137      5.287
REMARK  Name = 
REMARK  8 active torsions:
REMARK  status: ('A' for Active; 'I' for Inactive)
REMARK    1  A    between atoms: C_1  and  C_2
REMARK    2  A    between atoms: C_5  and  C_6
REMARK    3  A    between atoms: C_6  and  N_7
REMARK    4  A    between atoms: N_7  and  C_8
REMARK    5  A    between atoms: N_7  and  C_12
REMARK    6  A    between atoms: C_8  and  C_9
REMARK    7  A    between atoms: C_12  and  C_13
REMARK    8  A    between atoms: C_12  and  C_14
REMARK                            x       y       z     vdW  Elec       q    Type
REMARK                         _______ _______ _______ _____ _____    ______ ____
ROOT
ATOM      1  N   UNL     1       4.976   4.789  17.862  0.00  0.00    +0.000 NA
ENDROOT
BRANCH   1   2
ATOM      2  C   UNL     1       4.223   5.794  17.060  0.00  0.00    +0.000 C 
ATOM      3  C   UNL     1       3.597   6.904  17.924  0.00  0.00    +0.000 C 
ATOM      4  C   UNL     1       5.111   6.495  16.015  0.00  0.00    +0.000 C 
ENDBRANCH   1   2
BRANCH   1   5
ATOM      5  C   UNL     1       4.497   3.400  17.636  0.00  0.00    +0.000 C 
BRANCH   5  10
ATOM      6  C   UNL     1       1.338   2.806  21.296  0.00  0.00    +0.000 C 
ATOM      7  C   UNL     1       1.765   2.825  19.887  0.00  0.00    +0.000 A 
ATOM      8  C   UNL     1       1.135   2.603  18.687  0.00  0.00    +0.000 A 
ATOM      9  N   UNL     1       2.024   2.764  17.655  0.00  0.00    +0.000 NA
ATOM     10  C   UNL     1       3.156   3.087  18.248  0.00  0.00    +0.000 A 
ATOM     11  O   UNL     1       3.073   3.131  19.622  0.00  0.00    +0.000 OA
ENDBRANCH   5  10
ENDBRANCH   1   5
BRANCH   1  12
ATOM     12  C   UNL     1       6.450   4.893  17.690  0.00  0.00    +0.000 C 
BRANCH  12  13
ATOM     13  C   UNL     1       7.158   5.632  18.834  0.00  0.00    +0.000 C 
ATOM     14  N   UNL     1       7.893   6.725  18.465  0.00  0.00    +0.000 N 
ATOM     15  O   UNL     1       7.091   5.308  20.014  0.00  0.00    +0.000 OA
ATOM     16  H   UNL     1       7.729   7.182  17.575  0.00  0.00    +0.000 HD
ATOM     17  H   UNL     1       8.282   7.277  19.216  0.00  0.00    +0.000 HD
ENDBRANCH  12  13
ENDBRANCH   1  12
TORSDOF 5
ENDMDL
