MODEL 1
REMARK VINA RESULT:      -7.1      0.000      0.000
REMARK  Name = 
REMARK  12 active torsions:
REMARK  status: ('A' for Active; 'I' for Inactive)
REMARK    1  A    between atoms: C_1  and  O_2
REMARK    2  A    between atoms: O_2  and  C_3
REMARK    3  A    between atoms: C_6  and  C_7
REMARK    4  A    between atoms: C_9  and  N_10
REMARK    5  A    between atoms: C_11  and  C_13
REMARK    6  A    between atoms: C_13  and  C_14
REMARK    7  A    between atoms: C_14  and  C_15
REMARK    8  A    between atoms: C_14  and  C_16
REMARK    9  A    between atoms: C_14  and  N_17
REMARK   10  A    between atoms: N_17  and  C_18
REMARK   11  A    between atoms: C_18  and  C_19
REMARK   12  A    between atoms: C_26  and  C_27
REMARK                            x       y       z     vdW  Elec       q    Type
REMARK                         _______ _______ _______ _____ _____    ______ ____
ROOT
ATOM      1  C   UNL     1       1.009   4.197  20.340  0.00  0.00    +0.000 C 
ENDROOT
BRANCH   1   3
ATOM      2  N   UNL     1       1.963   6.016  19.010  0.00  0.00    +0.000 N 
ATOM      3  C   UNL     1       1.478   5.635  20.246  0.00  0.00    +0.000 C 
ATOM      4  O   UNL     1       1.402   6.409  21.198  0.00  0.00    +0.000 OA
ATOM      5  H   UNL     1       2.028   5.345  18.255  0.00  0.00    +0.000 HD
BRANCH   2   8
ATOM      6  C   UNL     1       1.845   8.250  17.810  0.00  0.00    +0.000 C 
ATOM      7  C   UNL     1       3.246   7.748  17.593  0.00  0.00    +0.000 C 
ATOM      8  C   UNL     1       2.502   7.333  18.824  0.00  0.00    +0.000 C 
BRANCH   6  12
ATOM      9  C   UNL     1       1.062  12.324  19.079  0.00  0.00    +0.000 A 
ATOM     10  C   UNL     1       0.135  11.313  19.323  0.00  0.00    +0.000 A 
ATOM     11  C   UNL     1       0.373  10.007  18.881  0.00  0.00    +0.000 A 
ATOM     12  C   UNL     1       1.533   9.681  18.169  0.00  0.00    +0.000 A 
ATOM     13  C   UNL     1       2.438  10.724  17.903  0.00  0.00    +0.000 A 
ATOM     14  C   UNL     1       2.209  12.031  18.347  0.00  0.00    +0.000 A 
BRANCH   9  16
ATOM     15  C   UNL     1       1.283  14.667  18.879  0.00  0.00    +0.000 C 
ATOM     16  O   UNL     1       0.733  13.554  19.578  0.00  0.00    +0.000 OA
ENDBRANCH   9  16
ENDBRANCH   6  12
ENDBRANCH   2   8
ENDBRANCH   1   3
BRANCH   1  17
ATOM     17  C   UNL     1       2.201   3.200  20.444  0.00  0.00    +0.000 C 
ATOM     18  C   UNL     1       2.359   2.729  21.903  0.00  0.00    +0.000 C 
ATOM     19  C   UNL     1       1.871   1.942  19.602  0.00  0.00    +0.000 C 
BRANCH  17  20
ATOM     20  N   UNL     1       3.490   3.739  19.932  0.00  0.00    +0.000 NA
ATOM     21  H   UNL     1       4.145   3.732  20.731  0.00  0.00    +0.000 HD
BRANCH  20  22
ATOM     22  C   UNL     1       4.114   2.927  18.870  0.00  0.00    +0.000 C 
BRANCH  22  23
ATOM     23  C   UNL     1       4.031   3.599  17.491  0.00  0.00    +0.000 C 
ATOM     24  O   UNL     1       2.957   3.623  16.884  0.00  0.00    +0.000 OA
ATOM     25  N   UNL     1       5.140   4.251  16.998  0.00  0.00    +0.000 N 
ATOM     26  C   UNL     1       5.069   5.053  15.792  0.00  0.00    +0.000 C 
ATOM     27  C   UNL     1       6.409   4.825  15.129  0.00  0.00    +0.000 C 
ATOM     28  F   UNL     1       6.771   5.891  14.379  0.00  0.00    +0.000 F 
ATOM     29  C   UNL     1       7.378   4.657  16.293  0.00  0.00    +0.000 C 
ATOM     30  C   UNL     1       6.526   4.130  17.459  0.00  0.00    +0.000 C 
BRANCH  30  31
ATOM     31  C   UNL     1       6.784   4.911  18.689  0.00  0.00    +0.000 C 
ATOM     32  N   UNL     1       6.967   5.517  19.665  0.00  0.00    +0.000 NA
ENDBRANCH  30  31
ENDBRANCH  22  23
ENDBRANCH  20  22
ENDBRANCH  17  20
ENDBRANCH   1  17
TORSDOF 9
ENDMDL
MODEL 2
REMARK VINA RESULT:      -7.1      5.607      7.340
REMARK  Name = 
REMARK  12 active torsions:
REMARK  status: ('A' for Active; 'I' for Inactive)
REMARK    1  A    between atoms: C_1  and  O_2
REMARK    2  A    between atoms: O_2  and  C_3
REMARK    3  A    between atoms: C_6  and  C_7
REMARK    4  A    between atoms: C_9  and  N_10
REMARK    5  A    between atoms: C_11  and  C_13
REMARK    6  A    between atoms: C_13  and  C_14
REMARK    7  A    between atoms: C_14  and  C_15
REMARK    8  A    between atoms: C_14  and  C_16
REMARK    9  A    between atoms: C_14  and  N_17
REMARK   10  A    between atoms: N_17  and  C_18
REMARK   11  A    between atoms: C_18  and  C_19
REMARK   12  A    between atoms: C_26  and  C_27
REMARK                            x       y       z     vdW  Elec       q    Type
REMARK                         _______ _______ _______ _____ _____    ______ ____
ROOT
ATOM      1  C   UNL     1       7.408   6.730  16.959  0.00  0.00    +0.000 C 
ENDROOT
BRANCH   1   3
ATOM      2  N   UNL     1       8.548   8.760  17.714  0.00  0.00    +0.000 N 
ATOM      3  C   UNL     1       7.332   8.128  17.540  0.00  0.00    +0.000 C 
ATOM      4  O   UNL     1       6.259   8.664  17.808  0.00  0.00    +0.000 OA
ATOM      5  H   UNL     1       9.412   8.278  17.500  0.00  0.00    +0.000 HD
BRANCH   2   8
ATOM      6  C   UNL     1       9.941  10.768  18.399  0.00  0.00    +0.000 C 
ATOM      7  C   UNL     1       9.246  10.312  19.652  0.00  0.00    +0.000 C 
ATOM      8  C   UNL     1       8.603  10.057  18.325  0.00  0.00    +0.000 C 
BRANCH   6  12
ATOM      9  C   UNL     1      10.415  14.983  17.484  0.00  0.00    +0.000 A 
ATOM     10  C   UNL     1       9.356  14.541  18.276  0.00  0.00    +0.000 A 
ATOM     11  C   UNL     1       9.184  13.178  18.539  0.00  0.00    +0.000 A 
ATOM     12  C   UNL     1      10.053  12.220  18.006  0.00  0.00    +0.000 A 
ATOM     13  C   UNL     1      11.094  12.684  17.182  0.00  0.00    +0.000 A 
ATOM     14  C   UNL     1      11.275  14.047  16.918  0.00  0.00    +0.000 A 
BRANCH   9  16
ATOM     15  C   UNL     1      11.238  17.037  18.308  0.00  0.00    +0.000 C 
ATOM     16  O   UNL     1      10.496  16.337  17.314  0.00  0.00    +0.000 OA
ENDBRANCH   9  16
ENDBRANCH   6  12
ENDBRANCH   2   8
ENDBRANCH   1   3
BRANCH   1  17
ATOM     17  C   UNL     1       7.095   5.638  18.023  0.00  0.00    +0.000 C 
ATOM     18  C   UNL     1       7.436   4.246  17.455  0.00  0.00    +0.000 C 
ATOM     19  C   UNL     1       8.018   5.857  19.248  0.00  0.00    +0.000 C 
BRANCH  17  20
ATOM     20  N   UNL     1       5.694   5.662  18.525  0.00  0.00    +0.000 NA
ATOM     21  H   UNL     1       5.260   6.512  18.131  0.00  0.00    +0.000 HD
BRANCH  20  22
ATOM     22  C   UNL     1       4.866   4.524  18.084  0.00  0.00    +0.000 C 
BRANCH  22  23
ATOM     23  C   UNL     1       4.486   3.590  19.243  0.00  0.00    +0.000 C 
ATOM     24  O   UNL     1       5.304   2.768  19.664  0.00  0.00    +0.000 OA
ATOM     25  N   UNL     1       3.265   3.754  19.860  0.00  0.00    +0.000 N 
ATOM     26  C   UNL     1       2.926   3.028  21.068  0.00  0.00    +0.000 C 
ATOM     27  C   UNL     1       1.448   2.746  20.916  0.00  0.00    +0.000 C 
ATOM     28  F   UNL     1       0.842   2.647  22.121  0.00  0.00    +0.000 F 
ATOM     29  C   UNL     1       0.912   3.957  20.164  0.00  0.00    +0.000 C 
ATOM     30  C   UNL     1       2.105   4.500  19.361  0.00  0.00    +0.000 C 
BRANCH  30  31
ATOM     31  C   UNL     1       2.245   5.960  19.554  0.00  0.00    +0.000 C 
ATOM     32  N   UNL     1       2.359   7.104  19.728  0.00  0.00    +0.000 NA
ENDBRANCH  30  31
ENDBRANCH  22  23
ENDBRANCH  20  22
ENDBRANCH  17  20
ENDBRANCH   1  17
TORSDOF 9
ENDMDL
MODEL 3
REMARK VINA RESULT:      -7.0      4.820      6.635
REMARK  Name = 
REMARK  12 active torsions:
REMARK  status: ('A' for Active; 'I' for Inactive)
REMARK    1  A    between atoms: C_1  and  O_2
REMARK    2  A    between atoms: O_2  and  C_3
REMARK    3  A    between atoms: C_6  and  C_7
REMARK    4  A    between atoms: C_9  and  N_10
REMARK    5  A    between atoms: C_11  and  C_13
REMARK    6  A    between atoms: C_13  and  C_14
REMARK    7  A    between atoms: C_14  and  C_15
REMARK    8  A    between atoms: C_14  and  C_16
REMARK    9  A    between atoms: C_14  and  N_17
REMARK   10  A    between atoms: N_17  and  C_18
REMARK   11  A    between atoms: C_18  and  C_19
REMARK   12  A    between atoms: C_26  and  C_27
REMARK                            x       y       z     vdW  Elec       q    Type
REMARK                         _______ _______ _______ _____ _____    ______ ____
ROOT
ATOM      1  C   UNL     1       7.322   6.240  16.803  0.00  0.00    +0.000 C 
ENDROOT
BRANCH   1   3
ATOM      2  N   UNL     1       7.597   8.601  17.386  0.00  0.00    +0.000 N 
ATOM      3  C   UNL     1       7.727   7.294  17.814  0.00  0.00    +0.000 C 
ATOM      4  O   UNL     1       8.115   6.999  18.943  0.00  0.00    +0.000 OA
ATOM      5  H   UNL     1       7.293   8.803  16.442  0.00  0.00    +0.000 HD
BRANCH   2   8
ATOM      6  C   UNL     1       9.074  10.639  17.713  0.00  0.00    +0.000 C 
ATOM      7  C   UNL     1       9.369   9.735  18.877  0.00  0.00    +0.000 C 
ATOM      8  C   UNL     1       8.020   9.679  18.232  0.00  0.00    +0.000 C 
BRANCH   6  12
ATOM      9  C   UNL     1       8.388  14.875  18.351  0.00  0.00    +0.000 A 
ATOM     10  C   UNL     1       7.493  14.115  17.601  0.00  0.00    +0.000 A 
ATOM     11  C   UNL     1       7.736  12.758  17.365  0.00  0.00    +0.000 A 
ATOM     12  C   UNL     1       8.884  12.128  17.857  0.00  0.00    +0.000 A 
ATOM     13  C   UNL     1       9.792  12.922  18.582  0.00  0.00    +0.000 A 
ATOM     14  C   UNL     1       9.553  14.280  18.825  0.00  0.00    +0.000 A 
BRANCH   9  16
ATOM     15  C   UNL     1       9.081  17.133  18.342  0.00  0.00    +0.000 C 
ATOM     16  O   UNL     1       8.037  16.184  18.534  0.00  0.00    +0.000 OA
ENDBRANCH   9  16
ENDBRANCH   6  12
ENDBRANCH   2   8
ENDBRANCH   1   3
BRANCH   1  17
ATOM     17  C   UNL     1       5.940   5.608  17.141  0.00  0.00    +0.000 C 
ATOM     18  C   UNL     1       5.169   5.319  15.838  0.00  0.00    +0.000 C 
ATOM     19  C   UNL     1       6.174   4.241  17.832  0.00  0.00    +0.000 C 
BRANCH  17  20
ATOM     20  N   UNL     1       5.107   6.425  18.065  0.00  0.00    +0.000 NA
ATOM     21  H   UNL     1       5.356   7.411  17.884  0.00  0.00    +0.000 HD
BRANCH  20  22
ATOM     22  C   UNL     1       3.654   6.310  17.842  0.00  0.00    +0.000 C 
BRANCH  22  23
ATOM     23  C   UNL     1       2.868   6.163  19.154  0.00  0.00    +0.000 C 
ATOM     24  O   UNL     1       2.453   7.168  19.738  0.00  0.00    +0.000 OA
ATOM     25  N   UNL     1       2.554   4.899  19.606  0.00  0.00    +0.000 N 
ATOM     26  C   UNL     1       1.665   4.701  20.735  0.00  0.00    +0.000 C 
ATOM     27  C   UNL     1       2.241   3.493  21.438  0.00  0.00    +0.000 C 
ATOM     28  F   UNL     1       1.280   2.806  22.096  0.00  0.00    +0.000 F 
ATOM     29  C   UNL     1       2.809   2.639  20.311  0.00  0.00    +0.000 C 
ATOM     30  C   UNL     1       3.145   3.627  19.182  0.00  0.00    +0.000 C 
BRANCH  30  31
ATOM     31  C   UNL     1       2.598   3.151  17.892  0.00  0.00    +0.000 C 
ATOM     32  N   UNL     1       2.147   2.780  16.886  0.00  0.00    +0.000 NA
ENDBRANCH  30  31
ENDBRANCH  22  23
ENDBRANCH  20  22
ENDBRANCH  17  20
ENDBRANCH   1  17
TORSDOF 9
ENDMDL
MODEL 4
REMARK VINA RESULT:      -6.9      4.504      6.332
REMARK  Name = 
REMARK  12 active torsions:
REMARK  status: ('A' for Active; 'I' for Inactive)
REMARK    1  A    between atoms: C_1  and  O_2
REMARK    2  A    between atoms: O_2  and  C_3
REMARK    3  A    between atoms: C_6  and  C_7
REMARK    4  A    between atoms: C_9  and  N_10
REMARK    5  A    between atoms: C_11  and  C_13
REMARK    6  A    between atoms: C_13  and  C_14
REMARK    7  A    between atoms: C_14  and  C_15
REMARK    8  A    between atoms: C_14  and  C_16
REMARK    9  A    between atoms: C_14  and  N_17
REMARK   10  A    between atoms: N_17  and  C_18
REMARK   11  A    between atoms: C_18  and  C_19
REMARK   12  A    between atoms: C_26  and  C_27
REMARK                            x       y       z     vdW  Elec       q    Type
REMARK                         _______ _______ _______ _____ _____    ______ ____
ROOT
ATOM      1  C   UNL     1       7.252   5.925  16.463  0.00  0.00    +0.000 C 
ENDROOT
BRANCH   1   3
ATOM      2  N   UNL     1       7.700   8.222  17.175  0.00  0.00    +0.000 N 
ATOM      3  C   UNL     1       7.404   6.936  17.581  0.00  0.00    +0.000 C 
ATOM      4  O   UNL     1       7.246   6.630  18.762  0.00  0.00    +0.000 OA
ATOM      5  H   UNL     1       7.842   8.431  16.195  0.00  0.00    +0.000 HD
BRANCH   2   8
ATOM      6  C   UNL     1       9.020  10.275  17.874  0.00  0.00    +0.000 C 
ATOM      7  C   UNL     1       9.168   9.295  19.005  0.00  0.00    +0.000 C 
ATOM      8  C   UNL     1       7.939   9.247  18.151  0.00  0.00    +0.000 C 
BRANCH   6  12
ATOM      9  C   UNL     1       8.022  14.427  18.641  0.00  0.00    +0.000 A 
ATOM     10  C   UNL     1       7.504  13.765  17.530  0.00  0.00    +0.000 A 
ATOM     11  C   UNL     1       7.857  12.437  17.264  0.00  0.00    +0.000 A 
ATOM     12  C   UNL     1       8.747  11.742  18.090  0.00  0.00    +0.000 A 
ATOM     13  C   UNL     1       9.284  12.441  19.187  0.00  0.00    +0.000 A 
ATOM     14  C   UNL     1       8.932  13.767  19.461  0.00  0.00    +0.000 A 
BRANCH   9  16
ATOM     15  C   UNL     1       8.332  16.708  18.114  0.00  0.00    +0.000 C 
ATOM     16  O   UNL     1       7.590  15.713  18.812  0.00  0.00    +0.000 OA
ENDBRANCH   9  16
ENDBRANCH   6  12
ENDBRANCH   2   8
ENDBRANCH   1   3
BRANCH   1  17
ATOM     17  C   UNL     1       5.775   5.459  16.295  0.00  0.00    +0.000 C 
ATOM     18  C   UNL     1       4.892   6.662  15.910  0.00  0.00    +0.000 C 
ATOM     19  C   UNL     1       5.701   4.456  15.116  0.00  0.00    +0.000 C 
BRANCH  17  20
ATOM     20  N   UNL     1       5.216   4.767  17.488  0.00  0.00    +0.000 NA
ATOM     21  H   UNL     1       4.416   5.338  17.806  0.00  0.00    +0.000 HD
BRANCH  20  22
ATOM     22  C   UNL     1       4.690   3.416  17.222  0.00  0.00    +0.000 C 
BRANCH  22  23
ATOM     23  C   UNL     1       3.195   3.291  17.556  0.00  0.00    +0.000 C 
ATOM     24  O   UNL     1       2.360   3.301  16.648  0.00  0.00    +0.000 OA
ATOM     25  N   UNL     1       2.820   3.071  18.864  0.00  0.00    +0.000 N 
ATOM     26  C   UNL     1       1.446   2.766  19.213  0.00  0.00    +0.000 C 
ATOM     27  C   UNL     1       1.253   3.453  20.545  0.00  0.00    +0.000 C 
ATOM     28  F   UNL     1       0.322   2.817  21.293  0.00  0.00    +0.000 F 
ATOM     29  C   UNL     1       2.616   3.353  21.219  0.00  0.00    +0.000 C 
ATOM     30  C   UNL     1       3.632   3.257  20.070  0.00  0.00    +0.000 C 
BRANCH  30  31
ATOM     31  C   UNL     1       4.574   2.140  20.296  0.00  0.00    +0.000 C 
ATOM     32  N   UNL     1       5.315   1.256  20.452  0.00  0.00    +0.000 NA
ENDBRANCH  30  31
ENDBRANCH  22  23
ENDBRANCH  20  22
ENDBRANCH  17  20
ENDBRANCH   1  17
TORSDOF 9
ENDMDL
MODEL 5
REMARK VINA RESULT:      -6.9      5.175      7.009
REMARK  Name = 
REMARK  12 active torsions:
REMARK  status: ('A' for Active; 'I' for Inactive)
REMARK    1  A    between atoms: C_1  and  O_2
REMARK    2  A    between atoms: O_2  and  C_3
REMARK    3  A    between atoms: C_6  and  C_7
REMARK    4  A    between atoms: C_9  and  N_10
REMARK    5  A    between atoms: C_11  and  C_13
REMARK    6  A    between atoms: C_13  and  C_14
REMARK    7  A    between atoms: C_14  and  C_15
REMARK    8  A    between atoms: C_14  and  C_16
REMARK    9  A    between atoms: C_14  and  N_17
REMARK   10  A    between atoms: N_17  and  C_18
REMARK   11  A    between atoms: C_18  and  C_19
REMARK   12  A    between atoms: C_26  and  C_27
REMARK                            x       y       z     vdW  Elec       q    Type
REMARK                         _______ _______ _______ _____ _____    ______ ____
ROOT
ATOM      1  C   UNL     1       7.263   6.213  16.648  0.00  0.00    +0.000 C 
ENDROOT
BRANCH   1   3
ATOM      2  N   UNL     1       7.712   8.545  17.240  0.00  0.00    +0.000 N 
ATOM      3  C   UNL     1       7.620   7.245  17.698  0.00  0.00    +0.000 C 
ATOM      4  O   UNL     1       7.786   6.943  18.879  0.00  0.00    +0.000 OA
ATOM      5  H   UNL     1       7.588   8.752  16.257  0.00  0.00    +0.000 HD
BRANCH   2   8
ATOM      6  C   UNL     1       9.472  10.242  17.922  0.00  0.00    +0.000 C 
ATOM      7  C   UNL     1       9.193   9.430  19.157  0.00  0.00    +0.000 C 
ATOM      8  C   UNL     1       8.115   9.595  18.131  0.00  0.00    +0.000 C 
BRANCH   6  12
ATOM      9  C   UNL     1       9.810  14.563  17.717  0.00  0.00    +0.000 A 
ATOM     10  C   UNL     1      10.924  13.751  17.508  0.00  0.00    +0.000 A 
ATOM     11  C   UNL     1      10.820  12.360  17.611  0.00  0.00    +0.000 A 
ATOM     12  C   UNL     1       9.608  11.744  17.942  0.00  0.00    +0.000 A 
ATOM     13  C   UNL     1       8.505  12.583  18.183  0.00  0.00    +0.000 A 
ATOM     14  C   UNL     1       8.601  13.976  18.077  0.00  0.00    +0.000 A 
BRANCH   9  16
ATOM     15  C   UNL     1       8.963  16.749  17.999  0.00  0.00    +0.000 C 
ATOM     16  O   UNL     1      10.026  15.905  17.568  0.00  0.00    +0.000 OA
ENDBRANCH   9  16
ENDBRANCH   6  12
ENDBRANCH   2   8
ENDBRANCH   1   3
BRANCH   1  17
ATOM     17  C   UNL     1       5.813   5.675  16.827  0.00  0.00    +0.000 C 
ATOM     18  C   UNL     1       4.823   6.855  16.878  0.00  0.00    +0.000 C 
ATOM     19  C   UNL     1       5.438   4.832  15.582  0.00  0.00    +0.000 C 
BRANCH  17  20
ATOM     20  N   UNL     1       5.633   4.797  18.016  0.00  0.00    +0.000 NA
ATOM     21  H   UNL     1       5.284   5.405  18.775  0.00  0.00    +0.000 HD
BRANCH  20  22
ATOM     22  C   UNL     1       4.633   3.727  17.840  0.00  0.00    +0.000 C 
BRANCH  22  23
ATOM     23  C   UNL     1       4.307   3.007  19.158  0.00  0.00    +0.000 C 
ATOM     24  O   UNL     1       5.118   2.211  19.640  0.00  0.00    +0.000 OA
ATOM     25  N   UNL     1       3.151   3.337  19.831  0.00  0.00    +0.000 N 
ATOM     26  C   UNL     1       2.881   2.826  21.161  0.00  0.00    +0.000 C 
ATOM     27  C   UNL     1       1.384   2.613  21.167  0.00  0.00    +0.000 C 
ATOM     28  F   UNL     1       0.877   2.737  22.415  0.00  0.00    +0.000 F 
ATOM     29  C   UNL     1       0.844   3.725  20.276  0.00  0.00    +0.000 C 
ATOM     30  C   UNL     1       1.991   4.065  19.310  0.00  0.00    +0.000 C 
BRANCH  30  31
ATOM     31  C   UNL     1       2.215   5.526  19.260  0.00  0.00    +0.000 C 
ATOM     32  N   UNL     1       2.402   6.673  19.199  0.00  0.00    +0.000 NA
ENDBRANCH  30  31
ENDBRANCH  22  23
ENDBRANCH  20  22
ENDBRANCH  17  20
ENDBRANCH   1  17
TORSDOF 9
ENDMDL
MODEL 6
REMARK VINA RESULT:      -6.9      2.773      4.870
REMARK  Name = 
REMARK  12 active torsions:
REMARK  status: ('A' for Active; 'I' for Inactive)
REMARK    1  A    between atoms: C_1  and  O_2
REMARK    2  A    between atoms: O_2  and  C_3
REMARK    3  A    between atoms: C_6  and  C_7
REMARK    4  A    between atoms: C_9  and  N_10
REMARK    5  A    between atoms: C_11  and  C_13
REMARK    6  A    between atoms: C_13  and  C_14
REMARK    7  A    between atoms: C_14  and  C_15
REMARK    8  A    between atoms: C_14  and  C_16
REMARK    9  A    between atoms: C_14  and  N_17
REMARK   10  A    between atoms: N_17  and  C_18
REMARK   11  A    between atoms: C_18  and  C_19
REMARK   12  A    between atoms: C_26  and  C_27
REMARK                            x       y       z     vdW  Elec       q    Type
REMARK                         _______ _______ _______ _____ _____    ______ ____
ROOT
ATOM      1  C   UNL     1       5.323   6.790  17.257  0.00  0.00    +0.000 C 
ENDROOT
BRANCH   1   3
ATOM      2  N   UNL     1       3.501   6.690  18.888  0.00  0.00    +0.000 N 
ATOM      3  C   UNL     1       3.916   7.179  17.665  0.00  0.00    +0.000 C 
ATOM      4  O   UNL     1       3.212   7.903  16.964  0.00  0.00    +0.000 OA
ATOM      5  H   UNL     1       4.103   6.080  19.428  0.00  0.00    +0.000 HD
BRANCH   2   8
ATOM      6  C   UNL     1       1.964   7.662  20.658  0.00  0.00    +0.000 C 
ATOM      7  C   UNL     1       1.552   6.224  20.511  0.00  0.00    +0.000 C 
ATOM      8  C   UNL     1       2.162   6.933  19.343  0.00  0.00    +0.000 C 
BRANCH   6  12
ATOM      9  C   UNL     1      -0.691  11.073  21.029  0.00  0.00    +0.000 A 
ATOM     10  C   UNL     1      -0.489  10.209  22.104  0.00  0.00    +0.000 A 
ATOM     11  C   UNL     1       0.339   9.089  21.971  0.00  0.00    +0.000 A 
ATOM     12  C   UNL     1       0.972   8.793  20.758  0.00  0.00    +0.000 A 
ATOM     13  C   UNL     1       0.726   9.659  19.677  0.00  0.00    +0.000 A 
ATOM     14  C   UNL     1      -0.097  10.784  19.805  0.00  0.00    +0.000 A 
BRANCH   9  16
ATOM     15  C   UNL     1      -1.710  13.030  20.186  0.00  0.00    +0.000 C 
ATOM     16  O   UNL     1      -1.501  12.146  21.283  0.00  0.00    +0.000 OA
ENDBRANCH   9  16
ENDBRANCH   6  12
ENDBRANCH   2   8
ENDBRANCH   1   3
BRANCH   1  17
ATOM     17  C   UNL     1       5.351   5.450  16.464  0.00  0.00    +0.000 C 
ATOM     18  C   UNL     1       5.304   5.741  14.952  0.00  0.00    +0.000 C 
ATOM     19  C   UNL     1       6.700   4.738  16.739  0.00  0.00    +0.000 C 
BRANCH  17  20
ATOM     20  N   UNL     1       4.273   4.497  16.842  0.00  0.00    +0.000 NA
ATOM     21  H   UNL     1       3.830   4.195  15.959  0.00  0.00    +0.000 HD
BRANCH  20  22
ATOM     22  C   UNL     1       4.746   3.272  17.514  0.00  0.00    +0.000 C 
BRANCH  22  23
ATOM     23  C   UNL     1       4.514   3.309  19.033  0.00  0.00    +0.000 C 
ATOM     24  O   UNL     1       5.448   3.584  19.791  0.00  0.00    +0.000 OA
ATOM     25  N   UNL     1       3.237   3.128  19.518  0.00  0.00    +0.000 N 
ATOM     26  C   UNL     1       2.927   3.330  20.920  0.00  0.00    +0.000 C 
ATOM     27  C   UNL     1       1.884   2.275  21.213  0.00  0.00    +0.000 C 
ATOM     28  F   UNL     1       1.059   2.667  22.210  0.00  0.00    +0.000 F 
ATOM     29  C   UNL     1       1.102   2.150  19.912  0.00  0.00    +0.000 C 
ATOM     30  C   UNL     1       2.081   2.576  18.806  0.00  0.00    +0.000 C 
BRANCH  30  31
ATOM     31  C   UNL     1       1.450   3.561  17.900  0.00  0.00    +0.000 C 
ATOM     32  N   UNL     1       0.961   4.353  17.202  0.00  0.00    +0.000 NA
ENDBRANCH  30  31
ENDBRANCH  22  23
ENDBRANCH  20  22
ENDBRANCH  17  20
ENDBRANCH   1  17
TORSDOF 9
ENDMDL
MODEL 7
REMARK VINA RESULT:      -6.8      4.564      6.362
REMARK  Name = 
REMARK  12 active torsions:
REMARK  status: ('A' for Active; 'I' for Inactive)
REMARK    1  A    between atoms: C_1  and  O_2
REMARK    2  A    between atoms: O_2  and  C_3
REMARK    3  A    between atoms: C_6  and  C_7
REMARK    4  A    between atoms: C_9  and  N_10
REMARK    5  A    between atoms: C_11  and  C_13
REMARK    6  A    between atoms: C_13  and  C_14
REMARK    7  A    between atoms: C_14  and  C_15
REMARK    8  A    between atoms: C_14  and  C_16
REMARK    9  A    between atoms: C_14  and  N_17
REMARK   10  A    between atoms: N_17  and  C_18
REMARK   11  A    between atoms: C_18  and  C_19
REMARK   12  A    between atoms: C_26  and  C_27
REMARK                            x       y       z     vdW  Elec       q    Type
REMARK                         _______ _______ _______ _____ _____    ______ ____
ROOT
ATOM      1  C   UNL     1       7.582   5.964  16.551  0.00  0.00    +0.000 C 
ENDROOT
BRANCH   1   3
ATOM      2  N   UNL     1       7.785   8.320  17.179  0.00  0.00    +0.000 N 
ATOM      3  C   UNL     1       7.701   7.018  17.633  0.00  0.00    +0.000 C 
ATOM      4  O   UNL     1       7.693   6.729  18.828  0.00  0.00    +0.000 OA
ATOM      5  H   UNL     1       7.808   8.517  16.186  0.00  0.00    +0.000 HD
BRANCH   2   8
ATOM      6  C   UNL     1       9.050  10.426  17.820  0.00  0.00    +0.000 C 
ATOM      7  C   UNL     1       9.171   9.505  19.002  0.00  0.00    +0.000 C 
ATOM      8  C   UNL     1       7.975   9.395  18.110  0.00  0.00    +0.000 C 
BRANCH   6  12
ATOM      9  C   UNL     1       8.005  14.598  18.392  0.00  0.00    +0.000 A 
ATOM     10  C   UNL     1       7.319  13.813  17.467  0.00  0.00    +0.000 A 
ATOM     11  C   UNL     1       7.682  12.478  17.258  0.00  0.00    +0.000 A 
ATOM     12  C   UNL     1       8.748  11.897  17.953  0.00  0.00    +0.000 A 
ATOM     13  C   UNL     1       9.450  12.717  18.856  0.00  0.00    +0.000 A 
ATOM     14  C   UNL     1       9.089  14.052  19.073  0.00  0.00    +0.000 A 
BRANCH   9  16
ATOM     15  C   UNL     1       8.522  16.838  18.931  0.00  0.00    +0.000 C 
ATOM     16  O   UNL     1       7.549  15.880  18.528  0.00  0.00    +0.000 OA
ENDBRANCH   9  16
ENDBRANCH   6  12
ENDBRANCH   2   8
ENDBRANCH   1   3
BRANCH   1  17
ATOM     17  C   UNL     1       6.165   5.317  16.520  0.00  0.00    +0.000 C 
ATOM     18  C   UNL     1       5.100   6.385  16.835  0.00  0.00    +0.000 C 
ATOM     19  C   UNL     1       5.880   4.814  15.082  0.00  0.00    +0.000 C 
BRANCH  17  20
ATOM     20  N   UNL     1       6.011   4.148  17.427  0.00  0.00    +0.000 NA
ATOM     21  H   UNL     1       6.957   3.757  17.560  0.00  0.00    +0.000 HD
BRANCH  20  22
ATOM     22  C   UNL     1       5.501   4.480  18.771  0.00  0.00    +0.000 C 
BRANCH  22  23
ATOM     23  C   UNL     1       4.562   3.398  19.327  0.00  0.00    +0.000 C 
ATOM     24  O   UNL     1       5.025   2.462  19.984  0.00  0.00    +0.000 OA
ATOM     25  N   UNL     1       3.202   3.546  19.164  0.00  0.00    +0.000 N 
ATOM     26  C   UNL     1       2.262   2.657  19.819  0.00  0.00    +0.000 C 
ATOM     27  C   UNL     1       1.144   2.511  18.813  0.00  0.00    +0.000 C 
ATOM     28  F   UNL     1      -0.035   2.259  19.425  0.00  0.00    +0.000 F 
ATOM     29  C   UNL     1       1.088   3.864  18.116  0.00  0.00    +0.000 C 
ATOM     30  C   UNL     1       2.506   4.444  18.238  0.00  0.00    +0.000 C 
BRANCH  30  31
ATOM     31  C   UNL     1       2.460   5.839  18.729  0.00  0.00    +0.000 C 
ATOM     32  N   UNL     1       2.404   6.939  19.104  0.00  0.00    +0.000 NA
ENDBRANCH  30  31
ENDBRANCH  22  23
ENDBRANCH  20  22
ENDBRANCH  17  20
ENDBRANCH   1  17
TORSDOF 9
ENDMDL
MODEL 8
REMARK VINA RESULT:      -6.7      1.571      2.149
REMARK  Name = 
REMARK  12 active torsions:
REMARK  status: ('A' for Active; 'I' for Inactive)
REMARK    1  A    between atoms: C_1  and  O_2
REMARK    2  A    between atoms: O_2  and  C_3
REMARK    3  A    between atoms: C_6  and  C_7
REMARK    4  A    between atoms: C_9  and  N_10
REMARK    5  A    between atoms: C_11  and  C_13
REMARK    6  A    between atoms: C_13  and  C_14
REMARK    7  A    between atoms: C_14  and  C_15
REMARK    8  A    between atoms: C_14  and  C_16
REMARK    9  A    between atoms: C_14  and  N_17
REMARK   10  A    between atoms: N_17  and  C_18
REMARK   11  A    between atoms: C_18  and  C_19
REMARK   12  A    between atoms: C_26  and  C_27
REMARK                            x       y       z     vdW  Elec       q    Type
REMARK                         _______ _______ _______ _____ _____    ______ ____
ROOT
ATOM      1  C   UNL     1       1.681   4.368  20.228  0.00  0.00    +0.000 C 
ENDROOT
BRANCH   1   3
ATOM      2  N   UNL     1       1.611   6.683  19.438  0.00  0.00    +0.000 N 
ATOM      3  C   UNL     1       2.404   5.667  19.935  0.00  0.00    +0.000 C 
ATOM      4  O   UNL     1       3.606   5.807  20.155  0.00  0.00    +0.000 OA
ATOM      5  H   UNL     1       0.629   6.523  19.253  0.00  0.00    +0.000 HD
BRANCH   2   8
ATOM      6  C   UNL     1       1.511   8.767  17.993  0.00  0.00    +0.000 C 
ATOM      7  C   UNL     1       2.860   8.158  17.731  0.00  0.00    +0.000 C 
ATOM      8  C   UNL     1       2.201   7.934  19.056  0.00  0.00    +0.000 C 
BRANCH   6  12
ATOM      9  C   UNL     1       0.997  12.990  18.844  0.00  0.00    +0.000 A 
ATOM     10  C   UNL     1      -0.053  12.094  19.032  0.00  0.00    +0.000 A 
ATOM     11  C   UNL     1       0.103  10.739  18.722  0.00  0.00    +0.000 A 
ATOM     12  C   UNL     1       1.305  10.246  18.201  0.00  0.00    +0.000 A 
ATOM     13  C   UNL     1       2.340  11.175  17.986  0.00  0.00    +0.000 A 
ATOM     14  C   UNL     1       2.191  12.531  18.299  0.00  0.00    +0.000 A 
BRANCH   9  16
ATOM     15  C   UNL     1       1.879  15.115  19.378  0.00  0.00    +0.000 C 
ATOM     16  O   UNL     1       0.736  14.284  19.203  0.00  0.00    +0.000 OA
ENDBRANCH   9  16
ENDBRANCH   6  12
ENDBRANCH   2   8
ENDBRANCH   1   3
BRANCH   1  17
ATOM     17  C   UNL     1       1.991   3.274  19.164  0.00  0.00    +0.000 C 
ATOM     18  C   UNL     1       2.769   2.117  19.820  0.00  0.00    +0.000 C 
ATOM     19  C   UNL     1       0.652   2.680  18.657  0.00  0.00    +0.000 C 
BRANCH  17  20
ATOM     20  N   UNL     1       2.722   3.778  17.970  0.00  0.00    +0.000 NA
ATOM     21  H   UNL     1       2.924   4.775  18.153  0.00  0.00    +0.000 HD
BRANCH  20  22
ATOM     22  C   UNL     1       4.022   3.124  17.728  0.00  0.00    +0.000 C 
BRANCH  22  23
ATOM     23  C   UNL     1       5.200   3.928  18.298  0.00  0.00    +0.000 C 
ATOM     24  O   UNL     1       5.672   3.629  19.399  0.00  0.00    +0.000 OA
ATOM     25  N   UNL     1       5.775   4.912  17.524  0.00  0.00    +0.000 N 
ATOM     26  C   UNL     1       6.996   5.578  17.933  0.00  0.00    +0.000 C 
ATOM     27  C   UNL     1       6.809   6.999  17.453  0.00  0.00    +0.000 C 
ATOM     28  F   UNL     1       7.998   7.586  17.186  0.00  0.00    +0.000 F 
ATOM     29  C   UNL     1       6.001   6.857  16.169  0.00  0.00    +0.000 C 
ATOM     30  C   UNL     1       5.217   5.545  16.325  0.00  0.00    +0.000 C 
BRANCH  30  31
ATOM     31  C   UNL     1       5.364   4.701  15.119  0.00  0.00    +0.000 C 
ATOM     32  N   UNL     1       5.478   4.056  14.157  0.00  0.00    +0.000 NA
ENDBRANCH  30  31
ENDBRANCH  22  23
ENDBRANCH  20  22
ENDBRANCH  17  20
ENDBRANCH   1  17
TORSDOF 9
ENDMDL
MODEL 9
REMARK VINA RESULT:      -6.7      2.598      4.607
REMARK  Name = 
REMARK  12 active torsions:
REMARK  status: ('A' for Active; 'I' for Inactive)
REMARK    1  A    between atoms: C_1  and  O_2
REMARK    2  A    between atoms: O_2  and  C_3
REMARK    3  A    between atoms: C_6  and  C_7
REMARK    4  A    between atoms: C_9  and  N_10
REMARK    5  A    between atoms: C_11  and  C_13
REMARK    6  A    between atoms: C_13  and  C_14
REMARK    7  A    between atoms: C_14  and  C_15
REMARK    8  A    between atoms: C_14  and  C_16
REMARK    9  A    between atoms: C_14  and  N_17
REMARK   10  A    between atoms: N_17  and  C_18
REMARK   11  A    between atoms: C_18  and  C_19
REMARK   12  A    between atoms: C_26  and  C_27
REMARK                            x       y       z     vdW  Elec       q    Type
REMARK                         _______ _______ _______ _____ _____    ______ ____
ROOT
ATOM      1  C   UNL     1       6.892   6.481  16.730  0.00  0.00    +0.000 C 
ENDROOT
BRANCH   1   3
ATOM      2  N   UNL     1       4.767   7.239  17.676  0.00  0.00    +0.000 N 
ATOM      3  C   UNL     1       5.424   6.806  16.541  0.00  0.00    +0.000 C 
ATOM      4  O   UNL     1       4.873   6.715  15.446  0.00  0.00    +0.000 OA
ATOM      5  H   UNL     1       5.250   7.282  18.564  0.00  0.00    +0.000 HD
BRANCH   2   8
ATOM      6  C   UNL     1       2.561   7.408  18.920  0.00  0.00    +0.000 C 
ATOM      7  C   UNL     1       2.317   6.441  17.795  0.00  0.00    +0.000 C 
ATOM      8  C   UNL     1       3.358   7.505  17.633  0.00  0.00    +0.000 C 
BRANCH   6  12
ATOM      9  C   UNL     1      -0.040  10.697  20.035  0.00  0.00    +0.000 A 
ATOM     10  C   UNL     1       0.434   9.809  20.997  0.00  0.00    +0.000 A 
ATOM     11  C   UNL     1       1.243   8.727  20.631  0.00  0.00    +0.000 A 
ATOM     12  C   UNL     1       1.585   8.496  19.293  0.00  0.00    +0.000 A 
ATOM     13  C   UNL     1       1.066   9.384  18.334  0.00  0.00    +0.000 A 
ATOM     14  C   UNL     1       0.260  10.471  18.695  0.00  0.00    +0.000 A 
BRANCH   9  16
ATOM     15  C   UNL     1      -0.246  12.445  21.610  0.00  0.00    +0.000 C 
ATOM     16  O   UNL     1      -0.802  11.728  20.512  0.00  0.00    +0.000 OA
ENDBRANCH   9  16
ENDBRANCH   6  12
ENDBRANCH   2   8
ENDBRANCH   1   3
BRANCH   1  17
ATOM     17  C   UNL     1       7.153   5.709  18.058  0.00  0.00    +0.000 C 
ATOM     18  C   UNL     1       7.923   4.408  17.759  0.00  0.00    +0.000 C 
ATOM     19  C   UNL     1       8.070   6.572  18.962  0.00  0.00    +0.000 C 
BRANCH  17  20
ATOM     20  N   UNL     1       5.923   5.415  18.841  0.00  0.00    +0.000 NA
ATOM     21  H   UNL     1       5.137   5.828  18.313  0.00  0.00    +0.000 HD
BRANCH  20  22
ATOM     22  C   UNL     1       5.621   3.978  18.988  0.00  0.00    +0.000 C 
BRANCH  22  23
ATOM     23  C   UNL     1       4.441   3.534  18.110  0.00  0.00    +0.000 C 
ATOM     24  O   UNL     1       4.566   3.505  16.882  0.00  0.00    +0.000 OA
ATOM     25  N   UNL     1       3.291   3.079  18.717  0.00  0.00    +0.000 N 
ATOM     26  C   UNL     1       2.218   2.480  17.947  0.00  0.00    +0.000 C 
ATOM     27  C   UNL     1       0.965   2.939  18.658  0.00  0.00    +0.000 C 
ATOM     28  F   UNL     1      -0.041   2.049  18.502  0.00  0.00    +0.000 F 
ATOM     29  C   UNL     1       1.372   3.009  20.125  0.00  0.00    +0.000 C 
ATOM     30  C   UNL     1       2.889   3.256  20.115  0.00  0.00    +0.000 C 
BRANCH  30  31
ATOM     31  C   UNL     1       3.577   2.314  21.025  0.00  0.00    +0.000 C 
ATOM     32  N   UNL     1       4.125   1.561  21.723  0.00  0.00    +0.000 NA
ENDBRANCH  30  31
ENDBRANCH  22  23
ENDBRANCH  20  22
ENDBRANCH  17  20
ENDBRANCH   1  17
TORSDOF 9
ENDMDL
