MODEL 1
REMARK VINA RESULT:      -7.3      0.000      0.000
REMARK  Name = 
REMARK  5 active torsions:
REMARK  status: ('A' for Active; 'I' for Inactive)
REMARK    1  A    between atoms: C_1  and  C_2
REMARK    2  A    between atoms: N_12  and  C_13
REMARK    3  A    between atoms: C_13  and  C_14
REMARK    4  A    between atoms: C_14  and  C_15
REMARK    5  A    between atoms: C_14  and  N_16
REMARK                            x       y       z     vdW  Elec       q    Type
REMARK                         _______ _______ _______ _____ _____    ______ ____
ROOT
ATOM      1  C   UNL     1       6.261   3.811  15.242  0.00  0.00    +0.000 C 
ATOM      2  C   UNL     1       5.407   4.758  16.035  0.00  0.00    +0.000 A 
ATOM      3  C   UNL     1       5.318   6.117  15.656  0.00  0.00    +0.000 A 
ATOM      4  C   UNL     1       4.536   7.024  16.372  0.00  0.00    +0.000 A 
ATOM      5  C   UNL     1       3.844   6.557  17.480  0.00  0.00    +0.000 A 
ATOM      6  C   UNL     1       3.937   5.192  17.866  0.00  0.00    +0.000 A 
ATOM      7  C   UNL     1       4.703   4.287  17.159  0.00  0.00    +0.000 A 
ATOM      8  C   UNL     1       3.140   5.085  19.049  0.00  0.00    +0.000 A 
ATOM      9  C   UNL     1       2.592   6.306  19.364  0.00  0.00    +0.000 A 
ATOM     10  C   UNL     1       1.850   6.159  20.543  0.00  0.00    +0.000 A 
ATOM     11  C   UNL     1       1.975   4.829  20.909  0.00  0.00    +0.000 A 
ATOM     12  N   UNL     1       2.756   4.169  19.972  0.00  0.00    +0.000 N 
ATOM     13  C   UNL     1       2.947   7.394  18.402  0.00  0.00    +0.000 C 
ENDROOT
BRANCH  12  14
ATOM     14  C   UNL     1       3.003   2.739  19.968  0.00  0.00    +0.000 C 
BRANCH  14  15
ATOM     15  C   UNL     1       2.003   1.913  19.135  0.00  0.00    +0.000 C 
ATOM     16  C   UNL     1       0.635   2.583  18.996  0.00  0.00    +0.000 C 
BRANCH  15  17
ATOM     17  N   UNL     1       2.547   1.682  17.783  0.00  0.00    +0.000 NA
ATOM     18  H   UNL     1       3.541   1.917  17.763  0.00  0.00    +0.000 HD
ATOM     19  H   UNL     1       2.103   2.332  17.129  0.00  0.00    +0.000 HD
ENDBRANCH  15  17
ENDBRANCH  14  15
ENDBRANCH  12  14
TORSDOF 3
ENDMDL
MODEL 2
REMARK VINA RESULT:      -7.0      0.869      1.334
REMARK  Name = 
REMARK  5 active torsions:
REMARK  status: ('A' for Active; 'I' for Inactive)
REMARK    1  A    between atoms: C_1  and  C_2
REMARK    2  A    between atoms: N_12  and  C_13
REMARK    3  A    between atoms: C_13  and  C_14
REMARK    4  A    between atoms: C_14  and  C_15
REMARK    5  A    between atoms: C_14  and  N_16
REMARK                            x       y       z     vdW  Elec       q    Type
REMARK                         _______ _______ _______ _____ _____    ______ ____
ROOT
ATOM      1  C   UNL     1       6.031   4.049  14.925  0.00  0.00    +0.000 C 
ATOM      2  C   UNL     1       5.230   4.906  15.861  0.00  0.00    +0.000 A 
ATOM      3  C   UNL     1       5.256   6.314  15.729  0.00  0.00    +0.000 A 
ATOM      4  C   UNL     1       4.525   7.140  16.584  0.00  0.00    +0.000 A 
ATOM      5  C   UNL     1       3.769   6.542  17.580  0.00  0.00    +0.000 A 
ATOM      6  C   UNL     1       3.746   5.127  17.719  0.00  0.00    +0.000 A 
ATOM      7  C   UNL     1       4.459   4.303  16.872  0.00  0.00    +0.000 A 
ATOM      8  C   UNL     1       2.908   4.878  18.851  0.00  0.00    +0.000 A 
ATOM      9  C   UNL     1       2.447   6.064  19.371  0.00  0.00    +0.000 A 
ATOM     10  C   UNL     1       1.662   5.771  20.493  0.00  0.00    +0.000 A 
ATOM     11  C   UNL     1       1.674   4.392  20.618  0.00  0.00    +0.000 A 
ATOM     12  N   UNL     1       2.429   3.847  19.590  0.00  0.00    +0.000 N 
ATOM     13  C   UNL     1       2.912   7.272  18.623  0.00  0.00    +0.000 C 
ENDROOT
BRANCH  12  14
ATOM     14  C   UNL     1       2.566   2.425  19.336  0.00  0.00    +0.000 C 
BRANCH  14  15
ATOM     15  C   UNL     1       4.020   1.926  19.215  0.00  0.00    +0.000 C 
ATOM     16  C   UNL     1       4.713   1.757  20.568  0.00  0.00    +0.000 C 
BRANCH  15  17
ATOM     17  N   UNL     1       4.049   0.630  18.512  0.00  0.00    +0.000 NA
ATOM     18  H   UNL     1       4.402  -0.097  19.137  0.00  0.00    +0.000 HD
ATOM     19  H   UNL     1       4.728   0.680  17.747  0.00  0.00    +0.000 HD
ENDBRANCH  15  17
ENDBRANCH  14  15
ENDBRANCH  12  14
TORSDOF 3
ENDMDL
MODEL 3
REMARK VINA RESULT:      -6.9      2.500      5.608
REMARK  Name = 
REMARK  5 active torsions:
REMARK  status: ('A' for Active; 'I' for Inactive)
REMARK    1  A    between atoms: C_1  and  C_2
REMARK    2  A    between atoms: N_12  and  C_13
REMARK    3  A    between atoms: C_13  and  C_14
REMARK    4  A    between atoms: C_14  and  C_15
REMARK    5  A    between atoms: C_14  and  N_16
REMARK                            x       y       z     vdW  Elec       q    Type
REMARK                         _______ _______ _______ _____ _____    ______ ____
ROOT
ATOM      1  C   UNL     1       1.692   2.914  22.118  0.00  0.00    +0.000 C 
ATOM      2  C   UNL     1       1.953   2.972  20.641  0.00  0.00    +0.000 A 
ATOM      3  C   UNL     1       1.038   2.385  19.737  0.00  0.00    +0.000 A 
ATOM      4  C   UNL     1       1.251   2.419  18.358  0.00  0.00    +0.000 A 
ATOM      5  C   UNL     1       2.396   3.045  17.890  0.00  0.00    +0.000 A 
ATOM      6  C   UNL     1       3.321   3.631  18.797  0.00  0.00    +0.000 A 
ATOM      7  C   UNL     1       3.113   3.608  20.161  0.00  0.00    +0.000 A 
ATOM      8  C   UNL     1       4.376   4.139  17.976  0.00  0.00    +0.000 A 
ATOM      9  C   UNL     1       4.113   3.882  16.652  0.00  0.00    +0.000 A 
ATOM     10  C   UNL     1       5.186   4.366  15.893  0.00  0.00    +0.000 A 
ATOM     11  C   UNL     1       6.080   4.910  16.800  0.00  0.00    +0.000 A 
ATOM     12  N   UNL     1       5.564   4.783  18.081  0.00  0.00    +0.000 N 
ATOM     13  C   UNL     1       2.816   3.175  16.420  0.00  0.00    +0.000 C 
ENDROOT
BRANCH  12  14
ATOM     14  C   UNL     1       6.174   5.346  19.272  0.00  0.00    +0.000 C 
BRANCH  14  15
ATOM     15  C   UNL     1       7.700   5.549  19.182  0.00  0.00    +0.000 C 
ATOM     16  C   UNL     1       8.095   6.944  18.693  0.00  0.00    +0.000 C 
BRANCH  15  17
ATOM     17  N   UNL     1       8.314   5.329  20.506  0.00  0.00    +0.000 NA
ATOM     18  H   UNL     1       8.304   6.198  21.043  0.00  0.00    +0.000 HD
ATOM     19  H   UNL     1       9.305   5.103  20.380  0.00  0.00    +0.000 HD
ENDBRANCH  15  17
ENDBRANCH  14  15
ENDBRANCH  12  14
TORSDOF 3
ENDMDL
MODEL 4
REMARK VINA RESULT:      -6.9      2.109      4.877
REMARK  Name = 
REMARK  5 active torsions:
REMARK  status: ('A' for Active; 'I' for Inactive)
REMARK    1  A    between atoms: C_1  and  C_2
REMARK    2  A    between atoms: N_12  and  C_13
REMARK    3  A    between atoms: C_13  and  C_14
REMARK    4  A    between atoms: C_14  and  C_15
REMARK    5  A    between atoms: C_14  and  N_16
REMARK                            x       y       z     vdW  Elec       q    Type
REMARK                         _______ _______ _______ _____ _____    ______ ____
ROOT
ATOM      1  C   UNL     1      -0.380   9.027  22.560  0.00  0.00    +0.000 C 
ATOM      2  C   UNL     1       0.414   8.855  21.298  0.00  0.00    +0.000 A 
ATOM      3  C   UNL     1       0.459   9.897  20.343  0.00  0.00    +0.000 A 
ATOM      4  C   UNL     1       1.185   9.768  19.158  0.00  0.00    +0.000 A 
ATOM      5  C   UNL     1       1.864   8.581  18.934  0.00  0.00    +0.000 A 
ATOM      6  C   UNL     1       1.816   7.530  19.890  0.00  0.00    +0.000 A 
ATOM      7  C   UNL     1       1.107   7.652  21.067  0.00  0.00    +0.000 A 
ATOM      8  C   UNL     1       2.586   6.470  19.316  0.00  0.00    +0.000 A 
ATOM      9  C   UNL     1       3.075   6.848  18.089  0.00  0.00    +0.000 A 
ATOM     10  C   UNL     1       3.791   5.770  17.554  0.00  0.00    +0.000 A 
ATOM     11  C   UNL     1       3.710   4.755  18.493  0.00  0.00    +0.000 A 
ATOM     12  N   UNL     1       2.981   5.201  19.585  0.00  0.00    +0.000 N 
ATOM     13  C   UNL     1       2.703   8.241  17.694  0.00  0.00    +0.000 C 
ENDROOT
BRANCH  12  14
ATOM     14  C   UNL     1       2.792   4.446  20.810  0.00  0.00    +0.000 C 
BRANCH  14  15
ATOM     15  C   UNL     1       1.412   3.772  20.948  0.00  0.00    +0.000 C 
ATOM     16  C   UNL     1       0.908   3.157  19.641  0.00  0.00    +0.000 C 
BRANCH  15  17
ATOM     17  N   UNL     1       1.472   2.709  21.970  0.00  0.00    +0.000 NA
ATOM     18  H   UNL     1       2.185   2.024  21.717  0.00  0.00    +0.000 HD
ATOM     19  H   UNL     1       0.588   2.192  21.966  0.00  0.00    +0.000 HD
ENDBRANCH  15  17
ENDBRANCH  14  15
ENDBRANCH  12  14
TORSDOF 3
ENDMDL
MODEL 5
REMARK VINA RESULT:      -6.9      2.282      3.214
REMARK  Name = 
REMARK  5 active torsions:
REMARK  status: ('A' for Active; 'I' for Inactive)
REMARK    1  A    between atoms: C_1  and  C_2
REMARK    2  A    between atoms: N_12  and  C_13
REMARK    3  A    between atoms: C_13  and  C_14
REMARK    4  A    between atoms: C_14  and  C_15
REMARK    5  A    between atoms: C_14  and  N_16
REMARK                            x       y       z     vdW  Elec       q    Type
REMARK                         _______ _______ _______ _____ _____    ______ ____
ROOT
ATOM      1  C   UNL     1       5.510   3.152  12.214  0.00  0.00    +0.000 C 
ATOM      2  C   UNL     1       5.978   3.872  13.444  0.00  0.00    +0.000 A 
ATOM      3  C   UNL     1       7.052   4.788  13.363  0.00  0.00    +0.000 A 
ATOM      4  C   UNL     1       7.514   5.472  14.488  0.00  0.00    +0.000 A 
ATOM      5  C   UNL     1       6.892   5.225  15.703  0.00  0.00    +0.000 A 
ATOM      6  C   UNL     1       5.816   4.300  15.788  0.00  0.00    +0.000 A 
ATOM      7  C   UNL     1       5.349   3.625  14.679  0.00  0.00    +0.000 A 
ATOM      8  C   UNL     1       5.457   4.275  17.172  0.00  0.00    +0.000 A 
ATOM      9  C   UNL     1       6.260   5.131  17.887  0.00  0.00    +0.000 A 
ATOM     10  C   UNL     1       5.894   5.046  19.236  0.00  0.00    +0.000 A 
ATOM     11  C   UNL     1       4.862   4.125  19.295  0.00  0.00    +0.000 A 
ATOM     12  N   UNL     1       4.585   3.667  18.015  0.00  0.00    +0.000 N 
ATOM     13  C   UNL     1       7.259   5.862  17.050  0.00  0.00    +0.000 C 
ENDROOT
BRANCH  12  14
ATOM     14  C   UNL     1       3.487   2.781  17.679  0.00  0.00    +0.000 C 
BRANCH  14  15
ATOM     15  C   UNL     1       2.136   3.153  18.322  0.00  0.00    +0.000 C 
ATOM     16  C   UNL     1       1.475   4.372  17.675  0.00  0.00    +0.000 C 
BRANCH  15  17
ATOM     17  N   UNL     1       1.204   2.013  18.226  0.00  0.00    +0.000 NA
ATOM     18  H   UNL     1       0.252   2.325  18.425  0.00  0.00    +0.000 HD
ATOM     19  H   UNL     1       1.425   1.338  18.964  0.00  0.00    +0.000 HD
ENDBRANCH  15  17
ENDBRANCH  14  15
ENDBRANCH  12  14
TORSDOF 3
ENDMDL
MODEL 6
REMARK VINA RESULT:      -6.8      1.365      3.545
REMARK  Name = 
REMARK  5 active torsions:
REMARK  status: ('A' for Active; 'I' for Inactive)
REMARK    1  A    between atoms: C_1  and  C_2
REMARK    2  A    between atoms: N_12  and  C_13
REMARK    3  A    between atoms: C_13  and  C_14
REMARK    4  A    between atoms: C_14  and  C_15
REMARK    5  A    between atoms: C_14  and  N_16
REMARK                            x       y       z     vdW  Elec       q    Type
REMARK                         _______ _______ _______ _____ _____    ______ ____
ROOT
ATOM      1  C   UNL     1       2.258   8.961  18.026  0.00  0.00    +0.000 C 
ATOM      2  C   UNL     1       2.989   7.690  17.709  0.00  0.00    +0.000 A 
ATOM      3  C   UNL     1       4.156   7.724  16.912  0.00  0.00    +0.000 A 
ATOM      4  C   UNL     1       4.858   6.560  16.595  0.00  0.00    +0.000 A 
ATOM      5  C   UNL     1       4.376   5.355  17.083  0.00  0.00    +0.000 A 
ATOM      6  C   UNL     1       3.200   5.317  17.880  0.00  0.00    +0.000 A 
ATOM      7  C   UNL     1       2.504   6.464  18.203  0.00  0.00    +0.000 A 
ATOM      8  C   UNL     1       2.988   3.931  18.164  0.00  0.00    +0.000 A 
ATOM      9  C   UNL     1       3.972   3.171  17.580  0.00  0.00    +0.000 A 
ATOM     10  C   UNL     1       3.704   1.824  17.857  0.00  0.00    +0.000 A 
ATOM     11  C   UNL     1       2.544   1.814  18.613  0.00  0.00    +0.000 A 
ATOM     12  N   UNL     1       2.119   3.119  18.815  0.00  0.00    +0.000 N 
ATOM     13  C   UNL     1       4.993   3.971  16.837  0.00  0.00    +0.000 C 
ENDROOT
BRANCH  12  14
ATOM     14  C   UNL     1       1.003   3.497  19.661  0.00  0.00    +0.000 C 
BRANCH  14  15
ATOM     15  C   UNL     1       1.360   3.711  21.145  0.00  0.00    +0.000 C 
ATOM     16  C   UNL     1       2.062   2.507  21.776  0.00  0.00    +0.000 C 
BRANCH  15  17
ATOM     17  N   UNL     1       2.238   4.888  21.286  0.00  0.00    +0.000 NA
ATOM     18  H   UNL     1       1.701   5.743  21.133  0.00  0.00    +0.000 HD
ATOM     19  H   UNL     1       2.938   4.874  20.538  0.00  0.00    +0.000 HD
ENDBRANCH  15  17
ENDBRANCH  14  15
ENDBRANCH  12  14
TORSDOF 3
ENDMDL
MODEL 7
REMARK VINA RESULT:      -6.8      2.407      5.771
REMARK  Name = 
REMARK  5 active torsions:
REMARK  status: ('A' for Active; 'I' for Inactive)
REMARK    1  A    between atoms: C_1  and  C_2
REMARK    2  A    between atoms: N_12  and  C_13
REMARK    3  A    between atoms: C_13  and  C_14
REMARK    4  A    between atoms: C_14  and  C_15
REMARK    5  A    between atoms: C_14  and  N_16
REMARK                            x       y       z     vdW  Elec       q    Type
REMARK                         _______ _______ _______ _____ _____    ______ ____
ROOT
ATOM      1  C   UNL     1       1.627   7.052  21.018  0.00  0.00    +0.000 C 
ATOM      2  C   UNL     1       2.034   6.008  20.019  0.00  0.00    +0.000 A 
ATOM      3  C   UNL     1       1.290   4.811  19.905  0.00  0.00    +0.000 A 
ATOM      4  C   UNL     1       1.642   3.818  18.989  0.00  0.00    +0.000 A 
ATOM      5  C   UNL     1       2.754   4.034  18.189  0.00  0.00    +0.000 A 
ATOM      6  C   UNL     1       3.507   5.234  18.306  0.00  0.00    +0.000 A 
ATOM      7  C   UNL     1       3.161   6.223  19.204  0.00  0.00    +0.000 A 
ATOM      8  C   UNL     1       4.580   5.092  17.372  0.00  0.00    +0.000 A 
ATOM      9  C   UNL     1       4.488   3.884  16.722  0.00  0.00    +0.000 A 
ATOM     10  C   UNL     1       5.575   3.778  15.845  0.00  0.00    +0.000 A 
ATOM     11  C   UNL     1       6.303   4.947  15.995  0.00  0.00    +0.000 A 
ATOM     12  N   UNL     1       5.672   5.761  16.925  0.00  0.00    +0.000 N 
ATOM     13  C   UNL     1       3.310   3.064  17.137  0.00  0.00    +0.000 C 
ENDROOT
BRANCH  12  14
ATOM     14  C   UNL     1       6.087   7.114  17.248  0.00  0.00    +0.000 C 
BRANCH  14  15
ATOM     15  C   UNL     1       7.586   7.271  17.567  0.00  0.00    +0.000 C 
ATOM     16  C   UNL     1       8.008   8.725  17.785  0.00  0.00    +0.000 C 
BRANCH  15  17
ATOM     17  N   UNL     1       7.925   6.502  18.780  0.00  0.00    +0.000 NA
ATOM     18  H   UNL     1       8.726   5.896  18.596  0.00  0.00    +0.000 HD
ATOM     19  H   UNL     1       7.152   5.867  18.999  0.00  0.00    +0.000 HD
ENDBRANCH  15  17
ENDBRANCH  14  15
ENDBRANCH  12  14
TORSDOF 3
ENDMDL
MODEL 8
REMARK VINA RESULT:      -6.8      2.502      5.254
REMARK  Name = 
REMARK  5 active torsions:
REMARK  status: ('A' for Active; 'I' for Inactive)
REMARK    1  A    between atoms: C_1  and  C_2
REMARK    2  A    between atoms: N_12  and  C_13
REMARK    3  A    between atoms: C_13  and  C_14
REMARK    4  A    between atoms: C_14  and  C_15
REMARK    5  A    between atoms: C_14  and  N_16
REMARK                            x       y       z     vdW  Elec       q    Type
REMARK                         _______ _______ _______ _____ _____    ______ ____
ROOT
ATOM      1  C   UNL     1      -0.421   9.527  22.975  0.00  0.00    +0.000 C 
ATOM      2  C   UNL     1       0.277   9.395  21.653  0.00  0.00    +0.000 A 
ATOM      3  C   UNL     1       0.274  10.475  20.741  0.00  0.00    +0.000 A 
ATOM      4  C   UNL     1       0.911  10.384  19.502  0.00  0.00    +0.000 A 
ATOM      5  C   UNL     1       1.548   9.196  19.181  0.00  0.00    +0.000 A 
ATOM      6  C   UNL     1       1.547   8.106  20.094  0.00  0.00    +0.000 A 
ATOM      7  C   UNL     1       0.926   8.190  21.323  0.00  0.00    +0.000 A 
ATOM      8  C   UNL     1       2.251   7.058  19.423  0.00  0.00    +0.000 A 
ATOM      9  C   UNL     1       2.659   7.480  18.180  0.00  0.00    +0.000 A 
ATOM     10  C   UNL     1       3.313   6.412  17.551  0.00  0.00    +0.000 A 
ATOM     11  C   UNL     1       3.278   5.360  18.450  0.00  0.00    +0.000 A 
ATOM     12  N   UNL     1       2.639   5.772  19.610  0.00  0.00    +0.000 N 
ATOM     13  C   UNL     1       2.288   8.894  17.870  0.00  0.00    +0.000 C 
ENDROOT
BRANCH  12  14
ATOM     14  C   UNL     1       2.522   4.969  20.814  0.00  0.00    +0.000 C 
BRANCH  14  15
ATOM     15  C   UNL     1       1.955   3.553  20.593  0.00  0.00    +0.000 C 
ATOM     16  C   UNL     1       2.091   2.651  21.821  0.00  0.00    +0.000 C 
BRANCH  15  17
ATOM     17  N   UNL     1       0.527   3.635  20.232  0.00  0.00    +0.000 NA
ATOM     18  H   UNL     1       0.428   3.697  19.217  0.00  0.00    +0.000 HD
ATOM     19  H   UNL     1       0.141   4.511  20.595  0.00  0.00    +0.000 HD
ENDBRANCH  15  17
ENDBRANCH  14  15
ENDBRANCH  12  14
TORSDOF 3
ENDMDL
MODEL 9
REMARK VINA RESULT:      -6.7      1.891      4.681
REMARK  Name = 
REMARK  5 active torsions:
REMARK  status: ('A' for Active; 'I' for Inactive)
REMARK    1  A    between atoms: C_1  and  C_2
REMARK    2  A    between atoms: N_12  and  C_13
REMARK    3  A    between atoms: C_13  and  C_14
REMARK    4  A    between atoms: C_14  and  C_15
REMARK    5  A    between atoms: C_14  and  N_16
REMARK                            x       y       z     vdW  Elec       q    Type
REMARK                         _______ _______ _______ _____ _____    ______ ____
ROOT
ATOM      1  C   UNL     1       2.080   9.636  17.816  0.00  0.00    +0.000 C 
ATOM      2  C   UNL     1       2.078   8.398  18.665  0.00  0.00    +0.000 A 
ATOM      3  C   UNL     1       1.446   8.409  19.930  0.00  0.00    +0.000 A 
ATOM      4  C   UNL     1       1.429   7.277  20.746  0.00  0.00    +0.000 A 
ATOM      5  C   UNL     1       2.058   6.131  20.285  0.00  0.00    +0.000 A 
ATOM      6  C   UNL     1       2.699   6.119  19.017  0.00  0.00    +0.000 A 
ATOM      7  C   UNL     1       2.714   7.232  18.201  0.00  0.00    +0.000 A 
ATOM      8  C   UNL     1       3.259   4.809  18.895  0.00  0.00    +0.000 A 
ATOM      9  C   UNL     1       2.976   4.066  20.016  0.00  0.00    +0.000 A 
ATOM     10  C   UNL     1       3.572   2.807  19.865  0.00  0.00    +0.000 A 
ATOM     11  C   UNL     1       4.207   2.830  18.635  0.00  0.00    +0.000 A 
ATOM     12  N   UNL     1       3.993   4.061  18.034  0.00  0.00    +0.000 N 
ATOM     13  C   UNL     1       2.160   4.795  21.035  0.00  0.00    +0.000 C 
ENDROOT
BRANCH  12  14
ATOM     14  C   UNL     1       4.412   4.402  16.687  0.00  0.00    +0.000 C 
BRANCH  14  15
ATOM     15  C   UNL     1       5.621   5.354  16.607  0.00  0.00    +0.000 C 
ATOM     16  C   UNL     1       6.937   4.635  16.305  0.00  0.00    +0.000 C 
BRANCH  15  17
ATOM     17  N   UNL     1       5.393   6.368  15.559  0.00  0.00    +0.000 NA
ATOM     18  H   UNL     1       5.150   5.910  14.679  0.00  0.00    +0.000 HD
ATOM     19  H   UNL     1       6.273   6.858  15.372  0.00  0.00    +0.000 HD
ENDBRANCH  15  17
ENDBRANCH  14  15
ENDBRANCH  12  14
TORSDOF 3
ENDMDL
