MODEL 1
REMARK VINA RESULT:      -8.2      0.000      0.000
REMARK  Name = 
REMARK  8 active torsions:
REMARK  status: ('A' for Active; 'I' for Inactive)
REMARK    1  A    between atoms: C_1  and  O_2
REMARK    2  A    between atoms: O_2  and  C_3
REMARK    3  A    between atoms: C_8  and  C_9
REMARK    4  A    between atoms: C_9  and  N_10
REMARK    5  A    between atoms: C_11  and  C_13
REMARK    6  A    between atoms: C_20  and  C_21
REMARK    7  A    between atoms: N_22  and  C_23
REMARK    8  A    between atoms: C_27  and  C_28
REMARK                            x       y       z     vdW  Elec       q    Type
REMARK                         _______ _______ _______ _____ _____    ______ ____
ROOT
ATOM      1  C   UNL     1       2.199   7.542  19.098  0.00  0.00    +0.000 A 
ATOM      2  C   UNL     1       1.925   8.625  18.259  0.00  0.00    +0.000 A 
ATOM      3  C   UNL     1       1.340   9.807  18.766  0.00  0.00    +0.000 A 
ATOM      4  C   UNL     1       1.004   9.843  20.133  0.00  0.00    +0.000 A 
ATOM      5  C   UNL     1       1.287   8.763  20.961  0.00  0.00    +0.000 A 
ATOM      6  C   UNL     1       1.931   7.632  20.467  0.00  0.00    +0.000 A 
ATOM      7  N   UNL     1       0.771   8.933  22.200  0.00  0.00    +0.000 NA
ATOM      8  C   UNL     1      -0.001  10.001  22.125  0.00  0.00    +0.000 A 
ATOM      9  C   UNL     1      -0.959  10.299  23.228  0.00  0.00    +0.000 C 
ATOM     10  N   UNL     1       0.234  10.702  20.934  0.00  0.00    +0.000 N 
ENDROOT
BRANCH  10  11
ATOM     11  C   UNL     1      -0.376  11.898  20.440  0.00  0.00    +0.000 A 
ATOM     12  C   UNL     1      -1.765  11.972  20.298  0.00  0.00    +0.000 A 
ATOM     13  C   UNL     1      -2.393  13.218  20.224  0.00  0.00    +0.000 A 
ATOM     14  C   UNL     1      -1.640  14.387  20.340  0.00  0.00    +0.000 A 
ATOM     15  C   UNL     1      -0.249  14.310  20.434  0.00  0.00    +0.000 A 
ATOM     16  C   UNL     1       0.607  15.508  20.723  0.00  0.00    +0.000 C 
ATOM     17  C   UNL     1       0.383  13.064  20.389  0.00  0.00    +0.000 A 
ENDBRANCH  10  11
BRANCH   1  19
ATOM     18  N   UNL     1       3.754   5.641  19.083  0.00  0.00    +0.000 N 
ATOM     19  C   UNL     1       2.593   6.194  18.603  0.00  0.00    +0.000 C 
ATOM     20  O   UNL     1       1.873   5.634  17.781  0.00  0.00    +0.000 OA
ATOM     21  H   UNL     1       4.215   6.036  19.887  0.00  0.00    +0.000 HD
BRANCH  18  22
ATOM     22  C   UNL     1       4.155   4.307  18.665  0.00  0.00    +0.000 C 
BRANCH  22  28
ATOM     23  C   UNL     1       6.536   4.573  17.780  0.00  0.00    +0.000 A 
ATOM     24  C   UNL     1       7.441   4.532  16.711  0.00  0.00    +0.000 A 
ATOM     25  C   UNL     1       6.995   4.319  15.406  0.00  0.00    +0.000 A 
ATOM     26  C   UNL     1       5.643   4.122  15.161  0.00  0.00    +0.000 A 
ATOM     27  C   UNL     1       4.741   4.112  16.222  0.00  0.00    +0.000 A 
ATOM     28  C   UNL     1       5.168   4.333  17.552  0.00  0.00    +0.000 A 
BRANCH  23  30
ATOM     29  C   UNL     1       7.831   5.919  19.200  0.00  0.00    +0.000 C 
ATOM     30  O   UNL     1       6.923   4.827  19.072  0.00  0.00    +0.000 OA
ENDBRANCH  23  30
ENDBRANCH  22  28
ENDBRANCH  18  22
ENDBRANCH   1  19
TORSDOF 5
ENDMDL
MODEL 2
REMARK VINA RESULT:      -8.2      1.428      2.132
REMARK  Name = 
REMARK  8 active torsions:
REMARK  status: ('A' for Active; 'I' for Inactive)
REMARK    1  A    between atoms: C_1  and  O_2
REMARK    2  A    between atoms: O_2  and  C_3
REMARK    3  A    between atoms: C_8  and  C_9
REMARK    4  A    between atoms: C_9  and  N_10
REMARK    5  A    between atoms: C_11  and  C_13
REMARK    6  A    between atoms: C_20  and  C_21
REMARK    7  A    between atoms: N_22  and  C_23
REMARK    8  A    between atoms: C_27  and  C_28
REMARK                            x       y       z     vdW  Elec       q    Type
REMARK                         _______ _______ _______ _____ _____    ______ ____
ROOT
ATOM      1  C   UNL     1       2.639   6.855  18.436  0.00  0.00    +0.000 A 
ATOM      2  C   UNL     1       2.298   7.954  17.644  0.00  0.00    +0.000 A 
ATOM      3  C   UNL     1       1.673   9.089  18.207  0.00  0.00    +0.000 A 
ATOM      4  C   UNL     1       1.367   9.061  19.581  0.00  0.00    +0.000 A 
ATOM      5  C   UNL     1       1.717   7.965  20.362  0.00  0.00    +0.000 A 
ATOM      6  C   UNL     1       2.399   6.883  19.813  0.00  0.00    +0.000 A 
ATOM      7  N   UNL     1       1.222   8.067  21.617  0.00  0.00    +0.000 NA
ATOM      8  C   UNL     1       0.403   9.100  21.599  0.00  0.00    +0.000 A 
ATOM      9  C   UNL     1      -0.542   9.315  22.732  0.00  0.00    +0.000 C 
ATOM     10  N   UNL     1       0.578   9.854  20.430  0.00  0.00    +0.000 N 
ENDROOT
BRANCH  10  11
ATOM     11  C   UNL     1      -0.096  11.038  19.994  0.00  0.00    +0.000 A 
ATOM     12  C   UNL     1       0.565  12.270  20.008  0.00  0.00    +0.000 A 
ATOM     13  C   UNL     1       0.092  13.325  19.223  0.00  0.00    +0.000 A 
ATOM     14  C   UNL     1      -1.011  13.134  18.390  0.00  0.00    +0.000 A 
ATOM     15  C   UNL     1      -1.697  11.918  18.414  0.00  0.00    +0.000 A 
ATOM     16  C   UNL     1      -2.785  11.587  17.436  0.00  0.00    +0.000 C 
ATOM     17  C   UNL     1      -1.289  10.907  19.289  0.00  0.00    +0.000 A 
ENDBRANCH  10  11
BRANCH   1  19
ATOM     18  N   UNL     1       4.406   5.391  17.560  0.00  0.00    +0.000 N 
ATOM     19  C   UNL     1       3.081   5.545  17.884  0.00  0.00    +0.000 C 
ATOM     20  O   UNL     1       2.246   4.658  17.729  0.00  0.00    +0.000 OA
ATOM     21  H   UNL     1       5.090   6.062  17.871  0.00  0.00    +0.000 HD
BRANCH  18  22
ATOM     22  C   UNL     1       4.893   4.115  17.061  0.00  0.00    +0.000 C 
BRANCH  22  28
ATOM     23  C   UNL     1       6.946   4.835  15.724  0.00  0.00    +0.000 A 
ATOM     24  C   UNL     1       7.638   4.890  14.507  0.00  0.00    +0.000 A 
ATOM     25  C   UNL     1       7.047   4.435  13.327  0.00  0.00    +0.000 A 
ATOM     26  C   UNL     1       5.768   3.899  13.358  0.00  0.00    +0.000 A 
ATOM     27  C   UNL     1       5.089   3.794  14.570  0.00  0.00    +0.000 A 
ATOM     28  C   UNL     1       5.664   4.255  15.777  0.00  0.00    +0.000 A 
BRANCH  23  30
ATOM     29  C   UNL     1       7.386   6.732  17.032  0.00  0.00    +0.000 C 
ATOM     30  O   UNL     1       7.468   5.315  16.898  0.00  0.00    +0.000 OA
ENDBRANCH  23  30
ENDBRANCH  22  28
ENDBRANCH  18  22
ENDBRANCH   1  19
TORSDOF 5
ENDMDL
MODEL 3
REMARK VINA RESULT:      -8.1      2.556      4.266
REMARK  Name = 
REMARK  8 active torsions:
REMARK  status: ('A' for Active; 'I' for Inactive)
REMARK    1  A    between atoms: C_1  and  O_2
REMARK    2  A    between atoms: O_2  and  C_3
REMARK    3  A    between atoms: C_8  and  C_9
REMARK    4  A    between atoms: C_9  and  N_10
REMARK    5  A    between atoms: C_11  and  C_13
REMARK    6  A    between atoms: C_20  and  C_21
REMARK    7  A    between atoms: N_22  and  C_23
REMARK    8  A    between atoms: C_27  and  C_28
REMARK                            x       y       z     vdW  Elec       q    Type
REMARK                         _______ _______ _______ _____ _____    ______ ____
ROOT
ATOM      1  C   UNL     1       0.812   8.969  20.308  0.00  0.00    +0.000 A 
ATOM      2  C   UNL     1       0.382   8.942  21.637  0.00  0.00    +0.000 A 
ATOM      3  C   UNL     1      -0.410   9.985  22.166  0.00  0.00    +0.000 A 
ATOM      4  C   UNL     1      -0.718  11.072  21.325  0.00  0.00    +0.000 A 
ATOM      5  C   UNL     1      -0.292  11.086  20.002  0.00  0.00    +0.000 A 
ATOM      6  C   UNL     1       0.426  10.019  19.469  0.00  0.00    +0.000 A 
ATOM      7  N   UNL     1      -0.568  12.266  19.399  0.00  0.00    +0.000 NA
ATOM      8  C   UNL     1      -0.980  13.072  20.359  0.00  0.00    +0.000 A 
ATOM      9  C   UNL     1      -1.081  14.537  20.101  0.00  0.00    +0.000 C 
ATOM     10  N   UNL     1      -1.258  12.352  21.529  0.00  0.00    +0.000 N 
ENDROOT
BRANCH  10  11
ATOM     11  C   UNL     1      -1.715  12.816  22.802  0.00  0.00    +0.000 A 
ATOM     12  C   UNL     1      -1.147  13.954  23.383  0.00  0.00    +0.000 A 
ATOM     13  C   UNL     1      -1.836  14.645  24.383  0.00  0.00    +0.000 A 
ATOM     14  C   UNL     1      -3.110  14.227  24.770  0.00  0.00    +0.000 A 
ATOM     15  C   UNL     1      -3.654  13.063  24.222  0.00  0.00    +0.000 A 
ATOM     16  C   UNL     1      -5.073  12.645  24.468  0.00  0.00    +0.000 C 
ATOM     17  C   UNL     1      -2.911  12.311  23.308  0.00  0.00    +0.000 A 
ENDBRANCH  10  11
BRANCH   1  19
ATOM     18  N   UNL     1       2.161   6.924  20.482  0.00  0.00    +0.000 N 
ATOM     19  C   UNL     1       1.830   8.037  19.750  0.00  0.00    +0.000 C 
ATOM     20  O   UNL     1       2.341   8.302  18.666  0.00  0.00    +0.000 OA
ATOM     21  H   UNL     1       1.594   6.639  21.266  0.00  0.00    +0.000 HD
BRANCH  18  22
ATOM     22  C   UNL     1       3.115   5.961  19.958  0.00  0.00    +0.000 C 
BRANCH  22  28
ATOM     23  C   UNL     1       2.785   4.138  18.201  0.00  0.00    +0.000 A 
ATOM     24  C   UNL     1       2.171   2.946  17.795  0.00  0.00    +0.000 A 
ATOM     25  C   UNL     1       1.179   2.351  18.577  0.00  0.00    +0.000 A 
ATOM     26  C   UNL     1       0.810   2.931  19.783  0.00  0.00    +0.000 A 
ATOM     27  C   UNL     1       1.449   4.089  20.219  0.00  0.00    +0.000 A 
ATOM     28  C   UNL     1       2.451   4.714  19.441  0.00  0.00    +0.000 A 
BRANCH  23  30
ATOM     29  C   UNL     1       4.498   3.914  16.612  0.00  0.00    +0.000 C 
ATOM     30  O   UNL     1       3.729   4.783  17.441  0.00  0.00    +0.000 OA
ENDBRANCH  23  30
ENDBRANCH  22  28
ENDBRANCH  18  22
ENDBRANCH   1  19
TORSDOF 5
ENDMDL
MODEL 4
REMARK VINA RESULT:      -8.0      2.399      9.358
REMARK  Name = 
REMARK  8 active torsions:
REMARK  status: ('A' for Active; 'I' for Inactive)
REMARK    1  A    between atoms: C_1  and  O_2
REMARK    2  A    between atoms: O_2  and  C_3
REMARK    3  A    between atoms: C_8  and  C_9
REMARK    4  A    between atoms: C_9  and  N_10
REMARK    5  A    between atoms: C_11  and  C_13
REMARK    6  A    between atoms: C_20  and  C_21
REMARK    7  A    between atoms: N_22  and  C_23
REMARK    8  A    between atoms: C_27  and  C_28
REMARK                            x       y       z     vdW  Elec       q    Type
REMARK                         _______ _______ _______ _____ _____    ______ ____
ROOT
ATOM      1  C   UNL     1       1.525   9.546  18.929  0.00  0.00    +0.000 A 
ATOM      2  C   UNL     1       2.446   9.200  17.937  0.00  0.00    +0.000 A 
ATOM      3  C   UNL     1       2.948   7.883  17.840  0.00  0.00    +0.000 A 
ATOM      4  C   UNL     1       2.526   6.942  18.798  0.00  0.00    +0.000 A 
ATOM      5  C   UNL     1       1.604   7.294  19.777  0.00  0.00    +0.000 A 
ATOM      6  C   UNL     1       1.058   8.574  19.819  0.00  0.00    +0.000 A 
ATOM      7  N   UNL     1       1.427   6.301  20.679  0.00  0.00    +0.000 NA
ATOM      8  C   UNL     1       2.357   5.404  20.412  0.00  0.00    +0.000 A 
ATOM      9  C   UNL     1       2.644   4.322  21.398  0.00  0.00    +0.000 C 
ATOM     10  N   UNL     1       2.950   5.655  19.167  0.00  0.00    +0.000 N 
ENDROOT
BRANCH  10  11
ATOM     11  C   UNL     1       3.995   4.950  18.492  0.00  0.00    +0.000 A 
ATOM     12  C   UNL     1       3.749   4.341  17.257  0.00  0.00    +0.000 A 
ATOM     13  C   UNL     1       4.815   4.023  16.412  0.00  0.00    +0.000 A 
ATOM     14  C   UNL     1       6.120   4.356  16.778  0.00  0.00    +0.000 A 
ATOM     15  C   UNL     1       6.366   4.920  18.032  0.00  0.00    +0.000 A 
ATOM     16  C   UNL     1       7.713   5.449  18.427  0.00  0.00    +0.000 C 
ATOM     17  C   UNL     1       5.308   5.128  18.920  0.00  0.00    +0.000 A 
ENDBRANCH  10  11
BRANCH   1  19
ATOM     18  N   UNL     1       0.003  11.155  19.990  0.00  0.00    +0.000 N 
ATOM     19  C   UNL     1       1.132  10.948  19.238  0.00  0.00    +0.000 C 
ATOM     20  O   UNL     1       1.825  11.864  18.802  0.00  0.00    +0.000 OA
ATOM     21  H   UNL     1      -0.429  10.391  20.485  0.00  0.00    +0.000 HD
BRANCH  18  22
ATOM     22  C   UNL     1      -0.394  12.505  20.356  0.00  0.00    +0.000 C 
BRANCH  22  28
ATOM     23  C   UNL     1      -1.517  11.918  22.573  0.00  0.00    +0.000 A 
ATOM     24  C   UNL     1      -2.619  12.014  23.433  0.00  0.00    +0.000 A 
ATOM     25  C   UNL     1      -3.791  12.651  23.025  0.00  0.00    +0.000 A 
ATOM     26  C   UNL     1      -3.864  13.218  21.760  0.00  0.00    +0.000 A 
ATOM     27  C   UNL     1      -2.758  13.171  20.914  0.00  0.00    +0.000 A 
ATOM     28  C   UNL     1      -1.563  12.524  21.303  0.00  0.00    +0.000 A 
BRANCH  23  30
ATOM     29  C   UNL     1      -0.555   9.883  23.236  0.00  0.00    +0.000 C 
ATOM     30  O   UNL     1      -0.363  11.259  22.914  0.00  0.00    +0.000 OA
ENDBRANCH  23  30
ENDBRANCH  22  28
ENDBRANCH  18  22
ENDBRANCH   1  19
TORSDOF 5
ENDMDL
MODEL 5
REMARK VINA RESULT:      -7.8      1.382      2.493
REMARK  Name = 
REMARK  8 active torsions:
REMARK  status: ('A' for Active; 'I' for Inactive)
REMARK    1  A    between atoms: C_1  and  O_2
REMARK    2  A    between atoms: O_2  and  C_3
REMARK    3  A    between atoms: C_8  and  C_9
REMARK    4  A    between atoms: C_9  and  N_10
REMARK    5  A    between atoms: C_11  and  C_13
REMARK    6  A    between atoms: C_20  and  C_21
REMARK    7  A    between atoms: N_22  and  C_23
REMARK    8  A    between atoms: C_27  and  C_28
REMARK                            x       y       z     vdW  Elec       q    Type
REMARK                         _______ _______ _______ _____ _____    ______ ____
ROOT
ATOM      1  C   UNL     1       1.944   7.105  19.753  0.00  0.00    +0.000 A 
ATOM      2  C   UNL     1       1.420   7.482  20.992  0.00  0.00    +0.000 A 
ATOM      3  C   UNL     1       0.945   8.794  21.212  0.00  0.00    +0.000 A 
ATOM      4  C   UNL     1       1.054   9.721  20.158  0.00  0.00    +0.000 A 
ATOM      5  C   UNL     1       1.570   9.335  18.926  0.00  0.00    +0.000 A 
ATOM      6  C   UNL     1       1.967   8.020  18.697  0.00  0.00    +0.000 A 
ATOM      7  N   UNL     1       1.719  10.390  18.092  0.00  0.00    +0.000 NA
ATOM      8  C   UNL     1       1.496  11.463  18.827  0.00  0.00    +0.000 A 
ATOM      9  C   UNL     1       1.870  12.808  18.303  0.00  0.00    +0.000 C 
ATOM     10  N   UNL     1       0.917  11.115  20.055  0.00  0.00    +0.000 N 
ENDROOT
BRANCH  10  11
ATOM     11  C   UNL     1       0.522  11.946  21.149  0.00  0.00    +0.000 A 
ATOM     12  C   UNL     1       0.979  13.265  21.232  0.00  0.00    +0.000 A 
ATOM     13  C   UNL     1       0.298  14.191  22.028  0.00  0.00    +0.000 A 
ATOM     14  C   UNL     1      -0.863  13.811  22.701  0.00  0.00    +0.000 A 
ATOM     15  C   UNL     1      -1.290  12.482  22.654  0.00  0.00    +0.000 A 
ATOM     16  C   UNL     1      -2.609  12.040  23.216  0.00  0.00    +0.000 C 
ATOM     17  C   UNL     1      -0.539  11.536  21.953  0.00  0.00    +0.000 A 
ENDBRANCH  10  11
BRANCH   1  19
ATOM     18  N   UNL     1       4.041   5.858  19.474  0.00  0.00    +0.000 N 
ATOM     19  C   UNL     1       2.670   5.827  19.518  0.00  0.00    +0.000 C 
ATOM     20  O   UNL     1       2.017   4.798  19.362  0.00  0.00    +0.000 OA
ATOM     21  H   UNL     1       4.545   6.671  19.791  0.00  0.00    +0.000 HD
BRANCH  18  22
ATOM     22  C   UNL     1       4.795   4.628  19.294  0.00  0.00    +0.000 C 
BRANCH  22  28
ATOM     23  C   UNL     1       6.810   4.668  17.726  0.00  0.00    +0.000 A 
ATOM     24  C   UNL     1       7.344   4.516  16.440  0.00  0.00    +0.000 A 
ATOM     25  C   UNL     1       6.513   4.296  15.341  0.00  0.00    +0.000 A 
ATOM     26  C   UNL     1       5.140   4.202  15.523  0.00  0.00    +0.000 A 
ATOM     27  C   UNL     1       4.601   4.302  16.803  0.00  0.00    +0.000 A 
ATOM     28  C   UNL     1       5.423   4.533  17.930  0.00  0.00    +0.000 A 
BRANCH  23  30
ATOM     29  C   UNL     1       7.976   6.300  18.943  0.00  0.00    +0.000 C 
ATOM     30  O   UNL     1       7.585   4.933  18.827  0.00  0.00    +0.000 OA
ENDBRANCH  23  30
ENDBRANCH  22  28
ENDBRANCH  18  22
ENDBRANCH   1  19
TORSDOF 5
ENDMDL
MODEL 6
REMARK VINA RESULT:      -7.8      1.276      1.610
REMARK  Name = 
REMARK  8 active torsions:
REMARK  status: ('A' for Active; 'I' for Inactive)
REMARK    1  A    between atoms: C_1  and  O_2
REMARK    2  A    between atoms: O_2  and  C_3
REMARK    3  A    between atoms: C_8  and  C_9
REMARK    4  A    between atoms: C_9  and  N_10
REMARK    5  A    between atoms: C_11  and  C_13
REMARK    6  A    between atoms: C_20  and  C_21
REMARK    7  A    between atoms: N_22  and  C_23
REMARK    8  A    between atoms: C_27  and  C_28
REMARK                            x       y       z     vdW  Elec       q    Type
REMARK                         _______ _______ _______ _____ _____    ______ ____
ROOT
ATOM      1  C   UNL     1       2.630   6.802  18.408  0.00  0.00    +0.000 A 
ATOM      2  C   UNL     1       2.340   7.923  17.628  0.00  0.00    +0.000 A 
ATOM      3  C   UNL     1       1.748   9.072  18.199  0.00  0.00    +0.000 A 
ATOM      4  C   UNL     1       1.421   9.036  19.568  0.00  0.00    +0.000 A 
ATOM      5  C   UNL     1       1.720   7.918  20.337  0.00  0.00    +0.000 A 
ATOM      6  C   UNL     1       2.370   6.819  19.782  0.00  0.00    +0.000 A 
ATOM      7  N   UNL     1       1.211   8.019  21.587  0.00  0.00    +0.000 NA
ATOM      8  C   UNL     1       0.430   9.082  21.572  0.00  0.00    +0.000 A 
ATOM      9  C   UNL     1      -0.523   9.315  22.695  0.00  0.00    +0.000 C 
ATOM     10  N   UNL     1       0.650   9.846  20.417  0.00  0.00    +0.000 N 
ENDROOT
BRANCH  10  11
ATOM     11  C   UNL     1       0.026  11.059  19.989  0.00  0.00    +0.000 A 
ATOM     12  C   UNL     1      -1.181  11.020  19.284  0.00  0.00    +0.000 A 
ATOM     13  C   UNL     1      -1.994  12.155  19.228  0.00  0.00    +0.000 A 
ATOM     14  C   UNL     1      -1.624  13.313  19.914  0.00  0.00    +0.000 A 
ATOM     15  C   UNL     1      -0.396  13.364  20.577  0.00  0.00    +0.000 A 
ATOM     16  C   UNL     1      -0.007  14.510  21.464  0.00  0.00    +0.000 C 
ATOM     17  C   UNL     1       0.465  12.265  20.531  0.00  0.00    +0.000 A 
ENDBRANCH  10  11
BRANCH   1  19
ATOM     18  N   UNL     1       4.227   5.403  17.174  0.00  0.00    +0.000 N 
ATOM     19  C   UNL     1       3.032   5.484  17.843  0.00  0.00    +0.000 C 
ATOM     20  O   UNL     1       2.278   4.526  17.987  0.00  0.00    +0.000 OA
ATOM     21  H   UNL     1       4.901   6.150  17.236  0.00  0.00    +0.000 HD
BRANCH  18  22
ATOM     22  C   UNL     1       4.684   4.128  16.645  0.00  0.00    +0.000 C 
BRANCH  22  28
ATOM     23  C   UNL     1       6.872   4.843  15.539  0.00  0.00    +0.000 A 
ATOM     24  C   UNL     1       7.682   4.919  14.399  0.00  0.00    +0.000 A 
ATOM     25  C   UNL     1       7.203   4.511  13.154  0.00  0.00    +0.000 A 
ATOM     26  C   UNL     1       5.917   4.001  13.041  0.00  0.00    +0.000 A 
ATOM     27  C   UNL     1       5.120   3.875  14.176  0.00  0.00    +0.000 A 
ATOM     28  C   UNL     1       5.581   4.290  15.448  0.00  0.00    +0.000 A 
BRANCH  23  30
ATOM     29  C   UNL     1       7.291   6.697  16.916  0.00  0.00    +0.000 C 
ATOM     30  O   UNL     1       7.283   5.278  16.774  0.00  0.00    +0.000 OA
ENDBRANCH  23  30
ENDBRANCH  22  28
ENDBRANCH  18  22
ENDBRANCH   1  19
TORSDOF 5
ENDMDL
MODEL 7
REMARK VINA RESULT:      -7.8      2.382      3.856
REMARK  Name = 
REMARK  8 active torsions:
REMARK  status: ('A' for Active; 'I' for Inactive)
REMARK    1  A    between atoms: C_1  and  O_2
REMARK    2  A    between atoms: O_2  and  C_3
REMARK    3  A    between atoms: C_8  and  C_9
REMARK    4  A    between atoms: C_9  and  N_10
REMARK    5  A    between atoms: C_11  and  C_13
REMARK    6  A    between atoms: C_20  and  C_21
REMARK    7  A    between atoms: N_22  and  C_23
REMARK    8  A    between atoms: C_27  and  C_28
REMARK                            x       y       z     vdW  Elec       q    Type
REMARK                         _______ _______ _______ _____ _____    ______ ____
ROOT
ATOM      1  C   UNL     1       1.344   8.573  19.653  0.00  0.00    +0.000 A 
ATOM      2  C   UNL     1       0.811   8.544  20.944  0.00  0.00    +0.000 A 
ATOM      3  C   UNL     1      -0.040   9.575  21.403  0.00  0.00    +0.000 A 
ATOM      4  C   UNL     1      -0.299  10.653  20.534  0.00  0.00    +0.000 A 
ATOM      5  C   UNL     1       0.231  10.669  19.249  0.00  0.00    +0.000 A 
ATOM      6  C   UNL     1       1.007   9.613  18.781  0.00  0.00    +0.000 A 
ATOM      7  N   UNL     1      -0.017  11.841  18.621  0.00  0.00    +0.000 NA
ATOM      8  C   UNL     1      -0.519  12.643  19.540  0.00  0.00    +0.000 A 
ATOM      9  C   UNL     1      -0.625  14.106  19.267  0.00  0.00    +0.000 C 
ATOM     10  N   UNL     1      -0.876  11.923  20.689  0.00  0.00    +0.000 N 
ENDROOT
BRANCH  10  11
ATOM     11  C   UNL     1      -1.441  12.384  21.919  0.00  0.00    +0.000 A 
ATOM     12  C   UNL     1      -0.716  13.244  22.749  0.00  0.00    +0.000 A 
ATOM     13  C   UNL     1      -1.380  14.014  23.708  0.00  0.00    +0.000 A 
ATOM     14  C   UNL     1      -2.771  13.959  23.805  0.00  0.00    +0.000 A 
ATOM     15  C   UNL     1      -3.488  13.063  23.008  0.00  0.00    +0.000 A 
ATOM     16  C   UNL     1      -4.986  13.064  22.943  0.00  0.00    +0.000 C 
ATOM     17  C   UNL     1      -2.807  12.212  22.134  0.00  0.00    +0.000 A 
ENDBRANCH  10  11
BRANCH   1  19
ATOM     18  N   UNL     1       2.826   6.650  20.021  0.00  0.00    +0.000 N 
ATOM     19  C   UNL     1       2.419   7.658  19.183  0.00  0.00    +0.000 C 
ATOM     20  O   UNL     1       2.908   7.844  18.072  0.00  0.00    +0.000 OA
ATOM     21  H   UNL     1       2.282   6.411  20.836  0.00  0.00    +0.000 HD
BRANCH  18  22
ATOM     22  C   UNL     1       3.840   5.703  19.588  0.00  0.00    +0.000 C 
BRANCH  22  28
ATOM     23  C   UNL     1       2.558   3.501  19.748  0.00  0.00    +0.000 A 
ATOM     24  C   UNL     1       1.980   2.389  19.120  0.00  0.00    +0.000 A 
ATOM     25  C   UNL     1       2.132   2.184  17.748  0.00  0.00    +0.000 A 
ATOM     26  C   UNL     1       2.844   3.101  16.988  0.00  0.00    +0.000 A 
ATOM     27  C   UNL     1       3.381   4.235  17.593  0.00  0.00    +0.000 A 
ATOM     28  C   UNL     1       3.247   4.460  18.982  0.00  0.00    +0.000 A 
BRANCH  23  30
ATOM     29  C   UNL     1       1.615   2.804  21.781  0.00  0.00    +0.000 C 
ATOM     30  O   UNL     1       2.475   3.717  21.100  0.00  0.00    +0.000 OA
ENDBRANCH  23  30
ENDBRANCH  22  28
ENDBRANCH  18  22
ENDBRANCH   1  19
TORSDOF 5
ENDMDL
MODEL 8
REMARK VINA RESULT:      -7.7      2.441      9.295
REMARK  Name = 
REMARK  8 active torsions:
REMARK  status: ('A' for Active; 'I' for Inactive)
REMARK    1  A    between atoms: C_1  and  O_2
REMARK    2  A    between atoms: O_2  and  C_3
REMARK    3  A    between atoms: C_8  and  C_9
REMARK    4  A    between atoms: C_9  and  N_10
REMARK    5  A    between atoms: C_11  and  C_13
REMARK    6  A    between atoms: C_20  and  C_21
REMARK    7  A    between atoms: N_22  and  C_23
REMARK    8  A    between atoms: C_27  and  C_28
REMARK                            x       y       z     vdW  Elec       q    Type
REMARK                         _______ _______ _______ _____ _____    ______ ____
ROOT
ATOM      1  C   UNL     1       1.351   8.178  20.370  0.00  0.00    +0.000 A 
ATOM      2  C   UNL     1       2.176   8.231  19.245  0.00  0.00    +0.000 A 
ATOM      3  C   UNL     1       2.768   7.060  18.721  0.00  0.00    +0.000 A 
ATOM      4  C   UNL     1       2.535   5.845  19.393  0.00  0.00    +0.000 A 
ATOM      5  C   UNL     1       1.707   5.801  20.509  0.00  0.00    +0.000 A 
ATOM      6  C   UNL     1       1.069   6.948  20.973  0.00  0.00    +0.000 A 
ATOM      7  N   UNL     1       1.715   4.579  21.091  0.00  0.00    +0.000 NA
ATOM      8  C   UNL     1       2.677   3.903  20.492  0.00  0.00    +0.000 A 
ATOM      9  C   UNL     1       3.161   2.624  21.088  0.00  0.00    +0.000 C 
ATOM     10  N   UNL     1       3.101   4.562  19.330  0.00  0.00    +0.000 N 
ENDROOT
BRANCH  10  11
ATOM     11  C   UNL     1       4.114   4.197  18.389  0.00  0.00    +0.000 A 
ATOM     12  C   UNL     1       3.776   3.929  17.059  0.00  0.00    +0.000 A 
ATOM     13  C   UNL     1       4.757   3.984  16.065  0.00  0.00    +0.000 A 
ATOM     14  C   UNL     1       6.063   4.350  16.393  0.00  0.00    +0.000 A 
ATOM     15  C   UNL     1       6.407   4.570  17.728  0.00  0.00    +0.000 A 
ATOM     16  C   UNL     1       7.742   5.120  18.136  0.00  0.00    +0.000 C 
ATOM     17  C   UNL     1       5.449   4.399  18.730  0.00  0.00    +0.000 A 
ENDBRANCH  10  11
BRANCH   1  19
ATOM     18  N   UNL     1       0.856  10.582  20.445  0.00  0.00    +0.000 N 
ATOM     19  C   UNL     1       0.885   9.383  21.111  0.00  0.00    +0.000 C 
ATOM     20  O   UNL     1       0.556   9.260  22.288  0.00  0.00    +0.000 OA
ATOM     21  H   UNL     1       0.949  10.613  19.442  0.00  0.00    +0.000 HD
BRANCH  18  22
ATOM     22  C   UNL     1       0.365  11.777  21.113  0.00  0.00    +0.000 C 
BRANCH  22  28
ATOM     23  C   UNL     1      -1.633  11.865  19.526  0.00  0.00    +0.000 A 
ATOM     24  C   UNL     1      -3.000  12.089  19.314  0.00  0.00    +0.000 A 
ATOM     25  C   UNL     1      -3.815  12.560  20.343  0.00  0.00    +0.000 A 
ATOM     26  C   UNL     1      -3.276  12.790  21.601  0.00  0.00    +0.000 A 
ATOM     27  C   UNL     1      -1.929  12.524  21.837  0.00  0.00    +0.000 A 
ATOM     28  C   UNL     1      -1.082  12.054  20.807  0.00  0.00    +0.000 A 
BRANCH  23  30
ATOM     29  C   UNL     1      -1.285  10.355  17.764  0.00  0.00    +0.000 C 
ATOM     30  O   UNL     1      -0.785  11.449  18.531  0.00  0.00    +0.000 OA
ENDBRANCH  23  30
ENDBRANCH  22  28
ENDBRANCH  18  22
ENDBRANCH   1  19
TORSDOF 5
ENDMDL
MODEL 9
REMARK VINA RESULT:      -7.7      3.238      9.573
REMARK  Name = 
REMARK  8 active torsions:
REMARK  status: ('A' for Active; 'I' for Inactive)
REMARK    1  A    between atoms: C_1  and  O_2
REMARK    2  A    between atoms: O_2  and  C_3
REMARK    3  A    between atoms: C_8  and  C_9
REMARK    4  A    between atoms: C_9  and  N_10
REMARK    5  A    between atoms: C_11  and  C_13
REMARK    6  A    between atoms: C_20  and  C_21
REMARK    7  A    between atoms: N_22  and  C_23
REMARK    8  A    between atoms: C_27  and  C_28
REMARK                            x       y       z     vdW  Elec       q    Type
REMARK                         _______ _______ _______ _____ _____    ______ ____
ROOT
ATOM      1  C   UNL     1       0.672  10.040  19.690  0.00  0.00    +0.000 A 
ATOM      2  C   UNL     1       0.413   9.164  20.747  0.00  0.00    +0.000 A 
ATOM      3  C   UNL     1       1.079   7.922  20.841  0.00  0.00    +0.000 A 
ATOM      4  C   UNL     1       1.979   7.576  19.815  0.00  0.00    +0.000 A 
ATOM      5  C   UNL     1       2.236   8.457  18.772  0.00  0.00    +0.000 A 
ATOM      6  C   UNL     1       1.630   9.710  18.727  0.00  0.00    +0.000 A 
ATOM      7  N   UNL     1       3.019   7.895  17.822  0.00  0.00    +0.000 NA
ATOM      8  C   UNL     1       3.105   6.617  18.138  0.00  0.00    +0.000 A 
ATOM      9  C   UNL     1       3.643   5.644  17.144  0.00  0.00    +0.000 C 
ATOM     10  N   UNL     1       2.634   6.392  19.439  0.00  0.00    +0.000 N 
ENDROOT
BRANCH  10  11
ATOM     11  C   UNL     1       2.536   5.172  20.179  0.00  0.00    +0.000 A 
ATOM     12  C   UNL     1       1.289   4.711  20.613  0.00  0.00    +0.000 A 
ATOM     13  C   UNL     1       1.123   3.365  20.954  0.00  0.00    +0.000 A 
ATOM     14  C   UNL     1       2.188   2.475  20.817  0.00  0.00    +0.000 A 
ATOM     15  C   UNL     1       3.444   2.948  20.430  0.00  0.00    +0.000 A 
ATOM     16  C   UNL     1       4.586   2.031  20.107  0.00  0.00    +0.000 C 
ATOM     17  C   UNL     1       3.632   4.314  20.203  0.00  0.00    +0.000 A 
ENDBRANCH  10  11
BRANCH   1  19
ATOM     18  N   UNL     1      -1.439  11.283  19.863  0.00  0.00    +0.000 N 
ATOM     19  C   UNL     1      -0.149  11.248  19.398  0.00  0.00    +0.000 C 
ATOM     20  O   UNL     1       0.354  12.159  18.746  0.00  0.00    +0.000 OA
ATOM     21  H   UNL     1      -1.756  10.613  20.546  0.00  0.00    +0.000 HD
BRANCH  18  22
ATOM     22  C   UNL     1      -2.264  12.460  19.642  0.00  0.00    +0.000 C 
BRANCH  22  28
ATOM     23  C   UNL     1      -3.785  11.563  17.798  0.00  0.00    +0.000 A 
ATOM     24  C   UNL     1      -5.066  11.216  17.349  0.00  0.00    +0.000 A 
ATOM     25  C   UNL     1      -6.192  11.471  18.133  0.00  0.00    +0.000 A 
ATOM     26  C   UNL     1      -6.044  12.056  19.383  0.00  0.00    +0.000 A 
ATOM     27  C   UNL     1      -4.772  12.360  19.860  0.00  0.00    +0.000 A 
ATOM     28  C   UNL     1      -3.617  12.118  19.081  0.00  0.00    +0.000 A 
BRANCH  23  30
ATOM     29  C   UNL     1      -2.427  10.016  16.671  0.00  0.00    +0.000 C 
ATOM     30  O   UNL     1      -2.656  11.375  17.041  0.00  0.00    +0.000 OA
ENDBRANCH  23  30
ENDBRANCH  22  28
ENDBRANCH  18  22
ENDBRANCH   1  19
TORSDOF 5
ENDMDL
