MODEL 1
REMARK VINA RESULT:      -5.6      0.000      0.000
REMARK  Name = 
REMARK  4 active torsions:
REMARK  status: ('A' for Active; 'I' for Inactive)
REMARK    1  A    between atoms: C_1  and  C_2
REMARK    2  A    between atoms: C_7  and  C_8
REMARK    3  A    between atoms: C_7  and  C_9
REMARK    4  A    between atoms: C_10  and  O_11
REMARK                            x       y       z     vdW  Elec       q    Type
REMARK                         _______ _______ _______ _____ _____    ______ ____
ROOT
ATOM      1  C   UNL     1       6.291   3.826  14.686  0.00  0.00    +0.000 C 
ATOM      2  C   UNL     1       5.998   4.648  15.915  0.00  0.00    +0.000 C 
ATOM      3  C   UNL     1       4.735   4.855  16.299  0.00  0.00    +0.000 C 
ATOM      4  C   UNL     1       4.393   5.678  17.463  0.00  0.00    +0.000 C 
ATOM      5  O   UNL     1       3.207   5.801  17.766  0.00  0.00    +0.000 OA
ATOM      6  C   UNL     1       5.472   6.359  18.262  0.00  0.00    +0.000 C 
ATOM      7  C   UNL     1       6.954   6.154  17.850  0.00  0.00    +0.000 C 
ATOM      8  C   UNL     1       7.526   7.548  17.492  0.00  0.00    +0.000 C 
ATOM      9  C   UNL     1       7.722   5.662  19.104  0.00  0.00    +0.000 C 
ATOM     10  C   UNL     1       7.197   5.218  16.619  0.00  0.00    +0.000 C 
ENDROOT
BRANCH  10  11
ATOM     11  O   UNL     1       8.043   4.120  16.964  0.00  0.00    +0.000 OA
ATOM     12  H   UNL     1       8.222   3.617  16.151  0.00  0.00    +0.000 HD
ENDBRANCH  10  11
TORSDOF 1
ENDMDL
MODEL 2
REMARK VINA RESULT:      -5.5      3.584      5.327
REMARK  Name = 
REMARK  4 active torsions:
REMARK  status: ('A' for Active; 'I' for Inactive)
REMARK    1  A    between atoms: C_1  and  C_2
REMARK    2  A    between atoms: C_7  and  C_8
REMARK    3  A    between atoms: C_7  and  C_9
REMARK    4  A    between atoms: C_10  and  O_11
REMARK                            x       y       z     vdW  Elec       q    Type
REMARK                         _______ _______ _______ _____ _____    ______ ____
ROOT
ATOM      1  C   UNL     1       4.497   4.754  16.727  0.00  0.00    +0.000 C 
ATOM      2  C   UNL     1       3.950   4.043  17.938  0.00  0.00    +0.000 C 
ATOM      3  C   UNL     1       4.754   3.294  18.698  0.00  0.00    +0.000 C 
ATOM      4  C   UNL     1       4.266   2.552  19.864  0.00  0.00    +0.000 C 
ATOM      5  O   UNL     1       5.075   1.904  20.527  0.00  0.00    +0.000 OA
ATOM      6  C   UNL     1       2.808   2.581  20.233  0.00  0.00    +0.000 C 
ATOM      7  C   UNL     1       1.833   3.431  19.377  0.00  0.00    +0.000 C 
ATOM      8  C   UNL     1       0.784   2.460  18.778  0.00  0.00    +0.000 C 
ATOM      9  C   UNL     1       1.070   4.377  20.340  0.00  0.00    +0.000 C 
ATOM     10  C   UNL     1       2.477   4.216  18.186  0.00  0.00    +0.000 C 
ENDROOT
BRANCH  10  11
ATOM     11  O   UNL     1       2.231   5.617  18.297  0.00  0.00    +0.000 OA
ATOM     12  H   UNL     1       1.784   5.775  19.146  0.00  0.00    +0.000 HD
ENDBRANCH  10  11
TORSDOF 1
ENDMDL
MODEL 3
REMARK VINA RESULT:      -5.5      1.780      3.760
REMARK  Name = 
REMARK  4 active torsions:
REMARK  status: ('A' for Active; 'I' for Inactive)
REMARK    1  A    between atoms: C_1  and  C_2
REMARK    2  A    between atoms: C_7  and  C_8
REMARK    3  A    between atoms: C_7  and  C_9
REMARK    4  A    between atoms: C_10  and  O_11
REMARK                            x       y       z     vdW  Elec       q    Type
REMARK                         _______ _______ _______ _____ _____    ______ ____
ROOT
ATOM      1  C   UNL     1       7.806   5.554  19.612  0.00  0.00    +0.000 C 
ATOM      2  C   UNL     1       6.967   5.296  18.386  0.00  0.00    +0.000 C 
ATOM      3  C   UNL     1       7.472   5.515  17.169  0.00  0.00    +0.000 C 
ATOM      4  C   UNL     1       6.687   5.317  15.946  0.00  0.00    +0.000 C 
ATOM      5  O   UNL     1       7.232   5.517  14.861  0.00  0.00    +0.000 OA
ATOM      6  C   UNL     1       5.248   4.884  16.023  0.00  0.00    +0.000 C 
ATOM      7  C   UNL     1       4.615   4.625  17.415  0.00  0.00    +0.000 C 
ATOM      8  C   UNL     1       3.436   5.617  17.574  0.00  0.00    +0.000 C 
ATOM      9  C   UNL     1       4.003   3.200  17.390  0.00  0.00    +0.000 C 
ATOM     10  C   UNL     1       5.563   4.824  18.644  0.00  0.00    +0.000 C 
ENDROOT
BRANCH  10  11
ATOM     11  O   UNL     1       5.658   3.633  19.424  0.00  0.00    +0.000 OA
ATOM     12  H   UNL     1       5.124   2.948  18.987  0.00  0.00    +0.000 HD
ENDBRANCH  10  11
TORSDOF 1
ENDMDL
MODEL 4
REMARK VINA RESULT:      -5.4      1.791      3.269
REMARK  Name = 
REMARK  4 active torsions:
REMARK  status: ('A' for Active; 'I' for Inactive)
REMARK    1  A    between atoms: C_1  and  C_2
REMARK    2  A    between atoms: C_7  and  C_8
REMARK    3  A    between atoms: C_7  and  C_9
REMARK    4  A    between atoms: C_10  and  O_11
REMARK                            x       y       z     vdW  Elec       q    Type
REMARK                         _______ _______ _______ _____ _____    ______ ____
ROOT
ATOM      1  C   UNL     1       7.245   4.845  15.185  0.00  0.00    +0.000 C 
ATOM      2  C   UNL     1       6.533   5.172  16.472  0.00  0.00    +0.000 C 
ATOM      3  C   UNL     1       7.167   5.048  17.641  0.00  0.00    +0.000 C 
ATOM      4  C   UNL     1       6.509   5.316  18.924  0.00  0.00    +0.000 C 
ATOM      5  O   UNL     1       7.169   5.202  19.956  0.00  0.00    +0.000 OA
ATOM      6  C   UNL     1       5.059   5.716  18.971  0.00  0.00    +0.000 C 
ATOM      7  C   UNL     1       4.278   5.867  17.639  0.00  0.00    +0.000 C 
ATOM      8  C   UNL     1       3.114   4.845  17.673  0.00  0.00    +0.000 C 
ATOM      9  C   UNL     1       3.636   7.279  17.633  0.00  0.00    +0.000 C 
ATOM     10  C   UNL     1       5.098   5.599  16.333  0.00  0.00    +0.000 C 
ENDROOT
BRANCH  10  11
ATOM     11  O   UNL     1       5.080   6.735  15.469  0.00  0.00    +0.000 OA
ATOM     12  H   UNL     1       5.748   7.364  15.791  0.00  0.00    +0.000 HD
ENDBRANCH  10  11
TORSDOF 1
ENDMDL
MODEL 5
REMARK VINA RESULT:      -5.4      1.772      3.558
REMARK  Name = 
REMARK  4 active torsions:
REMARK  status: ('A' for Active; 'I' for Inactive)
REMARK    1  A    between atoms: C_1  and  C_2
REMARK    2  A    between atoms: C_7  and  C_8
REMARK    3  A    between atoms: C_7  and  C_9
REMARK    4  A    between atoms: C_10  and  O_11
REMARK                            x       y       z     vdW  Elec       q    Type
REMARK                         _______ _______ _______ _____ _____    ______ ____
ROOT
ATOM      1  C   UNL     1       7.788   6.924  18.086  0.00  0.00    +0.000 C 
ATOM      2  C   UNL     1       6.839   5.859  17.602  0.00  0.00    +0.000 C 
ATOM      3  C   UNL     1       7.017   5.293  16.405  0.00  0.00    +0.000 C 
ATOM      4  C   UNL     1       6.101   4.280  15.871  0.00  0.00    +0.000 C 
ATOM      5  O   UNL     1       6.348   3.789  14.770  0.00  0.00    +0.000 OA
ATOM      6  C   UNL     1       4.887   3.859  16.653  0.00  0.00    +0.000 C 
ATOM      7  C   UNL     1       4.633   4.493  18.046  0.00  0.00    +0.000 C 
ATOM      8  C   UNL     1       3.274   5.234  17.971  0.00  0.00    +0.000 C 
ATOM      9  C   UNL     1       4.457   3.334  19.061  0.00  0.00    +0.000 C 
ATOM     10  C   UNL     1       5.703   5.528  18.530  0.00  0.00    +0.000 C 
ENDROOT
BRANCH  10  11
ATOM     11  O   UNL     1       6.279   5.132  19.774  0.00  0.00    +0.000 OA
ATOM     12  H   UNL     1       6.044   4.200  19.928  0.00  0.00    +0.000 HD
ENDBRANCH  10  11
TORSDOF 1
ENDMDL
MODEL 6
REMARK VINA RESULT:      -5.3      3.390      5.102
REMARK  Name = 
REMARK  4 active torsions:
REMARK  status: ('A' for Active; 'I' for Inactive)
REMARK    1  A    between atoms: C_1  and  C_2
REMARK    2  A    between atoms: C_7  and  C_8
REMARK    3  A    between atoms: C_7  and  C_9
REMARK    4  A    between atoms: C_10  and  O_11
REMARK                            x       y       z     vdW  Elec       q    Type
REMARK                         _______ _______ _______ _____ _____    ______ ____
ROOT
ATOM      1  C   UNL     1       0.653   3.566  20.184  0.00  0.00    +0.000 C 
ATOM      2  C   UNL     1       2.083   3.490  19.714  0.00  0.00    +0.000 C 
ATOM      3  C   UNL     1       2.955   2.698  20.343  0.00  0.00    +0.000 C 
ATOM      4  C   UNL     1       4.366   2.615  19.951  0.00  0.00    +0.000 C 
ATOM      5  O   UNL     1       5.101   1.843  20.565  0.00  0.00    +0.000 OA
ATOM      6  C   UNL     1       4.898   3.462  18.826  0.00  0.00    +0.000 C 
ATOM      7  C   UNL     1       3.924   4.404  18.070  0.00  0.00    +0.000 C 
ATOM      8  C   UNL     1       4.442   5.851  18.266  0.00  0.00    +0.000 C 
ATOM      9  C   UNL     1       4.047   4.084  16.557  0.00  0.00    +0.000 C 
ATOM     10  C   UNL     1       2.434   4.372  18.548  0.00  0.00    +0.000 C 
ENDROOT
BRANCH  10  11
ATOM     11  O   UNL     1       1.555   4.023  17.478  0.00  0.00    +0.000 OA
ATOM     12  H   UNL     1       1.866   3.183  17.100  0.00  0.00    +0.000 HD
ENDBRANCH  10  11
TORSDOF 1
ENDMDL
MODEL 7
REMARK VINA RESULT:      -5.3      3.507      5.024
REMARK  Name = 
REMARK  4 active torsions:
REMARK  status: ('A' for Active; 'I' for Inactive)
REMARK    1  A    between atoms: C_1  and  C_2
REMARK    2  A    between atoms: C_7  and  C_8
REMARK    3  A    between atoms: C_7  and  C_9
REMARK    4  A    between atoms: C_10  and  O_11
REMARK                            x       y       z     vdW  Elec       q    Type
REMARK                         _______ _______ _______ _____ _____    ______ ____
ROOT
ATOM      1  C   UNL     1       1.474   2.750  21.552  0.00  0.00    +0.000 C 
ATOM      2  C   UNL     1       2.124   3.754  20.635  0.00  0.00    +0.000 C 
ATOM      3  C   UNL     1       1.812   5.049  20.727  0.00  0.00    +0.000 C 
ATOM      4  C   UNL     1       2.385   6.061  19.835  0.00  0.00    +0.000 C 
ATOM      5  O   UNL     1       2.065   7.238  20.000  0.00  0.00    +0.000 OA
ATOM      6  C   UNL     1       3.340   5.664  18.742  0.00  0.00    +0.000 C 
ATOM      7  C   UNL     1       3.728   4.170  18.590  0.00  0.00    +0.000 C 
ATOM      8  C   UNL     1       3.267   3.718  17.181  0.00  0.00    +0.000 C 
ATOM      9  C   UNL     1       5.277   4.087  18.603  0.00  0.00    +0.000 C 
ATOM     10  C   UNL     1       3.088   3.189  19.628  0.00  0.00    +0.000 C 
ENDROOT
BRANCH  10  11
ATOM     11  O   UNL     1       4.090   2.481  20.357  0.00  0.00    +0.000 OA
ATOM     12  H   UNL     1       4.954   2.712  19.975  0.00  0.00    +0.000 HD
ENDBRANCH  10  11
TORSDOF 1
ENDMDL
MODEL 8
REMARK VINA RESULT:      -5.3      3.353      5.500
REMARK  Name = 
REMARK  4 active torsions:
REMARK  status: ('A' for Active; 'I' for Inactive)
REMARK    1  A    between atoms: C_1  and  C_2
REMARK    2  A    between atoms: C_7  and  C_8
REMARK    3  A    between atoms: C_7  and  C_9
REMARK    4  A    between atoms: C_10  and  O_11
REMARK                            x       y       z     vdW  Elec       q    Type
REMARK                         _______ _______ _______ _____ _____    ______ ____
ROOT
ATOM      1  C   UNL     1       2.497   7.150  18.584  0.00  0.00    +0.000 C 
ATOM      2  C   UNL     1       3.036   5.806  19.002  0.00  0.00    +0.000 C 
ATOM      3  C   UNL     1       4.326   5.512  18.818  0.00  0.00    +0.000 C 
ATOM      4  C   UNL     1       4.892   4.207  19.171  0.00  0.00    +0.000 C 
ATOM      5  O   UNL     1       6.095   4.023  18.994  0.00  0.00    +0.000 OA
ATOM      6  C   UNL     1       4.016   3.120  19.733  0.00  0.00    +0.000 C 
ATOM      7  C   UNL     1       2.509   3.411  19.957  0.00  0.00    +0.000 C 
ATOM      8  C   UNL     1       1.714   2.417  19.073  0.00  0.00    +0.000 C 
ATOM      9  C   UNL     1       2.181   3.061  21.432  0.00  0.00    +0.000 C 
ATOM     10  C   UNL     1       2.029   4.854  19.586  0.00  0.00    +0.000 C 
ENDROOT
BRANCH  10  11
ATOM     11  O   UNL     1       1.436   5.507  20.708  0.00  0.00    +0.000 OA
ATOM     12  H   UNL     1       0.560   5.110  20.855  0.00  0.00    +0.000 HD
ENDBRANCH  10  11
TORSDOF 1
ENDMDL
MODEL 9
REMARK VINA RESULT:      -5.3      3.449      5.257
REMARK  Name = 
REMARK  4 active torsions:
REMARK  status: ('A' for Active; 'I' for Inactive)
REMARK    1  A    between atoms: C_1  and  C_2
REMARK    2  A    between atoms: C_7  and  C_8
REMARK    3  A    between atoms: C_7  and  C_9
REMARK    4  A    between atoms: C_10  and  O_11
REMARK                            x       y       z     vdW  Elec       q    Type
REMARK                         _______ _______ _______ _____ _____    ______ ____
ROOT
ATOM      1  C   UNL     1       1.733   3.001  21.775  0.00  0.00    +0.000 C 
ATOM      2  C   UNL     1       2.186   3.444  20.408  0.00  0.00    +0.000 C 
ATOM      3  C   UNL     1       1.979   2.662  19.345  0.00  0.00    +0.000 C 
ATOM      4  C   UNL     1       2.433   3.027  18.000  0.00  0.00    +0.000 C 
ATOM      5  O   UNL     1       2.182   2.264  17.069  0.00  0.00    +0.000 OA
ATOM      6  C   UNL     1       3.192   4.306  17.770  0.00  0.00    +0.000 C 
ATOM      7  C   UNL     1       3.464   5.245  18.975  0.00  0.00    +0.000 C 
ATOM      8  C   UNL     1       5.001   5.360  19.128  0.00  0.00    +0.000 C 
ATOM      9  C   UNL     1       2.943   6.655  18.594  0.00  0.00    +0.000 C 
ATOM     10  C   UNL     1       2.891   4.771  20.353  0.00  0.00    +0.000 C 
ENDROOT
BRANCH  10  11
ATOM     11  O   UNL     1       2.002   5.742  20.905  0.00  0.00    +0.000 OA
ATOM     12  H   UNL     1       1.989   6.508  20.306  0.00  0.00    +0.000 HD
ENDBRANCH  10  11
TORSDOF 1
ENDMDL
