MODEL 1
REMARK VINA RESULT:      -8.5      0.000      0.000
REMARK  Name = 
REMARK  9 active torsions:
REMARK  status: ('A' for Active; 'I' for Inactive)
REMARK    1  A    between atoms: N_1  and  C_2
REMARK    2  A    between atoms: N_10  and  C_11
REMARK    3  A    between atoms: C_13  and  C_14
REMARK    4  A    between atoms: C_14  and  O_15
REMARK    5  A    between atoms: O_15  and  C_16
REMARK    6  A    between atoms: C_16  and  C_18
REMARK    7  A    between atoms: C_18  and  C_19
REMARK    8  A    between atoms: C_26  and  O_27
REMARK    9  A    between atoms: C_28  and  O_29
REMARK                            x       y       z     vdW  Elec       q    Type
REMARK                         _______ _______ _______ _____ _____    ______ ____
ROOT
ATOM      1  C   UNL     1       4.482   3.322  17.609  0.00  0.00    +0.000 C 
ATOM      2  O   UNL     1       3.224   3.206  16.912  0.00  0.00    +0.000 OA
ATOM      3  C   UNL     1       2.285   2.517  17.768  0.00  0.00    +0.000 C 
ATOM      4  C   UNL     1       3.085   1.981  18.957  0.00  0.00    +0.000 C 
ATOM      5  C   UNL     1       4.245   2.958  19.073  0.00  0.00    +0.000 C 
ENDROOT
BRANCH   1  14
ATOM      6  C   UNL     1       7.333   7.245  17.851  0.00  0.00    +0.000 A 
ATOM      7  N   UNL     1       8.184   6.733  18.770  0.00  0.00    +0.000 NA
ATOM      8  C   UNL     1       7.941   5.492  19.242  0.00  0.00    +0.000 A 
ATOM      9  N   UNL     1       6.947   4.644  18.908  0.00  0.00    +0.000 NA
ATOM     10  C   UNL     1       6.139   5.192  17.986  0.00  0.00    +0.000 A 
ATOM     11  C   UNL     1       6.261   6.450  17.414  0.00  0.00    +0.000 A 
ATOM     12  N   UNL     1       5.268   6.663  16.480  0.00  0.00    +0.000 NA
ATOM     13  C   UNL     1       4.554   5.558  16.495  0.00  0.00    +0.000 A 
ATOM     14  N   UNL     1       5.037   4.643  17.394  0.00  0.00    +0.000 N 
BRANCH   6  15
ATOM     15  N   UNL     1       7.574   8.527  17.376  0.00  0.00    +0.000 N 
ATOM     16  H   UNL     1       8.026   8.526  16.471  0.00  0.00    +0.000 HD
ATOM     17  H   UNL     1       6.799   9.164  17.521  0.00  0.00    +0.000 HD
ENDBRANCH   6  15
ENDBRANCH   1  14
BRANCH   4  18
ATOM     18  O   UNL     1       3.648   0.681  18.684  0.00  0.00    +0.000 OA
ATOM     19  H   UNL     1       4.536   0.627  19.082  0.00  0.00    +0.000 HD
ENDBRANCH   4  18
BRANCH   5  20
ATOM     20  O   UNL     1       5.389   2.342  19.667  0.00  0.00    +0.000 OA
ATOM     21  H   UNL     1       6.094   3.025  19.663  0.00  0.00    +0.000 HD
ENDBRANCH   5  20
BRANCH   3  22
ATOM     22  C   UNL     1       1.152   3.467  18.168  0.00  0.00    +0.000 C 
BRANCH  22  23
ATOM     23  O   UNL     1       1.612   4.824  18.293  0.00  0.00    +0.000 OA
BRANCH  23  24
ATOM     24  C   UNL     1       1.779   5.269  19.570  0.00  0.00    +0.000 C 
ATOM     25  O   UNL     1       1.229   4.786  20.553  0.00  0.00    +0.000 OA
BRANCH  24  26
ATOM     26  C   UNL     1       2.774   6.400  19.622  0.00  0.00    +0.000 C 
BRANCH  26  27
ATOM     27  C   UNL     1       2.154   7.751  19.364  0.00  0.00    +0.000 A 
ATOM     28  C   UNL     1       2.301   8.371  18.114  0.00  0.00    +0.000 A 
ATOM     29  C   UNL     1       1.679   9.594  17.856  0.00  0.00    +0.000 A 
ATOM     30  C   UNL     1       0.915  10.199  18.846  0.00  0.00    +0.000 A 
ATOM     31  F   UNL     1       0.304  11.363  18.588  0.00  0.00    +0.000 F 
ATOM     32  C   UNL     1       0.770   9.610  20.095  0.00  0.00    +0.000 A 
ATOM     33  C   UNL     1       1.387   8.386  20.356  0.00  0.00    +0.000 A 
ENDBRANCH  26  27
ENDBRANCH  24  26
ENDBRANCH  23  24
ENDBRANCH  22  23
ENDBRANCH   3  22
TORSDOF 9
ENDMDL
MODEL 2
REMARK VINA RESULT:      -8.3      0.572      1.070
REMARK  Name = 
REMARK  9 active torsions:
REMARK  status: ('A' for Active; 'I' for Inactive)
REMARK    1  A    between atoms: N_1  and  C_2
REMARK    2  A    between atoms: N_10  and  C_11
REMARK    3  A    between atoms: C_13  and  C_14
REMARK    4  A    between atoms: C_14  and  O_15
REMARK    5  A    between atoms: O_15  and  C_16
REMARK    6  A    between atoms: C_16  and  C_18
REMARK    7  A    between atoms: C_18  and  C_19
REMARK    8  A    between atoms: C_26  and  O_27
REMARK    9  A    between atoms: C_28  and  O_29
REMARK                            x       y       z     vdW  Elec       q    Type
REMARK                         _______ _______ _______ _____ _____    ______ ____
ROOT
ATOM      1  C   UNL     1       4.550   3.431  17.487  0.00  0.00    +0.000 C 
ATOM      2  O   UNL     1       3.297   3.378  16.774  0.00  0.00    +0.000 OA
ATOM      3  C   UNL     1       2.304   2.772  17.632  0.00  0.00    +0.000 C 
ATOM      4  C   UNL     1       3.052   2.217  18.846  0.00  0.00    +0.000 C 
ATOM      5  C   UNL     1       4.271   3.121  18.956  0.00  0.00    +0.000 C 
ENDROOT
BRANCH   1  14
ATOM      6  C   UNL     1       7.522   7.257  17.816  0.00  0.00    +0.000 A 
ATOM      7  N   UNL     1       8.212   6.796  18.884  0.00  0.00    +0.000 NA
ATOM      8  C   UNL     1       7.848   5.610  19.416  0.00  0.00    +0.000 A 
ATOM      9  N   UNL     1       6.870   4.772  19.013  0.00  0.00    +0.000 NA
ATOM     10  C   UNL     1       6.225   5.267  17.945  0.00  0.00    +0.000 A 
ATOM     11  C   UNL     1       6.485   6.466  17.296  0.00  0.00    +0.000 A 
ATOM     12  N   UNL     1       5.642   6.633  16.217  0.00  0.00    +0.000 NA
ATOM     13  C   UNL     1       4.881   5.559  16.219  0.00  0.00    +0.000 A 
ATOM     14  N   UNL     1       5.191   4.708  17.247  0.00  0.00    +0.000 N 
BRANCH   6  15
ATOM     15  N   UNL     1       7.887   8.484  17.279  0.00  0.00    +0.000 N 
ATOM     16  H   UNL     1       8.880   8.548  17.098  0.00  0.00    +0.000 HD
ATOM     17  H   UNL     1       7.249   8.818  16.565  0.00  0.00    +0.000 HD
ENDBRANCH   6  15
ENDBRANCH   1  14
BRANCH   4  18
ATOM     18  O   UNL     1       3.535   0.877  18.614  0.00  0.00    +0.000 OA
ATOM     19  H   UNL     1       4.463   0.918  18.317  0.00  0.00    +0.000 HD
ENDBRANCH   4  18
BRANCH   5  20
ATOM     20  O   UNL     1       5.365   2.449  19.582  0.00  0.00    +0.000 OA
ATOM     21  H   UNL     1       5.361   1.536  19.221  0.00  0.00    +0.000 HD
ENDBRANCH   5  20
BRANCH   3  22
ATOM     22  C   UNL     1       1.229   3.802  17.992  0.00  0.00    +0.000 C 
BRANCH  22  23
ATOM     23  O   UNL     1       1.711   5.149  17.847  0.00  0.00    +0.000 OA
BRANCH  23  24
ATOM     24  C   UNL     1       2.034   5.783  19.009  0.00  0.00    +0.000 C 
ATOM     25  O   UNL     1       1.839   5.324  20.129  0.00  0.00    +0.000 OA
BRANCH  24  26
ATOM     26  C   UNL     1       2.713   7.100  18.736  0.00  0.00    +0.000 C 
BRANCH  26  27
ATOM     27  C   UNL     1       1.858   8.294  19.081  0.00  0.00    +0.000 A 
ATOM     28  C   UNL     1       1.431   8.502  20.401  0.00  0.00    +0.000 A 
ATOM     29  C   UNL     1       0.688   9.637  20.731  0.00  0.00    +0.000 A 
ATOM     30  C   UNL     1       0.369  10.560  19.744  0.00  0.00    +0.000 A 
ATOM     31  F   UNL     1      -0.328  11.658  20.068  0.00  0.00    +0.000 F 
ATOM     32  C   UNL     1       0.767  10.366  18.428  0.00  0.00    +0.000 A 
ATOM     33  C   UNL     1       1.513   9.235  18.095  0.00  0.00    +0.000 A 
ENDBRANCH  26  27
ENDBRANCH  24  26
ENDBRANCH  23  24
ENDBRANCH  22  23
ENDBRANCH   3  22
TORSDOF 9
ENDMDL
MODEL 3
REMARK VINA RESULT:      -8.0      3.070      5.638
REMARK  Name = 
REMARK  9 active torsions:
REMARK  status: ('A' for Active; 'I' for Inactive)
REMARK    1  A    between atoms: N_1  and  C_2
REMARK    2  A    between atoms: N_10  and  C_11
REMARK    3  A    between atoms: C_13  and  C_14
REMARK    4  A    between atoms: C_14  and  O_15
REMARK    5  A    between atoms: O_15  and  C_16
REMARK    6  A    between atoms: C_16  and  C_18
REMARK    7  A    between atoms: C_18  and  C_19
REMARK    8  A    between atoms: C_26  and  O_27
REMARK    9  A    between atoms: C_28  and  O_29
REMARK                            x       y       z     vdW  Elec       q    Type
REMARK                         _______ _______ _______ _____ _____    ______ ____
ROOT
ATOM      1  C   UNL     1       3.050   5.401  19.792  0.00  0.00    +0.000 C 
ATOM      2  O   UNL     1       4.244   4.892  19.162  0.00  0.00    +0.000 OA
ATOM      3  C   UNL     1       4.081   3.473  18.945  0.00  0.00    +0.000 C 
ATOM      4  C   UNL     1       2.814   3.056  19.694  0.00  0.00    +0.000 C 
ATOM      5  C   UNL     1       1.972   4.323  19.700  0.00  0.00    +0.000 C 
ENDROOT
BRANCH   1  14
ATOM      6  C   UNL     1       1.188   9.832  19.098  0.00  0.00    +0.000 A 
ATOM      7  N   UNL     1       0.576   9.907  20.302  0.00  0.00    +0.000 NA
ATOM      8  C   UNL     1       0.671   8.849  21.134  0.00  0.00    +0.000 A 
ATOM      9  N   UNL     1       1.327   7.685  20.943  0.00  0.00    +0.000 NA
ATOM     10  C   UNL     1       1.927   7.664  19.742  0.00  0.00    +0.000 A 
ATOM     11  C   UNL     1       1.915   8.671  18.787  0.00  0.00    +0.000 A 
ATOM     12  N   UNL     1       2.666   8.313  17.687  0.00  0.00    +0.000 NA
ATOM     13  C   UNL     1       3.115   7.108  17.968  0.00  0.00    +0.000 A 
ATOM     14  N   UNL     1       2.690   6.671  19.195  0.00  0.00    +0.000 N 
BRANCH   6  15
ATOM     15  N   UNL     1       1.079  10.915  18.237  0.00  0.00    +0.000 N 
ATOM     16  H   UNL     1       0.120  11.115  17.985  0.00  0.00    +0.000 HD
ATOM     17  H   UNL     1       1.678  11.694  18.489  0.00  0.00    +0.000 HD
ENDBRANCH   6  15
ENDBRANCH   1  14
BRANCH   4  18
ATOM     18  O   UNL     1       3.088   2.720  21.070  0.00  0.00    +0.000 OA
ATOM     19  H   UNL     1       2.844   3.474  21.638  0.00  0.00    +0.000 HD
ENDBRANCH   4  18
BRANCH   5  20
ATOM     20  O   UNL     1       1.082   4.354  20.817  0.00  0.00    +0.000 OA
ATOM     21  H   UNL     1       0.601   3.498  20.800  0.00  0.00    +0.000 HD
ENDBRANCH   5  20
BRANCH   3  22
ATOM     22  C   UNL     1       4.032   3.178  17.443  0.00  0.00    +0.000 C 
BRANCH  22  23
ATOM     23  O   UNL     1       4.224   4.368  16.659  0.00  0.00    +0.000 OA
BRANCH  23  24
ATOM     24  C   UNL     1       5.221   4.304  15.733  0.00  0.00    +0.000 C 
ATOM     25  O   UNL     1       5.070   4.501  14.533  0.00  0.00    +0.000 OA
BRANCH  24  26
ATOM     26  C   UNL     1       6.548   4.012  16.387  0.00  0.00    +0.000 C 
BRANCH  26  27
ATOM     27  C   UNL     1       7.139   5.208  17.093  0.00  0.00    +0.000 A 
ATOM     28  C   UNL     1       7.108   6.474  16.490  0.00  0.00    +0.000 A 
ATOM     29  C   UNL     1       7.603   7.590  17.167  0.00  0.00    +0.000 A 
ATOM     30  C   UNL     1       8.131   7.441  18.443  0.00  0.00    +0.000 A 
ATOM     31  F   UNL     1       8.588   8.517  19.097  0.00  0.00    +0.000 F 
ATOM     32  C   UNL     1       8.187   6.194  19.052  0.00  0.00    +0.000 A 
ATOM     33  C   UNL     1       7.689   5.077  18.379  0.00  0.00    +0.000 A 
ENDBRANCH  26  27
ENDBRANCH  24  26
ENDBRANCH  23  24
ENDBRANCH  22  23
ENDBRANCH   3  22
TORSDOF 9
ENDMDL
MODEL 4
REMARK VINA RESULT:      -7.8      4.802      7.371
REMARK  Name = 
REMARK  9 active torsions:
REMARK  status: ('A' for Active; 'I' for Inactive)
REMARK    1  A    between atoms: N_1  and  C_2
REMARK    2  A    between atoms: N_10  and  C_11
REMARK    3  A    between atoms: C_13  and  C_14
REMARK    4  A    between atoms: C_14  and  O_15
REMARK    5  A    between atoms: O_15  and  C_16
REMARK    6  A    between atoms: C_16  and  C_18
REMARK    7  A    between atoms: C_18  and  C_19
REMARK    8  A    between atoms: C_26  and  O_27
REMARK    9  A    between atoms: C_28  and  O_29
REMARK                            x       y       z     vdW  Elec       q    Type
REMARK                         _______ _______ _______ _____ _____    ______ ____
ROOT
ATOM      1  C   UNL     1       5.783   4.533  17.753  0.00  0.00    +0.000 C 
ATOM      2  O   UNL     1       6.804   5.266  18.462  0.00  0.00    +0.000 OA
ATOM      3  C   UNL     1       7.503   6.110  17.521  0.00  0.00    +0.000 C 
ATOM      4  C   UNL     1       7.033   5.696  16.125  0.00  0.00    +0.000 C 
ATOM      5  C   UNL     1       5.631   5.157  16.368  0.00  0.00    +0.000 C 
ENDROOT
BRANCH   1  14
ATOM      6  C   UNL     1       1.468   3.247  19.573  0.00  0.00    +0.000 A 
ATOM      7  N   UNL     1       1.291   2.186  18.754  0.00  0.00    +0.000 NA
ATOM      8  C   UNL     1       2.241   1.926  17.831  0.00  0.00    +0.000 A 
ATOM      9  N   UNL     1       3.398   2.583  17.607  0.00  0.00    +0.000 NA
ATOM     10  C   UNL     1       3.533   3.618  18.452  0.00  0.00    +0.000 A 
ATOM     11  C   UNL     1       2.644   4.005  19.444  0.00  0.00    +0.000 A 
ATOM     12  N   UNL     1       3.127   5.094  20.139  0.00  0.00    +0.000 NA
ATOM     13  C   UNL     1       4.283   5.366  19.571  0.00  0.00    +0.000 A 
ATOM     14  N   UNL     1       4.568   4.506  18.542  0.00  0.00    +0.000 N 
BRANCH   6  15
ATOM     15  N   UNL     1       0.485   3.523  20.513  0.00  0.00    +0.000 N 
ATOM     16  H   UNL     1       0.608   2.999  21.369  0.00  0.00    +0.000 HD
ATOM     17  H   UNL     1       0.259   4.509  20.585  0.00  0.00    +0.000 HD
ENDBRANCH   6  15
ENDBRANCH   1  14
BRANCH   4  18
ATOM     18  O   UNL     1       7.821   4.609  15.593  0.00  0.00    +0.000 OA
ATOM     19  H   UNL     1       7.478   3.766  15.942  0.00  0.00    +0.000 HD
ENDBRANCH   4  18
BRANCH   5  20
ATOM     20  O   UNL     1       5.264   4.193  15.380  0.00  0.00    +0.000 OA
ATOM     21  H   UNL     1       5.939   3.482  15.434  0.00  0.00    +0.000 HD
ENDBRANCH   5  20
BRANCH   3  22
ATOM     22  C   UNL     1       7.236   7.583  17.846  0.00  0.00    +0.000 C 
BRANCH  22  23
ATOM     23  O   UNL     1       8.406   8.235  18.368  0.00  0.00    +0.000 OA
BRANCH  23  24
ATOM     24  C   UNL     1       8.433   9.590  18.226  0.00  0.00    +0.000 C 
ATOM     25  O   UNL     1       7.746  10.221  17.431  0.00  0.00    +0.000 OA
BRANCH  24  26
ATOM     26  C   UNL     1       9.381  10.218  19.216  0.00  0.00    +0.000 C 
BRANCH  26  27
ATOM     27  C   UNL     1       9.967  11.522  18.734  0.00  0.00    +0.000 A 
ATOM     28  C   UNL     1       9.386  12.742  19.112  0.00  0.00    +0.000 A 
ATOM     29  C   UNL     1       9.962  13.950  18.714  0.00  0.00    +0.000 A 
ATOM     30  C   UNL     1      11.113  13.940  17.936  0.00  0.00    +0.000 A 
ATOM     31  F   UNL     1      11.674  15.101  17.573  0.00  0.00    +0.000 F 
ATOM     32  C   UNL     1      11.695  12.743  17.538  0.00  0.00    +0.000 A 
ATOM     33  C   UNL     1      11.125  11.534  17.937  0.00  0.00    +0.000 A 
ENDBRANCH  26  27
ENDBRANCH  24  26
ENDBRANCH  23  24
ENDBRANCH  22  23
ENDBRANCH   3  22
TORSDOF 9
ENDMDL
MODEL 5
REMARK VINA RESULT:      -7.6      3.779      5.537
REMARK  Name = 
REMARK  9 active torsions:
REMARK  status: ('A' for Active; 'I' for Inactive)
REMARK    1  A    between atoms: N_1  and  C_2
REMARK    2  A    between atoms: N_10  and  C_11
REMARK    3  A    between atoms: C_13  and  C_14
REMARK    4  A    between atoms: C_14  and  O_15
REMARK    5  A    between atoms: O_15  and  C_16
REMARK    6  A    between atoms: C_16  and  C_18
REMARK    7  A    between atoms: C_18  and  C_19
REMARK    8  A    between atoms: C_26  and  O_27
REMARK    9  A    between atoms: C_28  and  O_29
REMARK                            x       y       z     vdW  Elec       q    Type
REMARK                         _______ _______ _______ _____ _____    ______ ____
ROOT
ATOM      1  C   UNL     1       7.393   5.112  17.043  0.00  0.00    +0.000 C 
ATOM      2  O   UNL     1       6.932   4.430  18.228  0.00  0.00    +0.000 OA
ATOM      3  C   UNL     1       6.646   5.415  19.245  0.00  0.00    +0.000 C 
ATOM      4  C   UNL     1       7.182   6.751  18.727  0.00  0.00    +0.000 C 
ATOM      5  C   UNL     1       7.105   6.602  17.215  0.00  0.00    +0.000 C 
ENDROOT
BRANCH   1  14
ATOM      6  C   UNL     1       6.422   3.890  12.445  0.00  0.00    +0.000 A 
ATOM      7  N   UNL     1       7.374   4.678  11.895  0.00  0.00    +0.000 NA
ATOM      8  C   UNL     1       8.126   5.439  12.718  0.00  0.00    +0.000 A 
ATOM      9  N   UNL     1       8.080   5.520  14.064  0.00  0.00    +0.000 NA
ATOM     10  C   UNL     1       7.131   4.712  14.562  0.00  0.00    +0.000 A 
ATOM     11  C   UNL     1       6.285   3.879  13.843  0.00  0.00    +0.000 A 
ATOM     12  N   UNL     1       5.459   3.170  14.689  0.00  0.00    +0.000 NA
ATOM     13  C   UNL     1       5.792   3.574  15.897  0.00  0.00    +0.000 A 
ATOM     14  N   UNL     1       6.793   4.510  15.870  0.00  0.00    +0.000 N 
BRANCH   6  15
ATOM     15  N   UNL     1       5.639   3.118  11.598  0.00  0.00    +0.000 N 
ATOM     16  H   UNL     1       5.248   3.654  10.835  0.00  0.00    +0.000 HD
ATOM     17  H   UNL     1       6.043   2.212  11.386  0.00  0.00    +0.000 HD
ENDBRANCH   6  15
ENDBRANCH   1  14
BRANCH   4  18
ATOM     18  O   UNL     1       8.572   6.941  19.066  0.00  0.00    +0.000 OA
ATOM     19  H   UNL     1       9.128   6.504  18.394  0.00  0.00    +0.000 HD
ENDBRANCH   4  18
BRANCH   5  20
ATOM     20  O   UNL     1       8.077   7.419  16.559  0.00  0.00    +0.000 OA
ATOM     21  H   UNL     1       8.364   8.081  17.225  0.00  0.00    +0.000 HD
ENDBRANCH   5  20
BRANCH   3  22
ATOM     22  C   UNL     1       5.143   5.432  19.545  0.00  0.00    +0.000 C 
BRANCH  22  23
ATOM     23  O   UNL     1       4.365   5.082  18.388  0.00  0.00    +0.000 OA
BRANCH  23  24
ATOM     24  C   UNL     1       3.446   6.010  17.999  0.00  0.00    +0.000 C 
ATOM     25  O   UNL     1       3.716   7.157  17.660  0.00  0.00    +0.000 OA
BRANCH  24  26
ATOM     26  C   UNL     1       2.058   5.424  17.986  0.00  0.00    +0.000 C 
BRANCH  26  27
ATOM     27  C   UNL     1       1.804   4.469  19.127  0.00  0.00    +0.000 A 
ATOM     28  C   UNL     1       1.489   3.126  18.870  0.00  0.00    +0.000 A 
ATOM     29  C   UNL     1       1.311   2.230  19.925  0.00  0.00    +0.000 A 
ATOM     30  C   UNL     1       1.442   2.675  21.234  0.00  0.00    +0.000 A 
ATOM     31  F   UNL     1       1.290   1.807  22.244  0.00  0.00    +0.000 F 
ATOM     32  C   UNL     1       1.738   4.003  21.511  0.00  0.00    +0.000 A 
ATOM     33  C   UNL     1       1.921   4.901  20.459  0.00  0.00    +0.000 A 
ENDBRANCH  26  27
ENDBRANCH  24  26
ENDBRANCH  23  24
ENDBRANCH  22  23
ENDBRANCH   3  22
TORSDOF 9
ENDMDL
MODEL 6
REMARK VINA RESULT:      -7.6      5.061      8.004
REMARK  Name = 
REMARK  9 active torsions:
REMARK  status: ('A' for Active; 'I' for Inactive)
REMARK    1  A    between atoms: N_1  and  C_2
REMARK    2  A    between atoms: N_10  and  C_11
REMARK    3  A    between atoms: C_13  and  C_14
REMARK    4  A    between atoms: C_14  and  O_15
REMARK    5  A    between atoms: O_15  and  C_16
REMARK    6  A    between atoms: C_16  and  C_18
REMARK    7  A    between atoms: C_18  and  C_19
REMARK    8  A    between atoms: C_26  and  O_27
REMARK    9  A    between atoms: C_28  and  O_29
REMARK                            x       y       z     vdW  Elec       q    Type
REMARK                         _______ _______ _______ _____ _____    ______ ____
ROOT
ATOM      1  C   UNL     1       5.248   5.547  17.993  0.00  0.00    +0.000 C 
ATOM      2  O   UNL     1       5.494   5.912  16.619  0.00  0.00    +0.000 OA
ATOM      3  C   UNL     1       6.918   5.871  16.380  0.00  0.00    +0.000 C 
ATOM      4  C   UNL     1       7.589   5.698  17.744  0.00  0.00    +0.000 C 
ATOM      5  C   UNL     1       6.539   4.965  18.565  0.00  0.00    +0.000 C 
ENDROOT
BRANCH   1  14
ATOM      6  C   UNL     1       1.169   3.360  19.462  0.00  0.00    +0.000 A 
ATOM      7  N   UNL     1       1.036   4.079  20.600  0.00  0.00    +0.000 NA
ATOM      8  C   UNL     1       1.981   4.999  20.886  0.00  0.00    +0.000 A 
ATOM      9  N   UNL     1       3.072   5.336  20.169  0.00  0.00    +0.000 NA
ATOM     10  C   UNL     1       3.152   4.606  19.045  0.00  0.00    +0.000 A 
ATOM     11  C   UNL     1       2.263   3.628  18.623  0.00  0.00    +0.000 A 
ATOM     12  N   UNL     1       2.646   3.110  17.403  0.00  0.00    +0.000 NA
ATOM     13  C   UNL     1       3.752   3.756  17.099  0.00  0.00    +0.000 A 
ATOM     14  N   UNL     1       4.101   4.665  18.064  0.00  0.00    +0.000 N 
BRANCH   6  15
ATOM     15  N   UNL     1       0.205   2.403  19.174  0.00  0.00    +0.000 N 
ATOM     16  H   UNL     1       0.380   1.524  19.642  0.00  0.00    +0.000 HD
ATOM     17  H   UNL     1      -0.741   2.767  19.180  0.00  0.00    +0.000 HD
ENDBRANCH   6  15
ENDBRANCH   1  14
BRANCH   4  18
ATOM     18  O   UNL     1       7.827   6.966  18.391  0.00  0.00    +0.000 OA
ATOM     19  H   UNL     1       8.719   7.282  18.156  0.00  0.00    +0.000 HD
ENDBRANCH   4  18
BRANCH   5  20
ATOM     20  O   UNL     1       6.682   5.239  19.960  0.00  0.00    +0.000 OA
ATOM     21  H   UNL     1       6.463   4.400  20.422  0.00  0.00    +0.000 HD
ENDBRANCH   5  20
BRANCH   3  22
ATOM     22  C   UNL     1       7.248   4.751  15.387  0.00  0.00    +0.000 C 
BRANCH  22  23
ATOM     23  O   UNL     1       6.806   5.071  14.057  0.00  0.00    +0.000 OA
BRANCH  23  24
ATOM     24  C   UNL     1       7.789   5.438  13.187  0.00  0.00    +0.000 C 
ATOM     25  O   UNL     1       8.875   5.901  13.519  0.00  0.00    +0.000 OA
BRANCH  24  26
ATOM     26  C   UNL     1       7.387   5.149  11.764  0.00  0.00    +0.000 C 
BRANCH  26  27
ATOM     27  C   UNL     1       6.903   3.734  11.558  0.00  0.00    +0.000 A 
ATOM     28  C   UNL     1       7.808   2.719  11.211  0.00  0.00    +0.000 A 
ATOM     29  C   UNL     1       7.370   1.400  11.077  0.00  0.00    +0.000 A 
ATOM     30  C   UNL     1       6.031   1.097  11.284  0.00  0.00    +0.000 A 
ATOM     31  F   UNL     1       5.617  -0.173  11.174  0.00  0.00    +0.000 F 
ATOM     32  C   UNL     1       5.115   2.089  11.612  0.00  0.00    +0.000 A 
ATOM     33  C   UNL     1       5.550   3.407  11.751  0.00  0.00    +0.000 A 
ENDBRANCH  26  27
ENDBRANCH  24  26
ENDBRANCH  23  24
ENDBRANCH  22  23
ENDBRANCH   3  22
TORSDOF 9
ENDMDL
MODEL 7
REMARK VINA RESULT:      -7.6      4.362      6.878
REMARK  Name = 
REMARK  9 active torsions:
REMARK  status: ('A' for Active; 'I' for Inactive)
REMARK    1  A    between atoms: N_1  and  C_2
REMARK    2  A    between atoms: N_10  and  C_11
REMARK    3  A    between atoms: C_13  and  C_14
REMARK    4  A    between atoms: C_14  and  O_15
REMARK    5  A    between atoms: O_15  and  C_16
REMARK    6  A    between atoms: C_16  and  C_18
REMARK    7  A    between atoms: C_18  and  C_19
REMARK    8  A    between atoms: C_26  and  O_27
REMARK    9  A    between atoms: C_28  and  O_29
REMARK                            x       y       z     vdW  Elec       q    Type
REMARK                         _______ _______ _______ _____ _____    ______ ____
ROOT
ATOM      1  C   UNL     1       5.649   3.898  17.147  0.00  0.00    +0.000 C 
ATOM      2  O   UNL     1       6.679   4.299  18.074  0.00  0.00    +0.000 OA
ATOM      3  C   UNL     1       7.377   5.438  17.523  0.00  0.00    +0.000 C 
ATOM      4  C   UNL     1       6.896   5.593  16.079  0.00  0.00    +0.000 C 
ATOM      5  C   UNL     1       5.492   5.007  16.108  0.00  0.00    +0.000 C 
ENDROOT
BRANCH   1  14
ATOM      6  C   UNL     1       1.695   4.233  19.947  0.00  0.00    +0.000 A 
ATOM      7  N   UNL     1       1.872   5.535  20.268  0.00  0.00    +0.000 NA
ATOM      8  C   UNL     1       2.958   6.171  19.781  0.00  0.00    +0.000 A 
ATOM      9  N   UNL     1       3.924   5.688  18.972  0.00  0.00    +0.000 NA
ATOM     10  C   UNL     1       3.697   4.399  18.671  0.00  0.00    +0.000 A 
ATOM     11  C   UNL     1       2.632   3.619  19.098  0.00  0.00    +0.000 A 
ATOM     12  N   UNL     1       2.708   2.350  18.564  0.00  0.00    +0.000 NA
ATOM     13  C   UNL     1       3.804   2.359  17.836  0.00  0.00    +0.000 A 
ATOM     14  N   UNL     1       4.439   3.573  17.875  0.00  0.00    +0.000 N 
BRANCH   6  15
ATOM     15  N   UNL     1       0.587   3.574  20.460  0.00  0.00    +0.000 N 
ATOM     16  H   UNL     1       0.654   2.570  20.365  0.00  0.00    +0.000 HD
ATOM     17  H   UNL     1       0.267   3.950  21.346  0.00  0.00    +0.000 HD
ENDBRANCH   6  15
ENDBRANCH   1  14
BRANCH   4  18
ATOM     18  O   UNL     1       7.673   4.792  15.165  0.00  0.00    +0.000 OA
ATOM     19  H   UNL     1       7.265   4.829  14.280  0.00  0.00    +0.000 HD
ENDBRANCH   4  18
BRANCH   5  20
ATOM     20  O   UNL     1       5.112   4.497  14.829  0.00  0.00    +0.000 OA
ATOM     21  H   UNL     1       5.683   3.714  14.672  0.00  0.00    +0.000 HD
ENDBRANCH   5  20
BRANCH   3  22
ATOM     22  C   UNL     1       7.121   6.674  18.391  0.00  0.00    +0.000 C 
BRANCH  22  23
ATOM     23  O   UNL     1       8.330   7.413  18.636  0.00  0.00    +0.000 OA
BRANCH  23  24
ATOM     24  C   UNL     1       8.315   8.711  18.222  0.00  0.00    +0.000 C 
ATOM     25  O   UNL     1       7.736   9.116  17.220  0.00  0.00    +0.000 OA
BRANCH  24  26
ATOM     26  C   UNL     1       9.060   9.596  19.189  0.00  0.00    +0.000 C 
BRANCH  26  27
ATOM     27  C   UNL     1       9.578  10.865  18.558  0.00  0.00    +0.000 A 
ATOM     28  C   UNL     1      10.954  11.044  18.355  0.00  0.00    +0.000 A 
ATOM     29  C   UNL     1      11.429  12.193  17.719  0.00  0.00    +0.000 A 
ATOM     30  C   UNL     1      10.531  13.162  17.291  0.00  0.00    +0.000 A 
ATOM     31  F   UNL     1      10.988  14.255  16.664  0.00  0.00    +0.000 F 
ATOM     32  C   UNL     1       9.165  13.012  17.497  0.00  0.00    +0.000 A 
ATOM     33  C   UNL     1       8.687  11.863  18.128  0.00  0.00    +0.000 A 
ENDBRANCH  26  27
ENDBRANCH  24  26
ENDBRANCH  23  24
ENDBRANCH  22  23
ENDBRANCH   3  22
TORSDOF 9
ENDMDL
MODEL 8
REMARK VINA RESULT:      -7.6      4.556      7.088
REMARK  Name = 
REMARK  9 active torsions:
REMARK  status: ('A' for Active; 'I' for Inactive)
REMARK    1  A    between atoms: N_1  and  C_2
REMARK    2  A    between atoms: N_10  and  C_11
REMARK    3  A    between atoms: C_13  and  C_14
REMARK    4  A    between atoms: C_14  and  O_15
REMARK    5  A    between atoms: O_15  and  C_16
REMARK    6  A    between atoms: C_16  and  C_18
REMARK    7  A    between atoms: C_18  and  C_19
REMARK    8  A    between atoms: C_26  and  O_27
REMARK    9  A    between atoms: C_28  and  O_29
REMARK                            x       y       z     vdW  Elec       q    Type
REMARK                         _______ _______ _______ _____ _____    ______ ____
ROOT
ATOM      1  C   UNL     1       5.741   4.459  17.625  0.00  0.00    +0.000 C 
ATOM      2  O   UNL     1       6.898   4.804  18.415  0.00  0.00    +0.000 OA
ATOM      3  C   UNL     1       7.718   5.720  17.657  0.00  0.00    +0.000 C 
ATOM      4  C   UNL     1       7.146   5.751  16.238  0.00  0.00    +0.000 C 
ATOM      5  C   UNL     1       5.675   5.422  16.442  0.00  0.00    +0.000 C 
ENDROOT
BRANCH   1  14
ATOM      6  C   UNL     1       1.520   3.204  19.672  0.00  0.00    +0.000 A 
ATOM      7  N   UNL     1       1.316   2.115  18.895  0.00  0.00    +0.000 NA
ATOM      8  C   UNL     1       2.227   1.832  17.941  0.00  0.00    +0.000 A 
ATOM      9  N   UNL     1       3.368   2.489  17.645  0.00  0.00    +0.000 NA
ATOM     10  C   UNL     1       3.532   3.552  18.450  0.00  0.00    +0.000 A 
ATOM     11  C   UNL     1       2.683   3.966  19.467  0.00  0.00    +0.000 A 
ATOM     12  N   UNL     1       3.187   5.079  20.104  0.00  0.00    +0.000 NA
ATOM     13  C   UNL     1       4.315   5.340  19.478  0.00  0.00    +0.000 A 
ATOM     14  N   UNL     1       4.562   4.449  18.467  0.00  0.00    +0.000 N 
BRANCH   6  15
ATOM     15  N   UNL     1       0.576   3.504  20.644  0.00  0.00    +0.000 N 
ATOM     16  H   UNL     1       0.597   2.854  21.418  0.00  0.00    +0.000 HD
ATOM     17  H   UNL     1       0.511   4.494  20.853  0.00  0.00    +0.000 HD
ENDBRANCH   6  15
ENDBRANCH   1  14
BRANCH   4  18
ATOM     18  O   UNL     1       7.705   4.710  15.410  0.00  0.00    +0.000 OA
ATOM     19  H   UNL     1       8.439   4.281  15.887  0.00  0.00    +0.000 HD
ENDBRANCH   4  18
BRANCH   5  20
ATOM     20  O   UNL     1       5.111   4.811  15.280  0.00  0.00    +0.000 OA
ATOM     21  H   UNL     1       4.547   4.078  15.610  0.00  0.00    +0.000 HD
ENDBRANCH   5  20
BRANCH   3  22
ATOM     22  C   UNL     1       7.737   7.090  18.342  0.00  0.00    +0.000 C 
BRANCH  22  23
ATOM     23  O   UNL     1       7.645   8.164  17.389  0.00  0.00    +0.000 OA
BRANCH  23  24
ATOM     24  C   UNL     1       8.043   9.385  17.844  0.00  0.00    +0.000 C 
ATOM     25  O   UNL     1       7.674  10.456  17.378  0.00  0.00    +0.000 OA
BRANCH  24  26
ATOM     26  C   UNL     1       8.957   9.246  19.035  0.00  0.00    +0.000 C 
BRANCH  26  27
ATOM     27  C   UNL     1       9.643  10.535  19.413  0.00  0.00    +0.000 A 
ATOM     28  C   UNL     1      10.402  11.238  18.466  0.00  0.00    +0.000 A 
ATOM     29  C   UNL     1      10.989  12.460  18.799  0.00  0.00    +0.000 A 
ATOM     30  C   UNL     1      10.822  12.977  20.077  0.00  0.00    +0.000 A 
ATOM     31  F   UNL     1      11.371  14.159  20.387  0.00  0.00    +0.000 F 
ATOM     32  C   UNL     1      10.088  12.290  21.035  0.00  0.00    +0.000 A 
ATOM     33  C   UNL     1       9.497  11.070  20.705  0.00  0.00    +0.000 A 
ENDBRANCH  26  27
ENDBRANCH  24  26
ENDBRANCH  23  24
ENDBRANCH  22  23
ENDBRANCH   3  22
TORSDOF 9
ENDMDL
MODEL 9
REMARK VINA RESULT:      -7.5      4.738      7.131
REMARK  Name = 
REMARK  9 active torsions:
REMARK  status: ('A' for Active; 'I' for Inactive)
REMARK    1  A    between atoms: N_1  and  C_2
REMARK    2  A    between atoms: N_10  and  C_11
REMARK    3  A    between atoms: C_13  and  C_14
REMARK    4  A    between atoms: C_14  and  O_15
REMARK    5  A    between atoms: O_15  and  C_16
REMARK    6  A    between atoms: C_16  and  C_18
REMARK    7  A    between atoms: C_18  and  C_19
REMARK    8  A    between atoms: C_26  and  O_27
REMARK    9  A    between atoms: C_28  and  O_29
REMARK                            x       y       z     vdW  Elec       q    Type
REMARK                         _______ _______ _______ _____ _____    ______ ____
ROOT
ATOM      1  C   UNL     1       5.619   4.494  17.276  0.00  0.00    +0.000 C 
ATOM      2  O   UNL     1       6.599   5.164  18.095  0.00  0.00    +0.000 OA
ATOM      3  C   UNL     1       7.391   6.029  17.250  0.00  0.00    +0.000 C 
ATOM      4  C   UNL     1       7.022   5.689  15.805  0.00  0.00    +0.000 C 
ATOM      5  C   UNL     1       5.593   5.181  15.913  0.00  0.00    +0.000 C 
ENDROOT
BRANCH   1  14
ATOM      6  C   UNL     1       2.073   3.424  20.417  0.00  0.00    +0.000 A 
ATOM      7  N   UNL     1       2.783   2.504  21.109  0.00  0.00    +0.000 NA
ATOM      8  C   UNL     1       4.042   2.234  20.705  0.00  0.00    +0.000 A 
ATOM      9  N   UNL     1       4.734   2.781  19.684  0.00  0.00    +0.000 NA
ATOM     10  C   UNL     1       3.993   3.696  19.038  0.00  0.00    +0.000 A 
ATOM     11  C   UNL     1       2.691   4.074  19.336  0.00  0.00    +0.000 A 
ATOM     12  N   UNL     1       2.260   5.064  18.479  0.00  0.00    +0.000 NA
ATOM     13  C   UNL     1       3.278   5.275  17.672  0.00  0.00    +0.000 A 
ATOM     14  N   UNL     1       4.345   4.467  17.967  0.00  0.00    +0.000 N 
BRANCH   6  15
ATOM     15  N   UNL     1       0.773   3.691  20.823  0.00  0.00    +0.000 N 
ATOM     16  H   UNL     1       0.710   3.900  21.810  0.00  0.00    +0.000 HD
ATOM     17  H   UNL     1       0.260   4.281  20.177  0.00  0.00    +0.000 HD
ENDBRANCH   6  15
ENDBRANCH   1  14
BRANCH   4  18
ATOM     18  O   UNL     1       7.822   4.605  15.287  0.00  0.00    +0.000 OA
ATOM     19  H   UNL     1       7.579   3.780  15.747  0.00  0.00    +0.000 HD
ENDBRANCH   4  18
BRANCH   5  20
ATOM     20  O   UNL     1       5.280   4.272  14.856  0.00  0.00    +0.000 OA
ATOM     21  H   UNL     1       5.894   3.513  14.964  0.00  0.00    +0.000 HD
ENDBRANCH   5  20
BRANCH   3  22
ATOM     22  C   UNL     1       7.137   7.493  17.621  0.00  0.00    +0.000 C 
BRANCH  22  23
ATOM     23  O   UNL     1       8.275   8.084  18.270  0.00  0.00    +0.000 OA
BRANCH  23  24
ATOM     24  C   UNL     1       8.346   9.444  18.204  0.00  0.00    +0.000 C 
ATOM     25  O   UNL     1       7.649  10.142  17.477  0.00  0.00    +0.000 OA
BRANCH  24  26
ATOM     26  C   UNL     1       9.356   9.980  19.186  0.00  0.00    +0.000 C 
BRANCH  26  27
ATOM     27  C   UNL     1       9.866  11.354  18.824  0.00  0.00    +0.000 A 
ATOM     28  C   UNL     1       9.473  12.475  19.571  0.00  0.00    +0.000 A 
ATOM     29  C   UNL     1       9.989  13.737  19.273  0.00  0.00    +0.000 A 
ATOM     30  C   UNL     1      10.893  13.880  18.228  0.00  0.00    +0.000 A 
ATOM     31  F   UNL     1      11.401  15.090  17.957  0.00  0.00    +0.000 F 
ATOM     32  C   UNL     1      11.283  12.787  17.466  0.00  0.00    +0.000 A 
ATOM     33  C   UNL     1      10.772  11.523  17.763  0.00  0.00    +0.000 A 
ENDBRANCH  26  27
ENDBRANCH  24  26
ENDBRANCH  23  24
ENDBRANCH  22  23
ENDBRANCH   3  22
TORSDOF 9
ENDMDL
