MODEL 1
REMARK VINA RESULT:      -8.0      0.000      0.000
REMARK  Name = 
REMARK  8 active torsions:
REMARK  status: ('A' for Active; 'I' for Inactive)
REMARK    1  A    between atoms: C_1  and  N_2
REMARK    2  A    between atoms: N_2  and  C_3
REMARK    3  A    between atoms: N_2  and  C_4
REMARK    4  A    between atoms: N_2  and  C_19
REMARK    5  A    between atoms: C_4  and  C_5
REMARK    6  A    between atoms: C_5  and  C_7
REMARK    7  A    between atoms: C_10  and  C_11
REMARK    8  A    between atoms: C_19  and  C_20
REMARK                            x       y       z     vdW  Elec       q    Type
REMARK                         _______ _______ _______ _____ _____    ______ ____
ROOT
ATOM      1  C   UNL     1       3.593   5.600  17.695  0.00  0.00    +0.000 C 
ATOM      2  O   UNL     1       3.164   4.443  17.696  0.00  0.00    +0.000 OA
ENDROOT
BRANCH   1   3
ATOM      3  C   UNL     1       2.884   6.614  18.500  0.00  0.00    +0.000 A 
ATOM      4  C   UNL     1       2.476   6.227  19.772  0.00  0.00    +0.000 A 
ATOM      5  C   UNL     1       1.775   7.114  20.574  0.00  0.00    +0.000 A 
ATOM      6  C   UNL     1       1.486   8.422  20.149  0.00  0.00    +0.000 A 
ATOM      7  C   UNL     1       1.927   8.804  18.867  0.00  0.00    +0.000 A 
ATOM      8  C   UNL     1       2.611   7.908  18.038  0.00  0.00    +0.000 A 
BRANCH   6   9
ATOM      9  C   UNL     1       0.709   9.321  21.025  0.00  0.00    +0.000 A 
ATOM     10  C   UNL     1       0.560   9.036  22.396  0.00  0.00    +0.000 A 
ATOM     11  C   UNL     1      -0.279   9.793  23.210  0.00  0.00    +0.000 A 
ATOM     12  C   UNL     1      -0.961  10.881  22.678  0.00  0.00    +0.000 A 
ATOM     13  C   UNL     1      -0.794  11.216  21.337  0.00  0.00    +0.000 A 
ATOM     14  C   UNL     1       0.032  10.442  20.517  0.00  0.00    +0.000 A 
ENDBRANCH   6   9
ENDBRANCH   1   3
BRANCH   1  15
ATOM     15  C   UNL     1       4.762   6.056  16.841  0.00  0.00    +0.000 C 
BRANCH  15  17
ATOM     16  C   UNL     1       7.012   7.041  17.401  0.00  0.00    +0.000 C 
ATOM     17  N   UNL     1       6.185   5.753  17.407  0.00  0.00    +0.000 N 
ATOM     18  C   UNL     1       6.108   5.249  18.847  0.00  0.00    +0.000 C 
BRANCH  17  19
ATOM     19  C   UNL     1       6.915   4.710  16.486  0.00  0.00    +0.000 C 
BRANCH  19  20
ATOM     20  C   UNL     1       6.676   4.834  14.945  0.00  0.00    +0.000 C 
ATOM     21  O   UNL     1       7.875   5.281  14.318  0.00  0.00    +0.000 OA
ATOM     22  C   UNL     1       7.709   5.434  12.909  0.00  0.00    +0.000 C 
ATOM     23  C   UNL     1       7.266   4.117  12.301  0.00  0.00    +0.000 C 
ATOM     24  C   UNL     1       6.010   3.642  13.010  0.00  0.00    +0.000 C 
ATOM     25  O   UNL     1       6.222   3.586  14.422  0.00  0.00    +0.000 OA
ENDBRANCH  19  20
ENDBRANCH  17  19
ENDBRANCH  15  17
ENDBRANCH   1  15
TORSDOF 6
ENDMDL
MODEL 2
REMARK VINA RESULT:      -7.6      2.282      4.539
REMARK  Name = 
REMARK  8 active torsions:
REMARK  status: ('A' for Active; 'I' for Inactive)
REMARK    1  A    between atoms: C_1  and  N_2
REMARK    2  A    between atoms: N_2  and  C_3
REMARK    3  A    between atoms: N_2  and  C_4
REMARK    4  A    between atoms: N_2  and  C_19
REMARK    5  A    between atoms: C_4  and  C_5
REMARK    6  A    between atoms: C_5  and  C_7
REMARK    7  A    between atoms: C_10  and  C_11
REMARK    8  A    between atoms: C_19  and  C_20
REMARK                            x       y       z     vdW  Elec       q    Type
REMARK                         _______ _______ _______ _____ _____    ______ ____
ROOT
ATOM      1  C   UNL     1       3.691   6.435  17.597  0.00  0.00    +0.000 C 
ATOM      2  O   UNL     1       4.641   7.037  17.087  0.00  0.00    +0.000 OA
ENDROOT
BRANCH   1   3
ATOM      3  C   UNL     1       2.803   7.172  18.517  0.00  0.00    +0.000 A 
ATOM      4  C   UNL     1       2.291   8.380  18.055  0.00  0.00    +0.000 A 
ATOM      5  C   UNL     1       1.477   9.145  18.875  0.00  0.00    +0.000 A 
ATOM      6  C   UNL     1       1.121   8.718  20.166  0.00  0.00    +0.000 A 
ATOM      7  C   UNL     1       1.629   7.481  20.607  0.00  0.00    +0.000 A 
ATOM      8  C   UNL     1       2.475   6.714  19.799  0.00  0.00    +0.000 A 
BRANCH   6   9
ATOM      9  C   UNL     1       0.276   9.581  21.015  0.00  0.00    +0.000 A 
ATOM     10  C   UNL     1      -0.234  10.797  20.521  0.00  0.00    +0.000 A 
ATOM     11  C   UNL     1      -0.915  11.689  21.346  0.00  0.00    +0.000 A 
ATOM     12  C   UNL     1      -1.138  11.367  22.679  0.00  0.00    +0.000 A 
ATOM     13  C   UNL     1      -0.688  10.149  23.182  0.00  0.00    +0.000 A 
ATOM     14  C   UNL     1       0.015   9.265  22.359  0.00  0.00    +0.000 A 
ENDBRANCH   6   9
ENDBRANCH   1   3
BRANCH   1  15
ATOM     15  C   UNL     1       3.438   4.952  17.394  0.00  0.00    +0.000 C 
BRANCH  15  17
ATOM     16  C   UNL     1       5.563   3.964  16.471  0.00  0.00    +0.000 C 
ATOM     17  N   UNL     1       4.640   4.003  17.691  0.00  0.00    +0.000 N 
ATOM     18  C   UNL     1       5.456   4.505  18.882  0.00  0.00    +0.000 C 
BRANCH  17  19
ATOM     19  C   UNL     1       4.118   2.543  17.946  0.00  0.00    +0.000 C 
BRANCH  19  20
ATOM     20  C   UNL     1       3.025   2.363  19.051  0.00  0.00    +0.000 C 
ATOM     21  O   UNL     1       3.397   3.109  20.207  0.00  0.00    +0.000 OA
ATOM     22  C   UNL     1       2.443   2.963  21.257  0.00  0.00    +0.000 C 
ATOM     23  C   UNL     1       1.076   3.406  20.772  0.00  0.00    +0.000 C 
ATOM     24  C   UNL     1       0.718   2.626  19.519  0.00  0.00    +0.000 C 
ATOM     25  O   UNL     1       1.751   2.753  18.539  0.00  0.00    +0.000 OA
ENDBRANCH  19  20
ENDBRANCH  17  19
ENDBRANCH  15  17
ENDBRANCH   1  15
TORSDOF 6
ENDMDL
MODEL 3
REMARK VINA RESULT:      -7.5      0.578      1.619
REMARK  Name = 
REMARK  8 active torsions:
REMARK  status: ('A' for Active; 'I' for Inactive)
REMARK    1  A    between atoms: C_1  and  N_2
REMARK    2  A    between atoms: N_2  and  C_3
REMARK    3  A    between atoms: N_2  and  C_4
REMARK    4  A    between atoms: N_2  and  C_19
REMARK    5  A    between atoms: C_4  and  C_5
REMARK    6  A    between atoms: C_5  and  C_7
REMARK    7  A    between atoms: C_10  and  C_11
REMARK    8  A    between atoms: C_19  and  C_20
REMARK                            x       y       z     vdW  Elec       q    Type
REMARK                         _______ _______ _______ _____ _____    ______ ____
ROOT
ATOM      1  C   UNL     1       3.954   5.148  17.906  0.00  0.00    +0.000 C 
ATOM      2  O   UNL     1       3.415   4.417  17.069  0.00  0.00    +0.000 OA
ENDROOT
BRANCH   1   3
ATOM      3  C   UNL     1       3.102   6.049  18.706  0.00  0.00    +0.000 A 
ATOM      4  C   UNL     1       2.864   7.313  18.178  0.00  0.00    +0.000 A 
ATOM      5  C   UNL     1       2.101   8.228  18.887  0.00  0.00    +0.000 A 
ATOM      6  C   UNL     1       1.525   7.901  20.127  0.00  0.00    +0.000 A 
ATOM      7  C   UNL     1       1.756   6.609  20.634  0.00  0.00    +0.000 A 
ATOM      8  C   UNL     1       2.548   5.687  19.941  0.00  0.00    +0.000 A 
BRANCH   6   9
ATOM      9  C   UNL     1       0.745   8.918  20.861  0.00  0.00    +0.000 A 
ATOM     10  C   UNL     1       0.371  10.124  20.239  0.00  0.00    +0.000 A 
ATOM     11  C   UNL     1      -0.242  11.152  20.952  0.00  0.00    +0.000 A 
ATOM     12  C   UNL     1      -0.533  10.980  22.300  0.00  0.00    +0.000 A 
ATOM     13  C   UNL     1      -0.219   9.779  22.929  0.00  0.00    +0.000 A 
ATOM     14  C   UNL     1       0.417   8.757  22.217  0.00  0.00    +0.000 A 
ENDBRANCH   6   9
ENDBRANCH   1   3
BRANCH   1  15
ATOM     15  C   UNL     1       5.458   5.231  18.095  0.00  0.00    +0.000 C 
BRANCH  15  17
ATOM     16  C   UNL     1       5.295   6.656  16.024  0.00  0.00    +0.000 C 
ATOM     17  N   UNL     1       6.261   5.889  16.930  0.00  0.00    +0.000 N 
ATOM     18  C   UNL     1       7.293   6.881  17.464  0.00  0.00    +0.000 C 
BRANCH  17  19
ATOM     19  C   UNL     1       6.951   4.776  16.062  0.00  0.00    +0.000 C 
BRANCH  19  20
ATOM     20  C   UNL     1       6.675   4.803  14.522  0.00  0.00    +0.000 C 
ATOM     21  O   UNL     1       7.853   5.224  13.841  0.00  0.00    +0.000 OA
ATOM     22  C   UNL     1       7.652   5.288  12.430  0.00  0.00    +0.000 C 
ATOM     23  C   UNL     1       7.212   3.932  11.914  0.00  0.00    +0.000 C 
ATOM     24  C   UNL     1       5.979   3.486  12.681  0.00  0.00    +0.000 C 
ATOM     25  O   UNL     1       6.226   3.520  14.088  0.00  0.00    +0.000 OA
ENDBRANCH  19  20
ENDBRANCH  17  19
ENDBRANCH  15  17
ENDBRANCH   1  15
TORSDOF 6
ENDMDL
MODEL 4
REMARK VINA RESULT:      -7.5      0.808      1.393
REMARK  Name = 
REMARK  8 active torsions:
REMARK  status: ('A' for Active; 'I' for Inactive)
REMARK    1  A    between atoms: C_1  and  N_2
REMARK    2  A    between atoms: N_2  and  C_3
REMARK    3  A    between atoms: N_2  and  C_4
REMARK    4  A    between atoms: N_2  and  C_19
REMARK    5  A    between atoms: C_4  and  C_5
REMARK    6  A    between atoms: C_5  and  C_7
REMARK    7  A    between atoms: C_10  and  C_11
REMARK    8  A    between atoms: C_19  and  C_20
REMARK                            x       y       z     vdW  Elec       q    Type
REMARK                         _______ _______ _______ _____ _____    ______ ____
ROOT
ATOM      1  C   UNL     1       3.844   4.592  17.969  0.00  0.00    +0.000 C 
ATOM      2  O   UNL     1       3.201   3.887  17.186  0.00  0.00    +0.000 OA
ENDROOT
BRANCH   1   3
ATOM      3  C   UNL     1       3.162   5.730  18.616  0.00  0.00    +0.000 A 
ATOM      4  C   UNL     1       2.705   5.526  19.914  0.00  0.00    +0.000 A 
ATOM      5  C   UNL     1       2.024   6.536  20.574  0.00  0.00    +0.000 A 
ATOM      6  C   UNL     1       1.806   7.790  19.977  0.00  0.00    +0.000 A 
ATOM      7  C   UNL     1       2.296   7.986  18.672  0.00  0.00    +0.000 A 
ATOM      8  C   UNL     1       2.960   6.964  17.985  0.00  0.00    +0.000 A 
BRANCH   6   9
ATOM      9  C   UNL     1       1.049   8.826  20.708  0.00  0.00    +0.000 A 
ATOM     10  C   UNL     1       0.788   8.689  22.085  0.00  0.00    +0.000 A 
ATOM     11  C   UNL     1      -0.039   9.582  22.762  0.00  0.00    +0.000 A 
ATOM     12  C   UNL     1      -0.596  10.659  22.084  0.00  0.00    +0.000 A 
ATOM     13  C   UNL     1      -0.315  10.847  20.733  0.00  0.00    +0.000 A 
ATOM     14  C   UNL     1       0.497   9.938  20.050  0.00  0.00    +0.000 A 
ENDBRANCH   6   9
ENDBRANCH   1   3
BRANCH   1  15
ATOM     15  C   UNL     1       5.328   4.404  18.235  0.00  0.00    +0.000 C 
BRANCH  15  17
ATOM     16  C   UNL     1       6.518   6.578  17.786  0.00  0.00    +0.000 C 
ATOM     17  N   UNL     1       6.299   5.153  17.271  0.00  0.00    +0.000 N 
ATOM     18  C   UNL     1       7.659   4.460  17.211  0.00  0.00    +0.000 C 
BRANCH  17  19
ATOM     19  C   UNL     1       5.658   5.254  15.840  0.00  0.00    +0.000 C 
BRANCH  19  20
ATOM     20  C   UNL     1       6.456   4.608  14.658  0.00  0.00    +0.000 C 
ATOM     21  O   UNL     1       5.540   4.025  13.736  0.00  0.00    +0.000 OA
ATOM     22  C   UNL     1       6.215   3.401  12.645  0.00  0.00    +0.000 C 
ATOM     23  C   UNL     1       7.089   4.417  11.936  0.00  0.00    +0.000 C 
ATOM     24  C   UNL     1       8.030   5.053  12.945  0.00  0.00    +0.000 C 
ATOM     25  O   UNL     1       7.294   5.588  14.047  0.00  0.00    +0.000 OA
ENDBRANCH  19  20
ENDBRANCH  17  19
ENDBRANCH  15  17
ENDBRANCH   1  15
TORSDOF 6
ENDMDL
MODEL 5
REMARK VINA RESULT:      -7.5      4.549      9.017
REMARK  Name = 
REMARK  8 active torsions:
REMARK  status: ('A' for Active; 'I' for Inactive)
REMARK    1  A    between atoms: C_1  and  N_2
REMARK    2  A    between atoms: N_2  and  C_3
REMARK    3  A    between atoms: N_2  and  C_4
REMARK    4  A    between atoms: N_2  and  C_19
REMARK    5  A    between atoms: C_4  and  C_5
REMARK    6  A    between atoms: C_5  and  C_7
REMARK    7  A    between atoms: C_10  and  C_11
REMARK    8  A    between atoms: C_19  and  C_20
REMARK                            x       y       z     vdW  Elec       q    Type
REMARK                         _______ _______ _______ _____ _____    ______ ____
ROOT
ATOM      1  C   UNL     1       0.297  10.337  20.624  0.00  0.00    +0.000 C 
ATOM      2  O   UNL     1      -0.398   9.944  21.565  0.00  0.00    +0.000 OA
ENDROOT
BRANCH   1   3
ATOM      3  C   UNL     1       1.051   9.340  19.840  0.00  0.00    +0.000 A 
ATOM      4  C   UNL     1       1.478   8.205  20.521  0.00  0.00    +0.000 A 
ATOM      5  C   UNL     1       2.220   7.239  19.860  0.00  0.00    +0.000 A 
ATOM      6  C   UNL     1       2.533   7.357  18.495  0.00  0.00    +0.000 A 
ATOM      7  C   UNL     1       2.072   8.501  17.816  0.00  0.00    +0.000 A 
ATOM      8  C   UNL     1       1.346   9.496  18.480  0.00  0.00    +0.000 A 
BRANCH   6   9
ATOM      9  C   UNL     1       3.353   6.319  17.840  0.00  0.00    +0.000 A 
ATOM     10  C   UNL     1       4.460   6.673  17.045  0.00  0.00    +0.000 A 
ATOM     11  C   UNL     1       5.162   5.721  16.309  0.00  0.00    +0.000 A 
ATOM     12  C   UNL     1       4.796   4.383  16.381  0.00  0.00    +0.000 A 
ATOM     13  C   UNL     1       3.736   3.997  17.198  0.00  0.00    +0.000 A 
ATOM     14  C   UNL     1       3.019   4.957  17.919  0.00  0.00    +0.000 A 
ENDBRANCH   6   9
ENDBRANCH   1   3
BRANCH   1  15
ATOM     15  C   UNL     1       0.485  11.805  20.283  0.00  0.00    +0.000 C 
BRANCH  15  17
ATOM     16  C   UNL     1      -1.344  13.497  20.653  0.00  0.00    +0.000 C 
ATOM     17  N   UNL     1      -0.741  12.523  19.638  0.00  0.00    +0.000 N 
ATOM     18  C   UNL     1      -0.324  13.325  18.407  0.00  0.00    +0.000 C 
BRANCH  17  19
ATOM     19  C   UNL     1      -1.845  11.467  19.271  0.00  0.00    +0.000 C 
BRANCH  19  20
ATOM     20  C   UNL     1      -2.504  11.591  17.857  0.00  0.00    +0.000 C 
ATOM     21  O   UNL     1      -2.008  10.554  17.015  0.00  0.00    +0.000 OA
ATOM     22  C   UNL     1      -2.560  10.632  15.702  0.00  0.00    +0.000 C 
ATOM     23  C   UNL     1      -4.073  10.558  15.778  0.00  0.00    +0.000 C 
ATOM     24  C   UNL     1      -4.575  11.647  16.711  0.00  0.00    +0.000 C 
ATOM     25  O   UNL     1      -3.925  11.558  17.980  0.00  0.00    +0.000 OA
ENDBRANCH  19  20
ENDBRANCH  17  19
ENDBRANCH  15  17
ENDBRANCH   1  15
TORSDOF 6
ENDMDL
MODEL 6
REMARK VINA RESULT:      -7.4      2.270      4.688
REMARK  Name = 
REMARK  8 active torsions:
REMARK  status: ('A' for Active; 'I' for Inactive)
REMARK    1  A    between atoms: C_1  and  N_2
REMARK    2  A    between atoms: N_2  and  C_3
REMARK    3  A    between atoms: N_2  and  C_4
REMARK    4  A    between atoms: N_2  and  C_19
REMARK    5  A    between atoms: C_4  and  C_5
REMARK    6  A    between atoms: C_5  and  C_7
REMARK    7  A    between atoms: C_10  and  C_11
REMARK    8  A    between atoms: C_19  and  C_20
REMARK                            x       y       z     vdW  Elec       q    Type
REMARK                         _______ _______ _______ _____ _____    ______ ____
ROOT
ATOM      1  C   UNL     1       3.743   6.780  17.379  0.00  0.00    +0.000 C 
ATOM      2  O   UNL     1       4.530   7.476  16.731  0.00  0.00    +0.000 OA
ENDROOT
BRANCH   1   3
ATOM      3  C   UNL     1       2.835   7.446  18.333  0.00  0.00    +0.000 A 
ATOM      4  C   UNL     1       2.260   8.642  17.916  0.00  0.00    +0.000 A 
ATOM      5  C   UNL     1       1.423   9.343  18.769  0.00  0.00    +0.000 A 
ATOM      6  C   UNL     1       1.106   8.860  20.051  0.00  0.00    +0.000 A 
ATOM      7  C   UNL     1       1.678   7.636  20.447  0.00  0.00    +0.000 A 
ATOM      8  C   UNL     1       2.547   6.934  19.605  0.00  0.00    +0.000 A 
BRANCH   6   9
ATOM      9  C   UNL     1       0.234   9.656  20.938  0.00  0.00    +0.000 A 
ATOM     10  C   UNL     1      -0.375  10.837  20.473  0.00  0.00    +0.000 A 
ATOM     11  C   UNL     1      -1.088  11.674  21.330  0.00  0.00    +0.000 A 
ATOM     12  C   UNL     1      -1.240  11.328  22.667  0.00  0.00    +0.000 A 
ATOM     13  C   UNL     1      -0.689  10.140  23.142  0.00  0.00    +0.000 A 
ATOM     14  C   UNL     1       0.044   9.313  22.286  0.00  0.00    +0.000 A 
ENDBRANCH   6   9
ENDBRANCH   1   3
BRANCH   1  15
ATOM     15  C   UNL     1       3.719   5.263  17.309  0.00  0.00    +0.000 C 
BRANCH  15  17
ATOM     16  C   UNL     1       5.778   3.976  16.639  0.00  0.00    +0.000 C 
ATOM     17  N   UNL     1       4.995   4.532  17.831  0.00  0.00    +0.000 N 
ATOM     18  C   UNL     1       5.910   5.494  18.588  0.00  0.00    +0.000 C 
BRANCH  17  19
ATOM     19  C   UNL     1       4.582   3.320  18.741  0.00  0.00    +0.000 C 
BRANCH  19  20
ATOM     20  C   UNL     1       3.187   3.406  19.447  0.00  0.00    +0.000 C 
ATOM     21  O   UNL     1       2.505   2.164  19.293  0.00  0.00    +0.000 OA
ATOM     22  C   UNL     1       1.215   2.193  19.900  0.00  0.00    +0.000 C 
ATOM     23  C   UNL     1       1.350   2.530  21.372  0.00  0.00    +0.000 C 
ATOM     24  C   UNL     1       2.113   3.836  21.513  0.00  0.00    +0.000 C 
ATOM     25  O   UNL     1       3.360   3.765  20.817  0.00  0.00    +0.000 OA
ENDBRANCH  19  20
ENDBRANCH  17  19
ENDBRANCH  15  17
ENDBRANCH   1  15
TORSDOF 6
ENDMDL
MODEL 7
REMARK VINA RESULT:      -7.4      3.934      7.292
REMARK  Name = 
REMARK  8 active torsions:
REMARK  status: ('A' for Active; 'I' for Inactive)
REMARK    1  A    between atoms: C_1  and  N_2
REMARK    2  A    between atoms: N_2  and  C_3
REMARK    3  A    between atoms: N_2  and  C_4
REMARK    4  A    between atoms: N_2  and  C_19
REMARK    5  A    between atoms: C_4  and  C_5
REMARK    6  A    between atoms: C_5  and  C_7
REMARK    7  A    between atoms: C_10  and  C_11
REMARK    8  A    between atoms: C_19  and  C_20
REMARK                            x       y       z     vdW  Elec       q    Type
REMARK                         _______ _______ _______ _____ _____    ______ ____
ROOT
ATOM      1  C   UNL     1       7.132   5.072  17.660  0.00  0.00    +0.000 C 
ATOM      2  O   UNL     1       7.897   4.288  17.091  0.00  0.00    +0.000 OA
ENDROOT
BRANCH   1   3
ATOM      3  C   UNL     1       7.583   6.460  17.882  0.00  0.00    +0.000 A 
ATOM      4  C   UNL     1       8.377   6.686  19.002  0.00  0.00    +0.000 A 
ATOM      5  C   UNL     1       8.811   7.968  19.296  0.00  0.00    +0.000 A 
ATOM      6  C   UNL     1       8.496   9.060  18.468  0.00  0.00    +0.000 A 
ATOM      7  C   UNL     1       7.712   8.809  17.326  0.00  0.00    +0.000 A 
ATOM      8  C   UNL     1       7.245   7.522  17.035  0.00  0.00    +0.000 A 
BRANCH   6   9
ATOM      9  C   UNL     1       8.955  10.414  18.837  0.00  0.00    +0.000 A 
ATOM     10  C   UNL     1       9.388  10.693  20.147  0.00  0.00    +0.000 A 
ATOM     11  C   UNL     1       9.693  11.991  20.553  0.00  0.00    +0.000 A 
ATOM     12  C   UNL     1       9.608  13.037  19.643  0.00  0.00    +0.000 A 
ATOM     13  C   UNL     1       9.230  12.783  18.327  0.00  0.00    +0.000 A 
ATOM     14  C   UNL     1       8.903  11.484  17.928  0.00  0.00    +0.000 A 
ENDBRANCH   6   9
ENDBRANCH   1   3
BRANCH   1  15
ATOM     15  C   UNL     1       5.783   4.661  18.221  0.00  0.00    +0.000 C 
BRANCH  15  17
ATOM     16  C   UNL     1       3.962   6.165  17.345  0.00  0.00    +0.000 C 
ATOM     17  N   UNL     1       4.571   4.765  17.242  0.00  0.00    +0.000 N 
ATOM     18  C   UNL     1       5.012   4.548  15.796  0.00  0.00    +0.000 C 
BRANCH  17  19
ATOM     19  C   UNL     1       3.464   3.728  17.651  0.00  0.00    +0.000 C 
BRANCH  19  20
ATOM     20  C   UNL     1       2.916   3.815  19.114  0.00  0.00    +0.000 C 
ATOM     21  O   UNL     1       1.499   3.961  19.078  0.00  0.00    +0.000 OA
ATOM     22  C   UNL     1       0.946   4.067  20.389  0.00  0.00    +0.000 C 
ATOM     23  C   UNL     1       1.320   2.843  21.202  0.00  0.00    +0.000 C 
ATOM     24  C   UNL     1       2.831   2.685  21.194  0.00  0.00    +0.000 C 
ATOM     25  O   UNL     1       3.325   2.664  19.853  0.00  0.00    +0.000 OA
ENDBRANCH  19  20
ENDBRANCH  17  19
ENDBRANCH  15  17
ENDBRANCH   1  15
TORSDOF 6
ENDMDL
MODEL 8
REMARK VINA RESULT:      -7.4      0.858      1.959
REMARK  Name = 
REMARK  8 active torsions:
REMARK  status: ('A' for Active; 'I' for Inactive)
REMARK    1  A    between atoms: C_1  and  N_2
REMARK    2  A    between atoms: N_2  and  C_3
REMARK    3  A    between atoms: N_2  and  C_4
REMARK    4  A    between atoms: N_2  and  C_19
REMARK    5  A    between atoms: C_4  and  C_5
REMARK    6  A    between atoms: C_5  and  C_7
REMARK    7  A    between atoms: C_10  and  C_11
REMARK    8  A    between atoms: C_19  and  C_20
REMARK                            x       y       z     vdW  Elec       q    Type
REMARK                         _______ _______ _______ _____ _____    ______ ____
ROOT
ATOM      1  C   UNL     1       3.816   4.569  18.033  0.00  0.00    +0.000 C 
ATOM      2  O   UNL     1       3.229   3.891  17.185  0.00  0.00    +0.000 OA
ENDROOT
BRANCH   1   3
ATOM      3  C   UNL     1       3.048   5.590  18.772  0.00  0.00    +0.000 A 
ATOM      4  C   UNL     1       2.894   6.825  18.151  0.00  0.00    +0.000 A 
ATOM      5  C   UNL     1       2.214   7.846  18.797  0.00  0.00    +0.000 A 
ATOM      6  C   UNL     1       1.640   7.660  20.066  0.00  0.00    +0.000 A 
ATOM      7  C   UNL     1       1.785   6.396  20.670  0.00  0.00    +0.000 A 
ATOM      8  C   UNL     1       2.494   5.367  20.039  0.00  0.00    +0.000 A 
BRANCH   6   9
ATOM      9  C   UNL     1       0.952   8.785  20.730  0.00  0.00    +0.000 A 
ATOM     10  C   UNL     1       0.816  10.027  20.081  0.00  0.00    +0.000 A 
ATOM     11  C   UNL     1       0.295  11.139  20.738  0.00  0.00    +0.000 A 
ATOM     12  C   UNL     1      -0.141  11.024  22.053  0.00  0.00    +0.000 A 
ATOM     13  C   UNL     1      -0.064   9.795  22.703  0.00  0.00    +0.000 A 
ATOM     14  C   UNL     1       0.479   8.686  22.049  0.00  0.00    +0.000 A 
ENDBRANCH   6   9
ENDBRANCH   1   3
BRANCH   1  15
ATOM     15  C   UNL     1       5.308   4.467  18.297  0.00  0.00    +0.000 C 
BRANCH  15  17
ATOM     16  C   UNL     1       6.447   6.598  17.586  0.00  0.00    +0.000 C 
ATOM     17  N   UNL     1       6.239   5.124  17.231  0.00  0.00    +0.000 N 
ATOM     18  C   UNL     1       7.609   4.449  17.206  0.00  0.00    +0.000 C 
BRANCH  17  19
ATOM     19  C   UNL     1       5.559   5.062  15.816  0.00  0.00    +0.000 C 
BRANCH  19  20
ATOM     20  C   UNL     1       6.432   4.533  14.631  0.00  0.00    +0.000 C 
ATOM     21  O   UNL     1       5.586   3.933  13.654  0.00  0.00    +0.000 OA
ATOM     22  C   UNL     1       6.334   3.412  12.557  0.00  0.00    +0.000 C 
ATOM     23  C   UNL     1       7.152   4.520  11.923  0.00  0.00    +0.000 C 
ATOM     24  C   UNL     1       8.016   5.170  12.990  0.00  0.00    +0.000 C 
ATOM     25  O   UNL     1       7.214   5.598  14.092  0.00  0.00    +0.000 OA
ENDBRANCH  19  20
ENDBRANCH  17  19
ENDBRANCH  15  17
ENDBRANCH   1  15
TORSDOF 6
ENDMDL
MODEL 9
REMARK VINA RESULT:      -7.3      4.363      8.840
REMARK  Name = 
REMARK  8 active torsions:
REMARK  status: ('A' for Active; 'I' for Inactive)
REMARK    1  A    between atoms: C_1  and  N_2
REMARK    2  A    between atoms: N_2  and  C_3
REMARK    3  A    between atoms: N_2  and  C_4
REMARK    4  A    between atoms: N_2  and  C_19
REMARK    5  A    between atoms: C_4  and  C_5
REMARK    6  A    between atoms: C_5  and  C_7
REMARK    7  A    between atoms: C_10  and  C_11
REMARK    8  A    between atoms: C_19  and  C_20
REMARK                            x       y       z     vdW  Elec       q    Type
REMARK                         _______ _______ _______ _____ _____    ______ ____
ROOT
ATOM      1  C   UNL     1       0.537   9.803  20.790  0.00  0.00    +0.000 C 
ATOM      2  O   UNL     1      -0.330   9.292  21.505  0.00  0.00    +0.000 OA
ENDROOT
BRANCH   1   3
ATOM      3  C   UNL     1       1.296   8.931  19.872  0.00  0.00    +0.000 A 
ATOM      4  C   UNL     1       1.716   7.706  20.381  0.00  0.00    +0.000 A 
ATOM      5  C   UNL     1       2.463   6.848  19.591  0.00  0.00    +0.000 A 
ATOM      6  C   UNL     1       2.787   7.165  18.260  0.00  0.00    +0.000 A 
ATOM      7  C   UNL     1       2.332   8.398  17.754  0.00  0.00    +0.000 A 
ATOM      8  C   UNL     1       1.602   9.285  18.552  0.00  0.00    +0.000 A 
BRANCH   6   9
ATOM      9  C   UNL     1       3.611   6.233  17.465  0.00  0.00    +0.000 A 
ATOM     10  C   UNL     1       3.400   4.843  17.543  0.00  0.00    +0.000 A 
ATOM     11  C   UNL     1       4.253   3.941  16.910  0.00  0.00    +0.000 A 
ATOM     12  C   UNL     1       5.317   4.412  16.150  0.00  0.00    +0.000 A 
ATOM     13  C   UNL     1       5.519   5.783  16.015  0.00  0.00    +0.000 A 
ATOM     14  C   UNL     1       4.676   6.686  16.669  0.00  0.00    +0.000 A 
ENDBRANCH   6   9
ENDBRANCH   1   3
BRANCH   1  15
ATOM     15  C   UNL     1       0.924  11.269  20.866  0.00  0.00    +0.000 C 
BRANCH  15  17
ATOM     16  C   UNL     1      -0.244  13.486  21.123  0.00  0.00    +0.000 C 
ATOM     17  N   UNL     1      -0.068  12.276  20.203  0.00  0.00    +0.000 N 
ATOM     18  C   UNL     1       0.469  12.776  18.863  0.00  0.00    +0.000 C 
BRANCH  17  19
ATOM     19  C   UNL     1      -1.475  11.600  20.025  0.00  0.00    +0.000 C 
BRANCH  19  20
ATOM     20  C   UNL     1      -1.995  11.418  18.560  0.00  0.00    +0.000 C 
ATOM     21  O   UNL     1      -1.700  10.097  18.117  0.00  0.00    +0.000 OA
ATOM     22  C   UNL     1      -2.134   9.882  16.775  0.00  0.00    +0.000 C 
ATOM     23  C   UNL     1      -3.624  10.141  16.672  0.00  0.00    +0.000 C 
ATOM     24  C   UNL     1      -3.920  11.540  17.186  0.00  0.00    +0.000 C 
ATOM     25  O   UNL     1      -3.391  11.712  18.503  0.00  0.00    +0.000 OA
ENDBRANCH  19  20
ENDBRANCH  17  19
ENDBRANCH  15  17
ENDBRANCH   1  15
TORSDOF 6
ENDMDL
