MODEL 1
REMARK VINA RESULT:      -8.1      0.000      0.000
REMARK  Name = 
REMARK  5 active torsions:
REMARK  status: ('A' for Active; 'I' for Inactive)
REMARK    1  A    between atoms: C_2  and  C_27
REMARK    2  A    between atoms: N_3  and  C_4
REMARK    3  A    between atoms: C_6  and  C_7
REMARK    4  A    between atoms: N_10  and  C_11
REMARK    5  A    between atoms: N_18  and  C_19
REMARK                            x       y       z     vdW  Elec       q    Type
REMARK                         _______ _______ _______ _____ _____    ______ ____
ROOT
ATOM      1  C   UNL     1       2.692   6.909  18.939  0.00  0.00    +0.000 A 
ATOM      2  C   UNL     1       2.252   8.074  19.524  0.00  0.00    +0.000 A 
ATOM      3  C   UNL     1       1.487   7.679  20.650  0.00  0.00    +0.000 A 
ATOM      4  N   UNL     1       1.391   6.347  20.718  0.00  0.00    +0.000 NA
ATOM      5  N   UNL     1       2.075   5.876  19.639  0.00  0.00    +0.000 N 
ENDROOT
BRANCH   5   6
ATOM      6  C   UNL     1       2.250   4.481  19.456  0.00  0.00    +0.000 A 
ATOM      7  C   UNL     1       2.890   3.710  20.446  0.00  0.00    +0.000 A 
ATOM      8  C   UNL     1       3.160   2.363  20.198  0.00  0.00    +0.000 A 
ATOM      9  C   UNL     1       2.769   1.785  18.996  0.00  0.00    +0.000 A 
ATOM     10  F   UNL     1       3.047   0.497  18.757  0.00  0.00    +0.000 F 
ATOM     11  C   UNL     1       2.095   2.520  18.034  0.00  0.00    +0.000 A 
ATOM     12  C   UNL     1       1.835   3.861  18.273  0.00  0.00    +0.000 A 
ATOM     13  F   UNL     1       1.131   4.535  17.353  0.00  0.00    +0.000 F 
ENDBRANCH   5   6
BRANCH   3  14
ATOM     14  C   UNL     1       0.867   8.581  21.709  0.00  0.00    +0.000 C 
ATOM     15  C   UNL     1      -0.655   8.716  21.566  0.00  0.00    +0.000 C 
ATOM     16  C   UNL     1      -1.028   9.470  20.288  0.00  0.00    +0.000 C 
ATOM     17  N   UNL     1      -0.406  10.802  20.183  0.00  0.00    +0.000 NA
ATOM     18  C   UNL     1       1.043  10.790  20.466  0.00  0.00    +0.000 C 
ATOM     19  C   UNL     1       1.422  10.011  21.731  0.00  0.00    +0.000 C 
BRANCH  17  20
ATOM     20  C   UNL     1      -0.619  11.303  18.805  0.00  0.00    +0.000 C 
ATOM     21  C   UNL     1      -1.231  10.183  17.920  0.00  0.00    +0.000 C 
ATOM     22  C   UNL     1      -2.182  11.253  17.352  0.00  0.00    +0.000 C 
ATOM     23  C   UNL     1      -1.986  12.020  18.678  0.00  0.00    +0.000 C 
ENDBRANCH  17  20
ENDBRANCH   3  14
BRANCH   1  26
ATOM     24  O   UNL     1       5.209   5.902  19.426  0.00  0.00    +0.000 OA
ATOM     25  C   UNL     1       4.950   6.259  18.285  0.00  0.00    +0.000 C 
ATOM     26  N   UNL     1       3.673   6.822  17.951  0.00  0.00    +0.000 N 
ATOM     27  H   UNL     1       3.438   6.943  16.964  0.00  0.00    +0.000 HD
BRANCH  25  28
ATOM     28  C   UNL     1       5.841   6.107  17.169  0.00  0.00    +0.000 A 
ATOM     29  C   UNL     1       7.117   6.704  17.103  0.00  0.00    +0.000 A 
ATOM     30  N   UNL     1       7.794   6.397  16.007  0.00  0.00    +0.000 NA
ATOM     31  N   UNL     1       6.992   5.538  15.344  0.00  0.00    +0.000 N 
ATOM     32  C   UNL     1       7.299   4.830  14.196  0.00  0.00    +0.000 A 
ATOM     33  C   UNL     1       6.400   3.998  13.654  0.00  0.00    +0.000 A 
ATOM     34  C   UNL     1       5.080   3.962  14.350  0.00  0.00    +0.000 A 
ATOM     35  N   UNL     1       4.762   4.590  15.451  0.00  0.00    +0.000 NA
ATOM     36  C   UNL     1       5.748   5.379  15.989  0.00  0.00    +0.000 A 
ENDBRANCH  25  28
ENDBRANCH   1  26
TORSDOF 5
ENDMDL
MODEL 2
REMARK VINA RESULT:      -7.9      6.564      9.747
REMARK  Name = 
REMARK  5 active torsions:
REMARK  status: ('A' for Active; 'I' for Inactive)
REMARK    1  A    between atoms: C_2  and  C_27
REMARK    2  A    between atoms: N_3  and  C_4
REMARK    3  A    between atoms: C_6  and  C_7
REMARK    4  A    between atoms: N_10  and  C_11
REMARK    5  A    between atoms: N_18  and  C_19
REMARK                            x       y       z     vdW  Elec       q    Type
REMARK                         _______ _______ _______ _____ _____    ______ ____
ROOT
ATOM      1  C   UNL     1      -1.187  13.455  21.273  0.00  0.00    +0.000 A 
ATOM      2  C   UNL     1      -0.862  14.779  21.468  0.00  0.00    +0.000 A 
ATOM      3  C   UNL     1       0.500  14.791  21.858  0.00  0.00    +0.000 A 
ATOM      4  N   UNL     1       0.975  13.546  21.975  0.00  0.00    +0.000 NA
ATOM      5  N   UNL     1      -0.072  12.727  21.678  0.00  0.00    +0.000 N 
ENDROOT
BRANCH   5   6
ATOM      6  C   UNL     1       0.113  11.323  21.617  0.00  0.00    +0.000 A 
ATOM      7  C   UNL     1       0.893  10.754  20.592  0.00  0.00    +0.000 A 
ATOM      8  C   UNL     1       0.967   9.364  20.477  0.00  0.00    +0.000 A 
ATOM      9  C   UNL     1       0.300   8.555  21.390  0.00  0.00    +0.000 A 
ATOM     10  F   UNL     1       0.361   7.223  21.264  0.00  0.00    +0.000 F 
ATOM     11  C   UNL     1      -0.430   9.102  22.433  0.00  0.00    +0.000 A 
ATOM     12  C   UNL     1      -0.514  10.482  22.542  0.00  0.00    +0.000 A 
ATOM     13  F   UNL     1      -1.176  10.987  23.592  0.00  0.00    +0.000 F 
ENDBRANCH   5   6
BRANCH   3  14
ATOM     14  C   UNL     1       1.385  16.009  22.087  0.00  0.00    +0.000 C 
ATOM     15  C   UNL     1       0.669  17.335  21.796  0.00  0.00    +0.000 C 
ATOM     16  C   UNL     1       0.356  17.481  20.306  0.00  0.00    +0.000 C 
ATOM     17  N   UNL     1       1.539  17.362  19.435  0.00  0.00    +0.000 NA
ATOM     18  C   UNL     1       2.378  16.190  19.755  0.00  0.00    +0.000 C 
ATOM     19  C   UNL     1       2.672  16.026  21.251  0.00  0.00    +0.000 C 
BRANCH  17  20
ATOM     20  C   UNL     1       1.071  17.247  18.034  0.00  0.00    +0.000 C 
ATOM     21  C   UNL     1      -0.480  17.299  17.985  0.00  0.00    +0.000 C 
ATOM     22  C   UNL     1      -0.336  18.240  16.774  0.00  0.00    +0.000 C 
ATOM     23  C   UNL     1       1.046  18.631  17.340  0.00  0.00    +0.000 C 
ENDBRANCH  17  20
ENDBRANCH   3  14
BRANCH   1  26
ATOM     24  O   UNL     1      -1.261  12.719  18.620  0.00  0.00    +0.000 OA
ATOM     25  C   UNL     1      -2.291  12.604  19.271  0.00  0.00    +0.000 C 
ATOM     26  N   UNL     1      -2.347  12.992  20.652  0.00  0.00    +0.000 N 
ATOM     27  H   UNL     1      -3.165  12.720  21.200  0.00  0.00    +0.000 HD
BRANCH  25  28
ATOM     28  C   UNL     1      -3.507  12.031  18.766  0.00  0.00    +0.000 A 
ATOM     29  C   UNL     1      -3.604  11.385  17.517  0.00  0.00    +0.000 A 
ATOM     30  N   UNL     1      -4.805  10.886  17.267  0.00  0.00    +0.000 NA
ATOM     31  N   UNL     1      -5.520  11.149  18.381  0.00  0.00    +0.000 N 
ATOM     32  C   UNL     1      -6.803  10.718  18.668  0.00  0.00    +0.000 A 
ATOM     33  C   UNL     1      -7.383  11.050  19.829  0.00  0.00    +0.000 A 
ATOM     34  C   UNL     1      -6.564  11.934  20.709  0.00  0.00    +0.000 A 
ATOM     35  N   UNL     1      -5.339  12.336  20.489  0.00  0.00    +0.000 NA
ATOM     36  C   UNL     1      -4.780  11.912  19.309  0.00  0.00    +0.000 A 
ENDBRANCH  25  28
ENDBRANCH   1  26
TORSDOF 5
ENDMDL
MODEL 3
REMARK VINA RESULT:      -7.8      6.787     10.546
REMARK  Name = 
REMARK  5 active torsions:
REMARK  status: ('A' for Active; 'I' for Inactive)
REMARK    1  A    between atoms: C_2  and  C_27
REMARK    2  A    between atoms: N_3  and  C_4
REMARK    3  A    between atoms: C_6  and  C_7
REMARK    4  A    between atoms: N_10  and  C_11
REMARK    5  A    between atoms: N_18  and  C_19
REMARK                            x       y       z     vdW  Elec       q    Type
REMARK                         _______ _______ _______ _____ _____    ______ ____
ROOT
ATOM      1  C   UNL     1      -0.270  13.419  20.730  0.00  0.00    +0.000 A 
ATOM      2  C   UNL     1       0.725  14.249  21.194  0.00  0.00    +0.000 A 
ATOM      3  C   UNL     1       1.762  14.190  20.229  0.00  0.00    +0.000 A 
ATOM      4  N   UNL     1       1.464  13.317  19.261  0.00  0.00    +0.000 NA
ATOM      5  N   UNL     1       0.250  12.799  19.598  0.00  0.00    +0.000 N 
ENDROOT
BRANCH   5   6
ATOM      6  C   UNL     1      -0.409  11.896  18.727  0.00  0.00    +0.000 A 
ATOM      7  C   UNL     1      -1.532  12.315  17.987  0.00  0.00    +0.000 A 
ATOM      8  C   UNL     1      -2.240  11.382  17.226  0.00  0.00    +0.000 A 
ATOM      9  C   UNL     1      -1.817  10.059  17.178  0.00  0.00    +0.000 A 
ATOM     10  F   UNL     1      -2.510   9.165  16.461  0.00  0.00    +0.000 F 
ATOM     11  C   UNL     1      -0.685   9.644  17.862  0.00  0.00    +0.000 A 
ATOM     12  C   UNL     1       0.013  10.567  18.627  0.00  0.00    +0.000 A 
ATOM     13  F   UNL     1       1.136  10.155  19.231  0.00  0.00    +0.000 F 
ENDBRANCH   5   6
BRANCH   3  14
ATOM     14  C   UNL     1       3.045  15.009  20.200  0.00  0.00    +0.000 C 
ATOM     15  C   UNL     1       2.964  16.284  21.050  0.00  0.00    +0.000 C 
ATOM     16  C   UNL     1       1.970  17.284  20.456  0.00  0.00    +0.000 C 
ATOM     17  N   UNL     1       2.256  17.646  19.057  0.00  0.00    +0.000 NA
ATOM     18  C   UNL     1       2.508  16.473  18.195  0.00  0.00    +0.000 C 
ATOM     19  C   UNL     1       3.483  15.456  18.799  0.00  0.00    +0.000 C 
BRANCH  17  20
ATOM     20  C   UNL     1       1.090  18.388  18.524  0.00  0.00    +0.000 C 
ATOM     21  C   UNL     1       1.099  18.350  16.972  0.00  0.00    +0.000 C 
ATOM     22  C   UNL     1      -0.415  18.073  17.044  0.00  0.00    +0.000 C 
ATOM     23  C   UNL     1      -0.161  17.479  18.446  0.00  0.00    +0.000 C 
ENDBRANCH  17  20
ENDBRANCH   3  14
BRANCH   1  26
ATOM     24  O   UNL     1      -1.066  11.537  22.577  0.00  0.00    +0.000 OA
ATOM     25  C   UNL     1      -1.893  12.361  22.213  0.00  0.00    +0.000 C 
ATOM     26  N   UNL     1      -1.570  13.359  21.232  0.00  0.00    +0.000 N 
ATOM     27  H   UNL     1      -2.227  14.127  21.086  0.00  0.00    +0.000 HD
BRANCH  25  28
ATOM     28  C   UNL     1      -3.222  12.465  22.748  0.00  0.00    +0.000 A 
ATOM     29  C   UNL     1      -3.548  12.170  24.088  0.00  0.00    +0.000 A 
ATOM     30  N   UNL     1      -4.821  12.378  24.385  0.00  0.00    +0.000 NA
ATOM     31  N   UNL     1      -5.358  12.870  23.249  0.00  0.00    +0.000 N 
ATOM     32  C   UNL     1      -6.639  13.365  23.079  0.00  0.00    +0.000 A 
ATOM     33  C   UNL     1      -7.029  13.836  21.887  0.00  0.00    +0.000 A 
ATOM     34  C   UNL     1      -6.009  13.723  20.804  0.00  0.00    +0.000 A 
ATOM     35  N   UNL     1      -4.781  13.293  20.931  0.00  0.00    +0.000 NA
ATOM     36  C   UNL     1      -4.425  12.881  22.191  0.00  0.00    +0.000 A 
ENDBRANCH  25  28
ENDBRANCH   1  26
TORSDOF 5
ENDMDL
MODEL 4
REMARK VINA RESULT:      -7.7      3.852      7.242
REMARK  Name = 
REMARK  5 active torsions:
REMARK  status: ('A' for Active; 'I' for Inactive)
REMARK    1  A    between atoms: C_2  and  C_27
REMARK    2  A    between atoms: N_3  and  C_4
REMARK    3  A    between atoms: C_6  and  C_7
REMARK    4  A    between atoms: N_10  and  C_11
REMARK    5  A    between atoms: N_18  and  C_19
REMARK                            x       y       z     vdW  Elec       q    Type
REMARK                         _______ _______ _______ _____ _____    ______ ____
ROOT
ATOM      1  C   UNL     1       0.999  11.601  18.945  0.00  0.00    +0.000 A 
ATOM      2  C   UNL     1       1.969  12.578  18.961  0.00  0.00    +0.000 A 
ATOM      3  C   UNL     1       1.302  13.794  18.669  0.00  0.00    +0.000 A 
ATOM      4  N   UNL     1       0.008  13.578  18.410  0.00  0.00    +0.000 NA
ATOM      5  N   UNL     1      -0.166  12.231  18.518  0.00  0.00    +0.000 N 
ENDROOT
BRANCH   5   6
ATOM      6  C   UNL     1      -1.460  11.665  18.393  0.00  0.00    +0.000 A 
ATOM      7  C   UNL     1      -1.686  10.603  17.495  0.00  0.00    +0.000 A 
ATOM      8  C   UNL     1      -2.987  10.138  17.296  0.00  0.00    +0.000 A 
ATOM      9  C   UNL     1      -4.043  10.700  18.005  0.00  0.00    +0.000 A 
ATOM     10  F   UNL     1      -5.291  10.261  17.797  0.00  0.00    +0.000 F 
ATOM     11  C   UNL     1      -3.827  11.711  18.927  0.00  0.00    +0.000 A 
ATOM     12  C   UNL     1      -2.537  12.183  19.119  0.00  0.00    +0.000 A 
ATOM     13  F   UNL     1      -2.347  13.120  20.057  0.00  0.00    +0.000 F 
ENDBRANCH   5   6
BRANCH   3  14
ATOM     14  C   UNL     1       1.893  15.197  18.674  0.00  0.00    +0.000 C 
ATOM     15  C   UNL     1       2.809  15.458  19.878  0.00  0.00    +0.000 C 
ATOM     16  C   UNL     1       2.016  15.473  21.186  0.00  0.00    +0.000 C 
ATOM     17  N   UNL     1       0.906  16.443  21.196  0.00  0.00    +0.000 NA
ATOM     18  C   UNL     1       0.061  16.368  19.987  0.00  0.00    +0.000 C 
ATOM     19  C   UNL     1       0.854  16.325  18.676  0.00  0.00    +0.000 C 
BRANCH  17  20
ATOM     20  C   UNL     1       0.065  16.169  22.385  0.00  0.00    +0.000 C 
ATOM     21  C   UNL     1      -1.438  16.277  22.009  0.00  0.00    +0.000 C 
ATOM     22  C   UNL     1      -1.660  14.997  22.837  0.00  0.00    +0.000 C 
ATOM     23  C   UNL     1      -0.183  14.650  22.554  0.00  0.00    +0.000 C 
ENDBRANCH  17  20
ENDBRANCH   3  14
BRANCH   1  26
ATOM     24  O   UNL     1       2.084   9.587  17.410  0.00  0.00    +0.000 OA
ATOM     25  C   UNL     1       1.757   9.315  18.558  0.00  0.00    +0.000 C 
ATOM     26  N   UNL     1       1.158  10.298  19.416  0.00  0.00    +0.000 N 
ATOM     27  H   UNL     1       1.061  10.081  20.409  0.00  0.00    +0.000 HD
BRANCH  25  28
ATOM     28  C   UNL     1       1.981   8.041  19.181  0.00  0.00    +0.000 A 
ATOM     29  C   UNL     1       1.435   7.679  20.430  0.00  0.00    +0.000 A 
ATOM     30  N   UNL     1       1.726   6.440  20.800  0.00  0.00    +0.000 NA
ATOM     31  N   UNL     1       2.433   5.936  19.767  0.00  0.00    +0.000 N 
ATOM     32  C   UNL     1       2.863   4.630  19.611  0.00  0.00    +0.000 A 
ATOM     33  C   UNL     1       3.548   4.271  18.518  0.00  0.00    +0.000 A 
ATOM     34  C   UNL     1       3.834   5.381  17.563  0.00  0.00    +0.000 A 
ATOM     35  N   UNL     1       3.420   6.618  17.659  0.00  0.00    +0.000 NA
ATOM     36  C   UNL     1       2.672   6.908  18.772  0.00  0.00    +0.000 A 
ENDBRANCH  25  28
ENDBRANCH   1  26
TORSDOF 5
ENDMDL
MODEL 5
REMARK VINA RESULT:      -7.7      4.423      7.963
REMARK  Name = 
REMARK  5 active torsions:
REMARK  status: ('A' for Active; 'I' for Inactive)
REMARK    1  A    between atoms: C_2  and  C_27
REMARK    2  A    between atoms: N_3  and  C_4
REMARK    3  A    between atoms: C_6  and  C_7
REMARK    4  A    between atoms: N_10  and  C_11
REMARK    5  A    between atoms: N_18  and  C_19
REMARK                            x       y       z     vdW  Elec       q    Type
REMARK                         _______ _______ _______ _____ _____    ______ ____
ROOT
ATOM      1  C   UNL     1      -1.019  11.915  20.716  0.00  0.00    +0.000 A 
ATOM      2  C   UNL     1      -0.774  12.837  21.709  0.00  0.00    +0.000 A 
ATOM      3  C   UNL     1      -1.707  13.884  21.506  0.00  0.00    +0.000 A 
ATOM      4  N   UNL     1      -2.438  13.666  20.407  0.00  0.00    +0.000 NA
ATOM      5  N   UNL     1      -1.978  12.494  19.889  0.00  0.00    +0.000 N 
ENDROOT
BRANCH   5   6
ATOM      6  C   UNL     1      -2.605  11.917  18.756  0.00  0.00    +0.000 A 
ATOM      7  C   UNL     1      -1.840  11.554  17.630  0.00  0.00    +0.000 A 
ATOM      8  C   UNL     1      -2.487  11.099  16.480  0.00  0.00    +0.000 A 
ATOM      9  C   UNL     1      -3.872  10.978  16.462  0.00  0.00    +0.000 A 
ATOM     10  F   UNL     1      -4.488  10.558  15.350  0.00  0.00    +0.000 F 
ATOM     11  C   UNL     1      -4.632  11.285  17.579  0.00  0.00    +0.000 A 
ATOM     12  C   UNL     1      -3.992  11.748  18.720  0.00  0.00    +0.000 A 
ATOM     13  F   UNL     1      -4.742  11.982  19.805  0.00  0.00    +0.000 F 
ENDBRANCH   5   6
BRANCH   3  14
ATOM     14  C   UNL     1      -1.940  15.099  22.393  0.00  0.00    +0.000 C 
ATOM     15  C   UNL     1      -2.396  14.729  23.811  0.00  0.00    +0.000 C 
ATOM     16  C   UNL     1      -3.794  14.107  23.799  0.00  0.00    +0.000 C 
ATOM     17  N   UNL     1      -4.816  14.955  23.162  0.00  0.00    +0.000 NA
ATOM     18  C   UNL     1      -4.391  15.490  21.853  0.00  0.00    +0.000 C 
ATOM     19  C   UNL     1      -2.980  16.090  21.855  0.00  0.00    +0.000 C 
BRANCH  17  20
ATOM     20  C   UNL     1      -6.039  14.140  22.972  0.00  0.00    +0.000 C 
ATOM     21  C   UNL     1      -6.020  12.921  23.932  0.00  0.00    +0.000 C 
ATOM     22  C   UNL     1      -7.505  13.216  24.216  0.00  0.00    +0.000 C 
ATOM     23  C   UNL     1      -7.208  14.681  23.831  0.00  0.00    +0.000 C 
ENDBRANCH  17  20
ENDBRANCH   3  14
BRANCH   1  26
ATOM     24  O   UNL     1       1.296  11.276  19.367  0.00  0.00    +0.000 OA
ATOM     25  C   UNL     1       0.722  10.378  19.969  0.00  0.00    +0.000 C 
ATOM     26  N   UNL     1      -0.506  10.619  20.673  0.00  0.00    +0.000 N 
ATOM     27  H   UNL     1      -0.856   9.892  21.300  0.00  0.00    +0.000 HD
BRANCH  25  28
ATOM     28  C   UNL     1       1.221   9.037  20.088  0.00  0.00    +0.000 A 
ATOM     29  C   UNL     1       0.900   8.179  21.160  0.00  0.00    +0.000 A 
ATOM     30  N   UNL     1       1.427   6.969  21.051  0.00  0.00    +0.000 NA
ATOM     31  N   UNL     1       2.070   6.986  19.865  0.00  0.00    +0.000 N 
ATOM     32  C   UNL     1       2.679   5.917  19.232  0.00  0.00    +0.000 A 
ATOM     33  C   UNL     1       3.271   6.083  18.042  0.00  0.00    +0.000 A 
ATOM     34  C   UNL     1       3.256   7.483  17.525  0.00  0.00    +0.000 A 
ATOM     35  N   UNL     1       2.666   8.512  18.075  0.00  0.00    +0.000 NA
ATOM     36  C   UNL     1       2.026   8.262  19.264  0.00  0.00    +0.000 A 
ENDBRANCH  25  28
ENDBRANCH   1  26
TORSDOF 5
ENDMDL
MODEL 6
REMARK VINA RESULT:      -7.6      6.847     10.676
REMARK  Name = 
REMARK  5 active torsions:
REMARK  status: ('A' for Active; 'I' for Inactive)
REMARK    1  A    between atoms: C_2  and  C_27
REMARK    2  A    between atoms: N_3  and  C_4
REMARK    3  A    between atoms: C_6  and  C_7
REMARK    4  A    between atoms: N_10  and  C_11
REMARK    5  A    between atoms: N_18  and  C_19
REMARK                            x       y       z     vdW  Elec       q    Type
REMARK                         _______ _______ _______ _____ _____    ______ ____
ROOT
ATOM      1  C   UNL     1       0.520  13.191  20.904  0.00  0.00    +0.000 A 
ATOM      2  C   UNL     1       1.529  14.073  21.218  0.00  0.00    +0.000 A 
ATOM      3  C   UNL     1       2.243  14.292  20.014  0.00  0.00    +0.000 A 
ATOM      4  N   UNL     1       1.757  13.532  19.026  0.00  0.00    +0.000 NA
ATOM      5  N   UNL     1       0.743  12.813  19.583  0.00  0.00    +0.000 N 
ENDROOT
BRANCH   5   6
ATOM      6  C   UNL     1      -0.057  11.963  18.780  0.00  0.00    +0.000 A 
ATOM      7  C   UNL     1      -1.255  12.441  18.214  0.00  0.00    +0.000 A 
ATOM      8  C   UNL     1      -2.089  11.558  17.526  0.00  0.00    +0.000 A 
ATOM      9  C   UNL     1      -1.719  10.226  17.376  0.00  0.00    +0.000 A 
ATOM     10  F   UNL     1      -2.532   9.380  16.730  0.00  0.00    +0.000 F 
ATOM     11  C   UNL     1      -0.520   9.754  17.885  0.00  0.00    +0.000 A 
ATOM     12  C   UNL     1       0.305  10.627  18.578  0.00  0.00    +0.000 A 
ATOM     13  F   UNL     1       1.485  10.161  19.010  0.00  0.00    +0.000 F 
ENDBRANCH   5   6
BRANCH   3  14
ATOM     14  C   UNL     1       3.386  15.271  19.781  0.00  0.00    +0.000 C 
ATOM     15  C   UNL     1       3.337  16.484  20.719  0.00  0.00    +0.000 C 
ATOM     16  C   UNL     1       2.129  17.372  20.416  0.00  0.00    +0.000 C 
ATOM     17  N   UNL     1       2.066  17.832  19.017  0.00  0.00    +0.000 NA
ATOM     18  C   UNL     1       2.266  16.743  18.040  0.00  0.00    +0.000 C 
ATOM     19  C   UNL     1       3.460  15.835  18.356  0.00  0.00    +0.000 C 
BRANCH  17  20
ATOM     20  C   UNL     1       0.734  18.439  18.790  0.00  0.00    +0.000 C 
ATOM     21  C   UNL     1       0.035  17.752  17.586  0.00  0.00    +0.000 C 
ATOM     22  C   UNL     1      -1.253  17.749  18.432  0.00  0.00    +0.000 C 
ATOM     23  C   UNL     1      -0.342  17.768  19.678  0.00  0.00    +0.000 C 
ENDBRANCH  17  20
ENDBRANCH   3  14
BRANCH   1  26
ATOM     24  O   UNL     1      -1.792  14.689  20.925  0.00  0.00    +0.000 OA
ATOM     25  C   UNL     1      -1.745  13.704  21.650  0.00  0.00    +0.000 C 
ATOM     26  N   UNL     1      -0.568  12.885  21.721  0.00  0.00    +0.000 N 
ATOM     27  H   UNL     1      -0.631  11.985  22.200  0.00  0.00    +0.000 HD
BRANCH  25  28
ATOM     28  C   UNL     1      -2.845  13.232  22.442  0.00  0.00    +0.000 A 
ATOM     29  C   UNL     1      -2.722  12.231  23.427  0.00  0.00    +0.000 A 
ATOM     30  N   UNL     1      -3.849  11.978  24.076  0.00  0.00    +0.000 NA
ATOM     31  N   UNL     1      -4.738  12.855  23.563  0.00  0.00    +0.000 N 
ATOM     32  C   UNL     1      -6.032  13.079  23.997  0.00  0.00    +0.000 A 
ATOM     33  C   UNL     1      -6.798  13.998  23.395  0.00  0.00    +0.000 A 
ATOM     34  C   UNL     1      -6.160  14.679  22.229  0.00  0.00    +0.000 A 
ATOM     35  N   UNL     1      -4.933  14.518  21.808  0.00  0.00    +0.000 NA
ATOM     36  C   UNL     1      -4.182  13.606  22.506  0.00  0.00    +0.000 A 
ENDBRANCH  25  28
ENDBRANCH   1  26
TORSDOF 5
ENDMDL
MODEL 7
REMARK VINA RESULT:      -7.6      5.622      9.388
REMARK  Name = 
REMARK  5 active torsions:
REMARK  status: ('A' for Active; 'I' for Inactive)
REMARK    1  A    between atoms: C_2  and  C_27
REMARK    2  A    between atoms: N_3  and  C_4
REMARK    3  A    between atoms: C_6  and  C_7
REMARK    4  A    between atoms: N_10  and  C_11
REMARK    5  A    between atoms: N_18  and  C_19
REMARK                            x       y       z     vdW  Elec       q    Type
REMARK                         _______ _______ _______ _____ _____    ______ ____
ROOT
ATOM      1  C   UNL     1       0.198  12.939  18.812  0.00  0.00    +0.000 A 
ATOM      2  C   UNL     1       0.754  14.176  18.574  0.00  0.00    +0.000 A 
ATOM      3  C   UNL     1       2.099  14.087  19.010  0.00  0.00    +0.000 A 
ATOM      4  N   UNL     1       2.346  12.892  19.557  0.00  0.00    +0.000 NA
ATOM      5  N   UNL     1       1.168  12.211  19.492  0.00  0.00    +0.000 N 
ENDROOT
BRANCH   5   6
ATOM      6  C   UNL     1       1.101  10.858  19.910  0.00  0.00    +0.000 A 
ATOM      7  C   UNL     1       0.720  10.540  21.229  0.00  0.00    +0.000 A 
ATOM      8  C   UNL     1       0.774   9.213  21.657  0.00  0.00    +0.000 A 
ATOM      9  C   UNL     1       1.170   8.213  20.776  0.00  0.00    +0.000 A 
ATOM     10  F   UNL     1       1.237   6.943  21.199  0.00  0.00    +0.000 F 
ATOM     11  C   UNL     1       1.500   8.505  19.463  0.00  0.00    +0.000 A 
ATOM     12  C   UNL     1       1.458   9.825  19.038  0.00  0.00    +0.000 A 
ATOM     13  F   UNL     1       1.725  10.075  17.749  0.00  0.00    +0.000 F 
ENDBRANCH   5   6
BRANCH   3  14
ATOM     14  C   UNL     1       3.188  15.142  18.869  0.00  0.00    +0.000 C 
ATOM     15  C   UNL     1       3.273  16.082  20.079  0.00  0.00    +0.000 C 
ATOM     16  C   UNL     1       2.027  16.964  20.184  0.00  0.00    +0.000 C 
ATOM     17  N   UNL     1       1.753  17.752  18.970  0.00  0.00    +0.000 NA
ATOM     18  C   UNL     1       1.811  16.948  17.732  0.00  0.00    +0.000 C 
ATOM     19  C   UNL     1       3.045  16.043  17.637  0.00  0.00    +0.000 C 
BRANCH  17  20
ATOM     20  C   UNL     1       0.398  18.338  19.096  0.00  0.00    +0.000 C 
ATOM     21  C   UNL     1      -0.496  17.869  17.916  0.00  0.00    +0.000 C 
ATOM     22  C   UNL     1      -1.617  17.651  18.950  0.00  0.00    +0.000 C 
ATOM     23  C   UNL     1      -0.504  17.466  20.003  0.00  0.00    +0.000 C 
ENDBRANCH  17  20
ENDBRANCH   3  14
BRANCH   1  26
ATOM     24  O   UNL     1      -1.968  12.438  20.439  0.00  0.00    +0.000 OA
ATOM     25  C   UNL     1      -2.115  12.287  19.235  0.00  0.00    +0.000 C 
ATOM     26  N   UNL     1      -1.030  12.498  18.318  0.00  0.00    +0.000 N 
ATOM     27  H   UNL     1      -1.238  12.530  17.318  0.00  0.00    +0.000 HD
BRANCH  25  28
ATOM     28  C   UNL     1      -3.362  11.949  18.609  0.00  0.00    +0.000 A 
ATOM     29  C   UNL     1      -3.466  11.468  17.288  0.00  0.00    +0.000 A 
ATOM     30  N   UNL     1      -4.705  11.172  16.923  0.00  0.00    +0.000 NA
ATOM     31  N   UNL     1      -5.446  11.404  18.027  0.00  0.00    +0.000 N 
ATOM     32  C   UNL     1      -6.791  11.127  18.200  0.00  0.00    +0.000 A 
ATOM     33  C   UNL     1      -7.393  11.402  19.364  0.00  0.00    +0.000 A 
ATOM     34  C   UNL     1      -6.521  12.059  20.381  0.00  0.00    +0.000 A 
ATOM     35  N   UNL     1      -5.242  12.309  20.268  0.00  0.00    +0.000 NA
ATOM     36  C   UNL     1      -4.672  11.948  19.073  0.00  0.00    +0.000 A 
ENDBRANCH  25  28
ENDBRANCH   1  26
TORSDOF 5
ENDMDL
MODEL 8
REMARK VINA RESULT:      -7.6      5.239      9.062
REMARK  Name = 
REMARK  5 active torsions:
REMARK  status: ('A' for Active; 'I' for Inactive)
REMARK    1  A    between atoms: C_2  and  C_27
REMARK    2  A    between atoms: N_3  and  C_4
REMARK    3  A    between atoms: C_6  and  C_7
REMARK    4  A    between atoms: N_10  and  C_11
REMARK    5  A    between atoms: N_18  and  C_19
REMARK                            x       y       z     vdW  Elec       q    Type
REMARK                         _______ _______ _______ _____ _____    ______ ____
ROOT
ATOM      1  C   UNL     1      -2.084  12.662  21.064  0.00  0.00    +0.000 A 
ATOM      2  C   UNL     1      -3.396  12.465  21.431  0.00  0.00    +0.000 A 
ATOM      3  C   UNL     1      -3.998  13.748  21.427  0.00  0.00    +0.000 A 
ATOM      4  N   UNL     1      -3.098  14.697  21.151  0.00  0.00    +0.000 NA
ATOM      5  N   UNL     1      -1.915  14.042  20.989  0.00  0.00    +0.000 N 
ENDROOT
BRANCH   5   6
ATOM      6  C   UNL     1      -0.753  14.751  20.593  0.00  0.00    +0.000 A 
ATOM      7  C   UNL     1      -0.073  15.571  21.514  0.00  0.00    +0.000 A 
ATOM      8  C   UNL     1       0.997  16.353  21.077  0.00  0.00    +0.000 A 
ATOM      9  C   UNL     1       1.404  16.296  19.748  0.00  0.00    +0.000 A 
ATOM     10  F   UNL     1       2.420  17.062  19.331  0.00  0.00    +0.000 F 
ATOM     11  C   UNL     1       0.776  15.456  18.843  0.00  0.00    +0.000 A 
ATOM     12  C   UNL     1      -0.295  14.686  19.273  0.00  0.00    +0.000 A 
ATOM     13  F   UNL     1      -0.848  13.839  18.394  0.00  0.00    +0.000 F 
ENDBRANCH   5   6
BRANCH   3  14
ATOM     14  C   UNL     1      -5.467  14.080  21.651  0.00  0.00    +0.000 C 
ATOM     15  C   UNL     1      -6.334  12.837  21.892  0.00  0.00    +0.000 C 
ATOM     16  C   UNL     1      -6.422  11.969  20.635  0.00  0.00    +0.000 C 
ATOM     17  N   UNL     1      -6.918  12.689  19.450  0.00  0.00    +0.000 NA
ATOM     18  C   UNL     1      -6.242  13.984  19.233  0.00  0.00    +0.000 C 
ATOM     19  C   UNL     1      -6.129  14.845  20.497  0.00  0.00    +0.000 C 
BRANCH  17  20
ATOM     20  C   UNL     1      -6.698  11.831  18.262  0.00  0.00    +0.000 C 
ATOM     21  C   UNL     1      -6.022  12.652  17.131  0.00  0.00    +0.000 C 
ATOM     22  C   UNL     1      -5.104  11.437  16.899  0.00  0.00    +0.000 C 
ATOM     23  C   UNL     1      -5.359  11.060  18.373  0.00  0.00    +0.000 C 
ENDBRANCH  17  20
ENDBRANCH   3  14
BRANCH   1  26
ATOM     24  O   UNL     1      -0.385  11.462  22.871  0.00  0.00    +0.000 OA
ATOM     25  C   UNL     1      -0.356  11.067  21.713  0.00  0.00    +0.000 C 
ATOM     26  N   UNL     1      -1.187  11.658  20.702  0.00  0.00    +0.000 N 
ATOM     27  H   UNL     1      -1.258  11.189  19.798  0.00  0.00    +0.000 HD
BRANCH  25  28
ATOM     28  C   UNL     1       0.442   9.965  21.256  0.00  0.00    +0.000 A 
ATOM     29  C   UNL     1       0.735   8.834  22.045  0.00  0.00    +0.000 A 
ATOM     30  N   UNL     1       1.446   7.912  21.414  0.00  0.00    +0.000 NA
ATOM     31  N   UNL     1       1.594   8.397  20.163  0.00  0.00    +0.000 N 
ATOM     32  C   UNL     1       2.157   7.747  19.079  0.00  0.00    +0.000 A 
ATOM     33  C   UNL     1       2.224   8.354  17.887  0.00  0.00    +0.000 A 
ATOM     34  C   UNL     1       1.706   9.753  17.866  0.00  0.00    +0.000 A 
ATOM     35  N   UNL     1       1.139  10.390  18.858  0.00  0.00    +0.000 NA
ATOM     36  C   UNL     1       1.048   9.691  20.036  0.00  0.00    +0.000 A 
ENDBRANCH  25  28
ENDBRANCH   1  26
TORSDOF 5
ENDMDL
MODEL 9
REMARK VINA RESULT:      -7.6      4.191      7.887
REMARK  Name = 
REMARK  5 active torsions:
REMARK  status: ('A' for Active; 'I' for Inactive)
REMARK    1  A    between atoms: C_2  and  C_27
REMARK    2  A    between atoms: N_3  and  C_4
REMARK    3  A    between atoms: C_6  and  C_7
REMARK    4  A    between atoms: N_10  and  C_11
REMARK    5  A    between atoms: N_18  and  C_19
REMARK                            x       y       z     vdW  Elec       q    Type
REMARK                         _______ _______ _______ _____ _____    ______ ____
ROOT
ATOM      1  C   UNL     1      -1.265  11.938  20.983  0.00  0.00    +0.000 A 
ATOM      2  C   UNL     1      -1.093  12.770  22.066  0.00  0.00    +0.000 A 
ATOM      3  C   UNL     1      -2.046  13.809  21.914  0.00  0.00    +0.000 A 
ATOM      4  N   UNL     1      -2.718  13.675  20.765  0.00  0.00    +0.000 NA
ATOM      5  N   UNL     1      -2.201  12.567  20.166  0.00  0.00    +0.000 N 
ENDROOT
BRANCH   5   6
ATOM      6  C   UNL     1      -2.757  12.082  18.956  0.00  0.00    +0.000 A 
ATOM      7  C   UNL     1      -4.120  11.730  18.893  0.00  0.00    +0.000 A 
ATOM      8  C   UNL     1      -4.623  11.143  17.731  0.00  0.00    +0.000 A 
ATOM      9  C   UNL     1      -3.790  10.940  16.636  0.00  0.00    +0.000 A 
ATOM     10  F   UNL     1      -4.275  10.360  15.531  0.00  0.00    +0.000 F 
ATOM     11  C   UNL     1      -2.460  11.327  16.668  0.00  0.00    +0.000 A 
ATOM     12  C   UNL     1      -1.955  11.900  17.826  0.00  0.00    +0.000 A 
ATOM     13  F   UNL     1      -0.682  12.320  17.811  0.00  0.00    +0.000 F 
ENDBRANCH   5   6
BRANCH   3  14
ATOM     14  C   UNL     1      -2.354  14.931  22.895  0.00  0.00    +0.000 C 
ATOM     15  C   UNL     1      -3.051  14.438  24.171  0.00  0.00    +0.000 C 
ATOM     16  C   UNL     1      -4.459  13.921  23.870  0.00  0.00    +0.000 C 
ATOM     17  N   UNL     1      -5.320  14.905  23.191  0.00  0.00    +0.000 NA
ATOM     18  C   UNL     1      -4.663  15.551  22.037  0.00  0.00    +0.000 C 
ATOM     19  C   UNL     1      -3.242  16.046  22.328  0.00  0.00    +0.000 C 
BRANCH  17  20
ATOM     20  C   UNL     1      -6.537  14.205  22.717  0.00  0.00    +0.000 C 
ATOM     21  C   UNL     1      -6.516  14.090  21.169  0.00  0.00    +0.000 C 
ATOM     22  C   UNL     1      -6.999  12.638  21.345  0.00  0.00    +0.000 C 
ATOM     23  C   UNL     1      -6.340  12.669  22.740  0.00  0.00    +0.000 C 
ENDBRANCH  17  20
ENDBRANCH   3  14
BRANCH   1  26
ATOM     24  O   UNL     1       1.224  11.504  19.886  0.00  0.00    +0.000 OA
ATOM     25  C   UNL     1       0.603  10.531  20.289  0.00  0.00    +0.000 C 
ATOM     26  N   UNL     1      -0.713  10.664  20.847  0.00  0.00    +0.000 N 
ATOM     27  H   UNL     1      -1.122   9.860  21.326  0.00  0.00    +0.000 HD
BRANCH  25  28
ATOM     28  C   UNL     1       1.120   9.191  20.306  0.00  0.00    +0.000 A 
ATOM     29  C   UNL     1       0.871   8.273  21.345  0.00  0.00    +0.000 A 
ATOM     30  N   UNL     1       1.402   7.077  21.140  0.00  0.00    +0.000 NA
ATOM     31  N   UNL     1       1.974   7.166  19.921  0.00  0.00    +0.000 N 
ATOM     32  C   UNL     1       2.555   6.140  19.196  0.00  0.00    +0.000 A 
ATOM     33  C   UNL     1       3.075   6.378  17.985  0.00  0.00    +0.000 A 
ATOM     34  C   UNL     1       3.016   7.804  17.547  0.00  0.00    +0.000 A 
ATOM     35  N   UNL     1       2.450   8.794  18.187  0.00  0.00    +0.000 NA
ATOM     36  C   UNL     1       1.883   8.472  19.395  0.00  0.00    +0.000 A 
ENDBRANCH  25  28
ENDBRANCH   1  26
TORSDOF 5
ENDMDL
