MODEL 1
REMARK VINA RESULT:      -7.6      0.000      0.000
REMARK  Name = 
REMARK  3 active torsions:
REMARK  status: ('A' for Active; 'I' for Inactive)
REMARK    1  A    between atoms: S_2  and  C_4
REMARK    2  A    between atoms: S_2  and  N_12
REMARK    3  A    between atoms: N_15  and  C_16
REMARK                            x       y       z     vdW  Elec       q    Type
REMARK                         _______ _______ _______ _____ _____    ______ ____
ROOT
ATOM      1  N   UNL     1       3.233   4.570  18.567  0.00  0.00    +0.000 NA
ATOM      2  C   UNL     1       2.327   4.501  19.759  0.00  0.00    +0.000 C 
ATOM      3  C   UNL     1       2.243   5.839  20.531  0.00  0.00    +0.000 C 
ATOM      4  N   UNL     1       1.922   6.952  19.612  0.00  0.00    +0.000 N 
ATOM      5  C   UNL     1       2.859   7.063  18.470  0.00  0.00    +0.000 C 
ATOM      6  C   UNL     1       2.876   5.734  17.692  0.00  0.00    +0.000 C 
ENDROOT
BRANCH   4   7
ATOM      7  C   UNL     1       1.456   8.159  20.141  0.00  0.00    +0.000 A 
ATOM      8  C   UNL     1       1.352   9.279  19.296  0.00  0.00    +0.000 A 
ATOM      9  C   UNL     1       0.801  10.487  19.735  0.00  0.00    +0.000 A 
ATOM     10  C   UNL     1       0.347  10.606  21.043  0.00  0.00    +0.000 A 
ATOM     11  C   UNL     1       0.463   9.518  21.903  0.00  0.00    +0.000 A 
ATOM     12 CL   UNL     1      -0.091   9.662  23.528  0.00  0.00    +0.000 Cl
ATOM     13  C   UNL     1       1.009   8.308  21.460  0.00  0.00    +0.000 A 
ENDBRANCH   4   7
BRANCH   1  15
ATOM     14  O   UNL     1       5.087   2.933  19.116  0.00  0.00    +0.000 OA
ATOM     15  S   UNL     1       4.888   4.341  18.833  0.00  0.00    +0.000 S 
ATOM     16  O   UNL     1       5.366   5.341  19.768  0.00  0.00    +0.000 OA
BRANCH  15  17
ATOM     17  C   UNL     1       5.667   4.691  17.283  0.00  0.00    +0.000 A 
ATOM     18  C   UNL     1       5.063   4.201  16.112  0.00  0.00    +0.000 A 
ATOM     19  C   UNL     1       5.748   4.267  14.899  0.00  0.00    +0.000 A 
ATOM     20 CL   UNL     1       5.005   3.681  13.464  0.00  0.00    +0.000 Cl
ATOM     21  C   UNL     1       7.038   4.788  14.843  0.00  0.00    +0.000 A 
ATOM     22  C   UNL     1       7.622   5.308  16.000  0.00  0.00    +0.000 A 
ATOM     23  C   UNL     1       6.936   5.281  17.222  0.00  0.00    +0.000 A 
ATOM     24 CL   UNL     1       7.723   6.020  18.567  0.00  0.00    +0.000 Cl
ENDBRANCH  15  17
ENDBRANCH   1  15
TORSDOF 3
ENDMDL
MODEL 2
REMARK VINA RESULT:      -7.4      4.105      9.521
REMARK  Name = 
REMARK  3 active torsions:
REMARK  status: ('A' for Active; 'I' for Inactive)
REMARK    1  A    between atoms: S_2  and  C_4
REMARK    2  A    between atoms: S_2  and  N_12
REMARK    3  A    between atoms: N_15  and  C_16
REMARK                            x       y       z     vdW  Elec       q    Type
REMARK                         _______ _______ _______ _____ _____    ______ ____
ROOT
ATOM      1  N   UNL     1      -0.477   9.882  20.643  0.00  0.00    +0.000 NA
ATOM      2  C   UNL     1      -0.045   9.983  19.212  0.00  0.00    +0.000 C 
ATOM      3  C   UNL     1       1.372   9.410  18.968  0.00  0.00    +0.000 C 
ATOM      4  N   UNL     1       1.484   8.044  19.522  0.00  0.00    +0.000 N 
ATOM      5  C   UNL     1       1.122   7.957  20.956  0.00  0.00    +0.000 C 
ATOM      6  C   UNL     1      -0.312   8.483  21.154  0.00  0.00    +0.000 C 
ENDROOT
BRANCH   4   7
ATOM      7  C   UNL     1       2.537   7.225  19.106  0.00  0.00    +0.000 A 
ATOM      8  C   UNL     1       2.877   6.102  19.884  0.00  0.00    +0.000 A 
ATOM      9  C   UNL     1       3.852   5.187  19.474  0.00  0.00    +0.000 A 
ATOM     10  C   UNL     1       4.522   5.382  18.272  0.00  0.00    +0.000 A 
ATOM     11  C   UNL     1       4.221   6.499  17.500  0.00  0.00    +0.000 A 
ATOM     12 CL   UNL     1       5.054   6.751  16.014  0.00  0.00    +0.000 Cl
ATOM     13  C   UNL     1       3.239   7.411  17.909  0.00  0.00    +0.000 A 
ENDBRANCH   4   7
BRANCH   1  15
ATOM     14  O   UNL     1       1.006  11.908  20.986  0.00  0.00    +0.000 OA
ATOM     15  S   UNL     1       0.028  11.106  21.697  0.00  0.00    +0.000 S 
ATOM     16  O   UNL     1       0.366  10.523  22.980  0.00  0.00    +0.000 OA
BRANCH  15  17
ATOM     17  C   UNL     1      -1.399  12.116  21.965  0.00  0.00    +0.000 A 
ATOM     18  C   UNL     1      -2.150  11.905  23.134  0.00  0.00    +0.000 A 
ATOM     19  C   UNL     1      -3.392  12.524  23.282  0.00  0.00    +0.000 A 
ATOM     20 CL   UNL     1      -4.305  12.278  24.717  0.00  0.00    +0.000 Cl
ATOM     21  C   UNL     1      -3.907  13.327  22.267  0.00  0.00    +0.000 A 
ATOM     22  C   UNL     1      -3.143  13.565  21.122  0.00  0.00    +0.000 A 
ATOM     23  C   UNL     1      -1.879  12.979  20.971  0.00  0.00    +0.000 A 
ATOM     24 CL   UNL     1      -0.995  13.404  19.552  0.00  0.00    +0.000 Cl
ENDBRANCH  15  17
ENDBRANCH   1  15
TORSDOF 3
ENDMDL
MODEL 3
REMARK VINA RESULT:      -7.4      4.063      9.365
REMARK  Name = 
REMARK  3 active torsions:
REMARK  status: ('A' for Active; 'I' for Inactive)
REMARK    1  A    between atoms: S_2  and  C_4
REMARK    2  A    between atoms: S_2  and  N_12
REMARK    3  A    between atoms: N_15  and  C_16
REMARK                            x       y       z     vdW  Elec       q    Type
REMARK                         _______ _______ _______ _____ _____    ______ ____
ROOT
ATOM      1  N   UNL     1      -0.447   9.747  20.845  0.00  0.00    +0.000 NA
ATOM      2  C   UNL     1      -0.099   9.976  19.406  0.00  0.00    +0.000 C 
ATOM      3  C   UNL     1       1.309   9.453  19.034  0.00  0.00    +0.000 C 
ATOM      4  N   UNL     1       1.471   8.046  19.461  0.00  0.00    +0.000 N 
ATOM      5  C   UNL     1       1.195   7.832  20.901  0.00  0.00    +0.000 C 
ATOM      6  C   UNL     1      -0.233   8.312  21.224  0.00  0.00    +0.000 C 
ENDROOT
BRANCH   4   7
ATOM      7  C   UNL     1       2.510   7.285  18.918  0.00  0.00    +0.000 A 
ATOM      8  C   UNL     1       3.219   7.789  17.812  0.00  0.00    +0.000 A 
ATOM      9  C   UNL     1       4.332   7.127  17.284  0.00  0.00    +0.000 A 
ATOM     10  C   UNL     1       4.757   5.930  17.848  0.00  0.00    +0.000 A 
ATOM     11  C   UNL     1       4.055   5.400  18.926  0.00  0.00    +0.000 A 
ATOM     12 CL   UNL     1       4.572   3.913  19.625  0.00  0.00    +0.000 Cl
ATOM     13  C   UNL     1       2.945   6.069  19.458  0.00  0.00    +0.000 A 
ENDBRANCH   4   7
BRANCH   1  15
ATOM     14  O   UNL     1       1.189  11.617  21.345  0.00  0.00    +0.000 OA
ATOM     15  S   UNL     1       0.103  10.886  21.969  0.00  0.00    +0.000 S 
ATOM     16  O   UNL     1       0.310  10.234  23.247  0.00  0.00    +0.000 OA
BRANCH  15  17
ATOM     17  C   UNL     1      -1.242  12.013  22.193  0.00  0.00    +0.000 A 
ATOM     18  C   UNL     1      -2.092  11.820  23.296  0.00  0.00    +0.000 A 
ATOM     19  C   UNL     1      -3.280  12.546  23.392  0.00  0.00    +0.000 A 
ATOM     20 CL   UNL     1      -4.313  12.322  24.747  0.00  0.00    +0.000 Cl
ATOM     21  C   UNL     1      -3.645  13.440  22.388  0.00  0.00    +0.000 A 
ATOM     22  C   UNL     1      -2.781  13.658  21.312  0.00  0.00    +0.000 A 
ATOM     23  C   UNL     1      -1.568  12.962  21.216  0.00  0.00    +0.000 A 
ATOM     24 CL   UNL     1      -0.548  13.368  19.885  0.00  0.00    +0.000 Cl
ENDBRANCH  15  17
ENDBRANCH   1  15
TORSDOF 3
ENDMDL
MODEL 4
REMARK VINA RESULT:      -7.3      1.056      1.436
REMARK  Name = 
REMARK  3 active torsions:
REMARK  status: ('A' for Active; 'I' for Inactive)
REMARK    1  A    between atoms: S_2  and  C_4
REMARK    2  A    between atoms: S_2  and  N_12
REMARK    3  A    between atoms: N_15  and  C_16
REMARK                            x       y       z     vdW  Elec       q    Type
REMARK                         _______ _______ _______ _____ _____    ______ ____
ROOT
ATOM      1  N   UNL     1       3.182   4.677  18.560  0.00  0.00    +0.000 NA
ATOM      2  C   UNL     1       2.254   4.592  19.732  0.00  0.00    +0.000 C 
ATOM      3  C   UNL     1       2.157   5.919  20.523  0.00  0.00    +0.000 C 
ATOM      4  N   UNL     1       1.855   7.046  19.614  0.00  0.00    +0.000 N 
ATOM      5  C   UNL     1       2.814   7.172  18.492  0.00  0.00    +0.000 C 
ATOM      6  C   UNL     1       2.844   5.854  17.695  0.00  0.00    +0.000 C 
ENDROOT
BRANCH   4   7
ATOM      7  C   UNL     1       1.381   8.246  20.151  0.00  0.00    +0.000 A 
ATOM      8  C   UNL     1       1.168   8.335  21.539  0.00  0.00    +0.000 A 
ATOM      9  C   UNL     1       0.791   9.534  22.153  0.00  0.00    +0.000 A 
ATOM     10  C   UNL     1       0.609  10.678  21.384  0.00  0.00    +0.000 A 
ATOM     11  C   UNL     1       0.789  10.606  20.007  0.00  0.00    +0.000 A 
ATOM     12 CL   UNL     1       0.556  12.018  19.048  0.00  0.00    +0.000 Cl
ATOM     13  C   UNL     1       1.173   9.406  19.395  0.00  0.00    +0.000 A 
ENDBRANCH   4   7
BRANCH   1  15
ATOM     14  O   UNL     1       5.014   3.038  19.174  0.00  0.00    +0.000 OA
ATOM     15  S   UNL     1       4.832   4.441  18.854  0.00  0.00    +0.000 S 
ATOM     16  O   UNL     1       5.305   5.459  19.770  0.00  0.00    +0.000 OA
BRANCH  15  17
ATOM     17  C   UNL     1       5.634   4.746  17.307  0.00  0.00    +0.000 A 
ATOM     18  C   UNL     1       5.025   4.260  16.137  0.00  0.00    +0.000 A 
ATOM     19  C   UNL     1       5.723   4.289  14.929  0.00  0.00    +0.000 A 
ATOM     20 CL   UNL     1       4.974   3.707  13.495  0.00  0.00    +0.000 Cl
ATOM     21  C   UNL     1       7.029   4.769  14.878  0.00  0.00    +0.000 A 
ATOM     22  C   UNL     1       7.619   5.285  16.034  0.00  0.00    +0.000 A 
ATOM     23  C   UNL     1       6.921   5.296  17.250  0.00  0.00    +0.000 A 
ATOM     24 CL   UNL     1       7.720   6.027  18.592  0.00  0.00    +0.000 Cl
ENDBRANCH  15  17
ENDBRANCH   1  15
TORSDOF 3
ENDMDL
MODEL 5
REMARK VINA RESULT:      -7.3      2.778      8.006
REMARK  Name = 
REMARK  3 active torsions:
REMARK  status: ('A' for Active; 'I' for Inactive)
REMARK    1  A    between atoms: S_2  and  C_4
REMARK    2  A    between atoms: S_2  and  N_12
REMARK    3  A    between atoms: N_15  and  C_16
REMARK                            x       y       z     vdW  Elec       q    Type
REMARK                         _______ _______ _______ _____ _____    ______ ____
ROOT
ATOM      1  N   UNL     1       5.440   5.041  18.301  0.00  0.00    +0.000 NA
ATOM      2  C   UNL     1       6.875   4.816  17.935  0.00  0.00    +0.000 C 
ATOM      3  C   UNL     1       7.047   4.138  16.555  0.00  0.00    +0.000 C 
ATOM      4  N   UNL     1       6.283   4.865  15.519  0.00  0.00    +0.000 N 
ATOM      5  C   UNL     1       4.847   5.026  15.849  0.00  0.00    +0.000 C 
ATOM      6  C   UNL     1       4.713   5.753  17.200  0.00  0.00    +0.000 C 
ENDROOT
BRANCH   4   7
ATOM      7  C   UNL     1       6.578   4.640  14.171  0.00  0.00    +0.000 A 
ATOM      8  C   UNL     1       7.502   5.482  13.525  0.00  0.00    +0.000 A 
ATOM      9  C   UNL     1       7.917   5.252  12.210  0.00  0.00    +0.000 A 
ATOM     10  C   UNL     1       7.406   4.171  11.502  0.00  0.00    +0.000 A 
ATOM     11  C   UNL     1       6.472   3.340  12.112  0.00  0.00    +0.000 A 
ATOM     12 CL   UNL     1       5.828   2.004  11.237  0.00  0.00    +0.000 Cl
ATOM     13  C   UNL     1       6.062   3.568  13.432  0.00  0.00    +0.000 A 
ENDBRANCH   4   7
BRANCH   1  15
ATOM     14  O   UNL     1       5.327   3.375  20.207  0.00  0.00    +0.000 OA
ATOM     15  S   UNL     1       4.605   3.749  19.006  0.00  0.00    +0.000 S 
ATOM     16  O   UNL     1       4.321   2.753  17.993  0.00  0.00    +0.000 OA
BRANCH  15  17
ATOM     17  C   UNL     1       3.043   4.415  19.506  0.00  0.00    +0.000 A 
ATOM     18  C   UNL     1       2.969   5.790  19.787  0.00  0.00    +0.000 A 
ATOM     19  C   UNL     1       1.823   6.314  20.386  0.00  0.00    +0.000 A 
ATOM     20 CL   UNL     1       1.724   7.997  20.718  0.00  0.00    +0.000 Cl
ATOM     21  C   UNL     1       0.763   5.480  20.734  0.00  0.00    +0.000 A 
ATOM     22  C   UNL     1       0.824   4.120  20.420  0.00  0.00    +0.000 A 
ATOM     23  C   UNL     1       1.953   3.582  19.788  0.00  0.00    +0.000 A 
ATOM     24 CL   UNL     1       1.885   1.908  19.381  0.00  0.00    +0.000 Cl
ENDBRANCH  15  17
ENDBRANCH   1  15
TORSDOF 3
ENDMDL
MODEL 6
REMARK VINA RESULT:      -7.1      2.568      7.897
REMARK  Name = 
REMARK  3 active torsions:
REMARK  status: ('A' for Active; 'I' for Inactive)
REMARK    1  A    between atoms: S_2  and  C_4
REMARK    2  A    between atoms: S_2  and  N_12
REMARK    3  A    between atoms: N_15  and  C_16
REMARK                            x       y       z     vdW  Elec       q    Type
REMARK                         _______ _______ _______ _____ _____    ______ ____
ROOT
ATOM      1  N   UNL     1       5.167   5.569  18.193  0.00  0.00    +0.000 NA
ATOM      2  C   UNL     1       6.351   4.680  17.968  0.00  0.00    +0.000 C 
ATOM      3  C   UNL     1       6.356   4.024  16.567  0.00  0.00    +0.000 C 
ATOM      4  N   UNL     1       6.180   5.046  15.513  0.00  0.00    +0.000 N 
ATOM      5  C   UNL     1       4.970   5.881  15.698  0.00  0.00    +0.000 C 
ATOM      6  C   UNL     1       5.025   6.561  17.079  0.00  0.00    +0.000 C 
ENDROOT
BRANCH   4   7
ATOM      7  C   UNL     1       6.505   4.726  14.192  0.00  0.00    +0.000 A 
ATOM      8  C   UNL     1       7.525   5.449  13.546  0.00  0.00    +0.000 A 
ATOM      9  C   UNL     1       7.968   5.114  12.262  0.00  0.00    +0.000 A 
ATOM     10  C   UNL     1       7.390   4.047  11.587  0.00  0.00    +0.000 A 
ATOM     11  C   UNL     1       6.362   3.333  12.197  0.00  0.00    +0.000 A 
ATOM     12 CL   UNL     1       5.636   2.014  11.361  0.00  0.00    +0.000 Cl
ATOM     13  C   UNL     1       5.925   3.666  13.485  0.00  0.00    +0.000 A 
ENDBRANCH   4   7
BRANCH   1  15
ATOM     14  O   UNL     1       4.038   4.062  19.889  0.00  0.00    +0.000 OA
ATOM     15  S   UNL     1       3.729   4.837  18.703  0.00  0.00    +0.000 S 
ATOM     16  O   UNL     1       3.088   4.201  17.569  0.00  0.00    +0.000 OA
BRANCH  15  17
ATOM     17  C   UNL     1       2.672   6.168  19.194  0.00  0.00    +0.000 A 
ATOM     18  C   UNL     1       2.661   7.332  18.406  0.00  0.00    +0.000 A 
ATOM     19  C   UNL     1       2.013   8.477  18.868  0.00  0.00    +0.000 A 
ATOM     20 CL   UNL     1       1.987   9.897  17.899  0.00  0.00    +0.000 Cl
ATOM     21  C   UNL     1       1.400   8.486  20.119  0.00  0.00    +0.000 A 
ATOM     22  C   UNL     1       1.380   7.318  20.885  0.00  0.00    +0.000 A 
ATOM     23  C   UNL     1       1.997   6.148  20.421  0.00  0.00    +0.000 A 
ATOM     24 CL   UNL     1       1.843   4.747  21.416  0.00  0.00    +0.000 Cl
ENDBRANCH  15  17
ENDBRANCH   1  15
TORSDOF 3
ENDMDL
MODEL 7
REMARK VINA RESULT:      -7.1      3.530      7.794
REMARK  Name = 
REMARK  3 active torsions:
REMARK  status: ('A' for Active; 'I' for Inactive)
REMARK    1  A    between atoms: S_2  and  C_4
REMARK    2  A    between atoms: S_2  and  N_12
REMARK    3  A    between atoms: N_15  and  C_16
REMARK                            x       y       z     vdW  Elec       q    Type
REMARK                         _______ _______ _______ _____ _____    ______ ____
ROOT
ATOM      1  N   UNL     1       5.087   5.823  18.241  0.00  0.00    +0.000 NA
ATOM      2  C   UNL     1       5.814   4.534  18.011  0.00  0.00    +0.000 C 
ATOM      3  C   UNL     1       5.710   4.033  16.551  0.00  0.00    +0.000 C 
ATOM      4  N   UNL     1       6.096   5.102  15.605  0.00  0.00    +0.000 N 
ATOM      5  C   UNL     1       5.327   6.355  15.786  0.00  0.00    +0.000 C 
ATOM      6  C   UNL     1       5.499   6.854  17.234  0.00  0.00    +0.000 C 
ENDROOT
BRANCH   4   7
ATOM      7  C   UNL     1       6.411   4.763  14.286  0.00  0.00    +0.000 A 
ATOM      8  C   UNL     1       7.464   5.437  13.641  0.00  0.00    +0.000 A 
ATOM      9  C   UNL     1       7.895   5.078  12.360  0.00  0.00    +0.000 A 
ATOM     10  C   UNL     1       7.271   4.036  11.686  0.00  0.00    +0.000 A 
ATOM     11  C   UNL     1       6.210   3.372  12.295  0.00  0.00    +0.000 A 
ATOM     12 CL   UNL     1       5.427   2.085  11.460  0.00  0.00    +0.000 Cl
ATOM     13  C   UNL     1       5.784   3.728  13.580  0.00  0.00    +0.000 A 
ENDBRANCH   4   7
BRANCH   1  15
ATOM     14  O   UNL     1       2.795   5.184  17.372  0.00  0.00    +0.000 OA
ATOM     15  S   UNL     1       3.427   5.735  18.555  0.00  0.00    +0.000 S 
ATOM     16  O   UNL     1       2.974   7.002  19.093  0.00  0.00    +0.000 OA
BRANCH  15  17
ATOM     17  C   UNL     1       3.255   4.548  19.855  0.00  0.00    +0.000 A 
ATOM     18  C   UNL     1       4.160   3.473  19.895  0.00  0.00    +0.000 A 
ATOM     19  C   UNL     1       3.933   2.407  20.766  0.00  0.00    +0.000 A 
ATOM     20 CL   UNL     1       5.046   1.099  20.825  0.00  0.00    +0.000 Cl
ATOM     21  C   UNL     1       2.801   2.385  21.577  0.00  0.00    +0.000 A 
ATOM     22  C   UNL     1       1.923   3.472  21.563  0.00  0.00    +0.000 A 
ATOM     23  C   UNL     1       2.153   4.566  20.719  0.00  0.00    +0.000 A 
ATOM     24 CL   UNL     1       1.045   5.883  20.842  0.00  0.00    +0.000 Cl
ENDBRANCH  15  17
ENDBRANCH   1  15
TORSDOF 3
ENDMDL
MODEL 8
REMARK VINA RESULT:      -7.1      2.853      7.923
REMARK  Name = 
REMARK  3 active torsions:
REMARK  status: ('A' for Active; 'I' for Inactive)
REMARK    1  A    between atoms: S_2  and  C_4
REMARK    2  A    between atoms: S_2  and  N_12
REMARK    3  A    between atoms: N_15  and  C_16
REMARK                            x       y       z     vdW  Elec       q    Type
REMARK                         _______ _______ _______ _____ _____    ______ ____
ROOT
ATOM      1  N   UNL     1       5.784   5.879  17.580  0.00  0.00    +0.000 NA
ATOM      2  C   UNL     1       7.056   5.883  16.790  0.00  0.00    +0.000 C 
ATOM      3  C   UNL     1       7.093   4.786  15.699  0.00  0.00    +0.000 C 
ATOM      4  N   UNL     1       5.879   4.847  14.858  0.00  0.00    +0.000 N 
ATOM      5  C   UNL     1       4.620   4.773  15.634  0.00  0.00    +0.000 C 
ATOM      6  C   UNL     1       4.591   5.911  16.672  0.00  0.00    +0.000 C 
ENDROOT
BRANCH   4   7
ATOM      7  C   UNL     1       5.874   4.196  13.621  0.00  0.00    +0.000 A 
ATOM      8  C   UNL     1       7.088   3.713  13.099  0.00  0.00    +0.000 A 
ATOM      9  C   UNL     1       7.139   2.966  11.917  0.00  0.00    +0.000 A 
ATOM     10  C   UNL     1       5.969   2.693  11.220  0.00  0.00    +0.000 A 
ATOM     11  C   UNL     1       4.760   3.183  11.705  0.00  0.00    +0.000 A 
ATOM     12 CL   UNL     1       3.306   2.855  10.840  0.00  0.00    +0.000 Cl
ATOM     13  C   UNL     1       4.710   3.925  12.891  0.00  0.00    +0.000 A 
ENDBRANCH   4   7
BRANCH   1  15
ATOM     14  O   UNL     1       6.423   5.382  19.981  0.00  0.00    +0.000 OA
ATOM     15  S   UNL     1       5.678   4.801  18.880  0.00  0.00    +0.000 S 
ATOM     16  O   UNL     1       5.993   3.464  18.420  0.00  0.00    +0.000 OA
BRANCH  15  17
ATOM     17  C   UNL     1       3.969   4.784  19.340  0.00  0.00    +0.000 A 
ATOM     18  C   UNL     1       3.391   5.985  19.785  0.00  0.00    +0.000 A 
ATOM     19  C   UNL     1       2.118   5.972  20.357  0.00  0.00    +0.000 A 
ATOM     20 CL   UNL     1       1.403   7.441  20.889  0.00  0.00    +0.000 Cl
ATOM     21  C   UNL     1       1.427   4.773  20.516  0.00  0.00    +0.000 A 
ATOM     22  C   UNL     1       1.989   3.586  20.039  0.00  0.00    +0.000 A 
ATOM     23  C   UNL     1       3.251   3.585  19.432  0.00  0.00    +0.000 A 
ATOM     24 CL   UNL     1       3.810   2.075  18.813  0.00  0.00    +0.000 Cl
ENDBRANCH  15  17
ENDBRANCH   1  15
TORSDOF 3
ENDMDL
MODEL 9
REMARK VINA RESULT:      -7.0      4.224      9.611
REMARK  Name = 
REMARK  3 active torsions:
REMARK  status: ('A' for Active; 'I' for Inactive)
REMARK    1  A    between atoms: S_2  and  C_4
REMARK    2  A    between atoms: S_2  and  N_12
REMARK    3  A    between atoms: N_15  and  C_16
REMARK                            x       y       z     vdW  Elec       q    Type
REMARK                         _______ _______ _______ _____ _____    ______ ____
ROOT
ATOM      1  N   UNL     1      -0.289  10.540  19.767  0.00  0.00    +0.000 NA
ATOM      2  C   UNL     1      -0.092  10.110  18.345  0.00  0.00    +0.000 C 
ATOM      3  C   UNL     1       1.291   9.462  18.096  0.00  0.00    +0.000 C 
ATOM      4  N   UNL     1       1.545   8.385  19.077  0.00  0.00    +0.000 N 
ATOM      5  C   UNL     1       1.419   8.828  20.485  0.00  0.00    +0.000 C 
ATOM      6  C   UNL     1       0.013   9.415  20.711  0.00  0.00    +0.000 C 
ENDROOT
BRANCH   4   7
ATOM      7  C   UNL     1       2.553   7.452  18.817  0.00  0.00    +0.000 A 
ATOM      8  C   UNL     1       2.768   6.406  19.734  0.00  0.00    +0.000 A 
ATOM      9  C   UNL     1       3.690   5.384  19.486  0.00  0.00    +0.000 A 
ATOM     10  C   UNL     1       4.432   5.392  18.311  0.00  0.00    +0.000 A 
ATOM     11  C   UNL     1       4.255   6.431  17.402  0.00  0.00    +0.000 A 
ATOM     12 CL   UNL     1       5.178   6.450  15.948  0.00  0.00    +0.000 Cl
ATOM     13  C   UNL     1       3.326   7.449  17.649  0.00  0.00    +0.000 A 
ENDBRANCH   4   7
BRANCH   1  15
ATOM     14  O   UNL     1       0.573  12.793  18.994  0.00  0.00    +0.000 OA
ATOM     15  S   UNL     1       0.325  12.051  20.215  0.00  0.00    +0.000 S 
ATOM     16  O   UNL     1       1.391  11.867  21.179  0.00  0.00    +0.000 OA
BRANCH  15  17
ATOM     17  C   UNL     1      -0.994  12.859  21.075  0.00  0.00    +0.000 A 
ATOM     18  C   UNL     1      -0.702  13.485  22.299  0.00  0.00    +0.000 A 
ATOM     19  C   UNL     1      -1.741  13.944  23.108  0.00  0.00    +0.000 A 
ATOM     20 CL   UNL     1      -1.385  14.723  24.599  0.00  0.00    +0.000 Cl
ATOM     21  C   UNL     1      -3.068  13.761  22.727  0.00  0.00    +0.000 A 
ATOM     22  C   UNL     1      -3.355  13.172  21.493  0.00  0.00    +0.000 A 
ATOM     23  C   UNL     1      -2.323  12.736  20.651  0.00  0.00    +0.000 A 
ATOM     24 CL   UNL     1      -2.794  12.094  19.121  0.00  0.00    +0.000 Cl
ENDBRANCH  15  17
ENDBRANCH   1  15
TORSDOF 3
ENDMDL
