MODEL 1
REMARK VINA RESULT:      -6.7      0.000      0.000
REMARK  Name = 
REMARK  8 active torsions:
REMARK  status: ('A' for Active; 'I' for Inactive)
REMARK    1  A    between atoms: C_1  and  C_2
REMARK    2  A    between atoms: C_2  and  C_3
REMARK    3  A    between atoms: C_9  and  N_10
REMARK    4  A    between atoms: N_10  and  C_11
REMARK    5  A    between atoms: N_10  and  C_12
REMARK    6  A    between atoms: C_12  and  C_13
REMARK    7  A    between atoms: C_13  and  C_14
REMARK    8  A    between atoms: N_17  and  C_18
REMARK                            x       y       z     vdW  Elec       q    Type
REMARK                         _______ _______ _______ _____ _____    ______ ____
ROOT
ATOM      1  C   UNL     1       5.848   5.761  17.079  0.00  0.00    +0.000 A 
ATOM      2  C   UNL     1       7.108   6.354  17.238  0.00  0.00    +0.000 A 
ATOM      3  N   UNL     1       7.880   6.287  18.327  0.00  0.00    +0.000 NA
ATOM      4  C   UNL     1       7.358   5.601  19.325  0.00  0.00    +0.000 A 
ATOM      5  N   UNL     1       8.133   5.462  20.459  0.00  0.00    +0.000 N 
ATOM      6  N   UNL     1       6.167   4.995  19.288  0.00  0.00    +0.000 NA
ATOM      7  C   UNL     1       5.361   5.060  18.191  0.00  0.00    +0.000 A 
ATOM      8  H   UNL     1       9.103   5.605  20.213  0.00  0.00    +0.000 HD
ATOM      9  H   UNL     1       7.896   4.600  20.929  0.00  0.00    +0.000 HD
ENDROOT
BRANCH   1  11
ATOM     10  C   UNL     1       5.508   4.803  14.734  0.00  0.00    +0.000 C 
ATOM     11  C   UNL     1       5.274   5.962  15.699  0.00  0.00    +0.000 C 
ENDBRANCH   1  11
BRANCH   7  12
ATOM     12  N   UNL     1       4.123   4.427  18.343  0.00  0.00    +0.000 N 
ATOM     13  C   UNL     1       4.077   2.980  18.067  0.00  0.00    +0.000 C 
BRANCH  12  14
ATOM     14  C   UNL     1       2.823   5.109  18.472  0.00  0.00    +0.000 C 
BRANCH  14  15
ATOM     15  C   UNL     1       2.700   6.165  19.607  0.00  0.00    +0.000 C 
BRANCH  15  16
ATOM     16  C   UNL     1       2.343   7.519  19.044  0.00  0.00    +0.000 A 
ATOM     17  C   UNL     1       2.614   8.034  17.748  0.00  0.00    +0.000 A 
ATOM     18  N   UNL     1       2.073   9.233  17.541  0.00  0.00    +0.000 NA
ATOM     19  N   UNL     1       1.467   9.515  18.708  0.00  0.00    +0.000 N 
ATOM     20  C   UNL     1       0.667  10.707  18.838  0.00  0.00    +0.000 C 
ATOM     21  C   UNL     1       1.639   8.538  19.651  0.00  0.00    +0.000 A 
ENDBRANCH  15  16
ENDBRANCH  14  15
ENDBRANCH  12  14
ENDBRANCH   7  12
TORSDOF 5
ENDMDL
MODEL 2
REMARK VINA RESULT:      -6.5      2.184      4.456
REMARK  Name = 
REMARK  8 active torsions:
REMARK  status: ('A' for Active; 'I' for Inactive)
REMARK    1  A    between atoms: C_1  and  C_2
REMARK    2  A    between atoms: C_2  and  C_3
REMARK    3  A    between atoms: C_9  and  N_10
REMARK    4  A    between atoms: N_10  and  C_11
REMARK    5  A    between atoms: N_10  and  C_12
REMARK    6  A    between atoms: C_12  and  C_13
REMARK    7  A    between atoms: C_13  and  C_14
REMARK    8  A    between atoms: N_17  and  C_18
REMARK                            x       y       z     vdW  Elec       q    Type
REMARK                         _______ _______ _______ _____ _____    ______ ____
ROOT
ATOM      1  C   UNL     1       5.859   4.887  16.571  0.00  0.00    +0.000 A 
ATOM      2  C   UNL     1       7.162   4.415  16.783  0.00  0.00    +0.000 A 
ATOM      3  N   UNL     1       7.903   4.608  17.879  0.00  0.00    +0.000 NA
ATOM      4  C   UNL     1       7.317   5.331  18.813  0.00  0.00    +0.000 A 
ATOM      5  N   UNL     1       8.021   5.524  19.985  0.00  0.00    +0.000 N 
ATOM      6  N   UNL     1       6.082   5.835  18.720  0.00  0.00    +0.000 NA
ATOM      7  C   UNL     1       5.316   5.657  17.609  0.00  0.00    +0.000 A 
ATOM      8  H   UNL     1       8.715   4.794  20.075  0.00  0.00    +0.000 HD
ATOM      9  H   UNL     1       7.376   5.647  20.752  0.00  0.00    +0.000 HD
ENDROOT
BRANCH   1  11
ATOM     10  C   UNL     1       6.299   4.149  14.164  0.00  0.00    +0.000 C 
ATOM     11  C   UNL     1       5.274   4.428  15.259  0.00  0.00    +0.000 C 
ENDBRANCH   1  11
BRANCH   7  12
ATOM     12  N   UNL     1       4.076   6.305  17.650  0.00  0.00    +0.000 N 
ATOM     13  C   UNL     1       4.038   7.700  17.175  0.00  0.00    +0.000 C 
BRANCH  12  14
ATOM     14  C   UNL     1       2.886   5.830  18.378  0.00  0.00    +0.000 C 
BRANCH  14  15
ATOM     15  C   UNL     1       2.223   4.525  17.852  0.00  0.00    +0.000 C 
BRANCH  15  16
ATOM     16  C   UNL     1       2.888   3.308  18.447  0.00  0.00    +0.000 A 
ATOM     17  C   UNL     1       3.014   2.009  17.884  0.00  0.00    +0.000 A 
ATOM     18  N   UNL     1       3.746   1.187  18.632  0.00  0.00    +0.000 NA
ATOM     19  N   UNL     1       4.081   1.937  19.696  0.00  0.00    +0.000 N 
ATOM     20  C   UNL     1       4.978   1.415  20.696  0.00  0.00    +0.000 C 
ATOM     21  C   UNL     1       3.553   3.199  19.650  0.00  0.00    +0.000 A 
ENDBRANCH  15  16
ENDBRANCH  14  15
ENDBRANCH  12  14
ENDBRANCH   7  12
TORSDOF 5
ENDMDL
MODEL 3
REMARK VINA RESULT:      -6.5      1.160      1.273
REMARK  Name = 
REMARK  8 active torsions:
REMARK  status: ('A' for Active; 'I' for Inactive)
REMARK    1  A    between atoms: C_1  and  C_2
REMARK    2  A    between atoms: C_2  and  C_3
REMARK    3  A    between atoms: C_9  and  N_10
REMARK    4  A    between atoms: N_10  and  C_11
REMARK    5  A    between atoms: N_10  and  C_12
REMARK    6  A    between atoms: C_12  and  C_13
REMARK    7  A    between atoms: C_13  and  C_14
REMARK    8  A    between atoms: N_17  and  C_18
REMARK                            x       y       z     vdW  Elec       q    Type
REMARK                         _______ _______ _______ _____ _____    ______ ____
ROOT
ATOM      1  C   UNL     1       5.695   4.420  17.293  0.00  0.00    +0.000 A 
ATOM      2  C   UNL     1       7.075   4.584  17.106  0.00  0.00    +0.000 A 
ATOM      3  N   UNL     1       7.963   4.933  18.041  0.00  0.00    +0.000 NA
ATOM      4  C   UNL     1       7.442   5.150  19.233  0.00  0.00    +0.000 A 
ATOM      5  N   UNL     1       8.320   5.471  20.249  0.00  0.00    +0.000 N 
ATOM      6  N   UNL     1       6.144   5.027  19.528  0.00  0.00    +0.000 NA
ATOM      7  C   UNL     1       5.223   4.682  18.586  0.00  0.00    +0.000 A 
ATOM      8  H   UNL     1       9.244   5.145  19.998  0.00  0.00    +0.000 HD
ATOM      9  H   UNL     1       7.944   5.162  21.134  0.00  0.00    +0.000 HD
ENDROOT
BRANCH   1  11
ATOM     10  C   UNL     1       5.567   4.469  14.741  0.00  0.00    +0.000 C 
ATOM     11  C   UNL     1       4.986   3.943  16.051  0.00  0.00    +0.000 C 
ENDBRANCH   1  11
BRANCH   7  12
ATOM     12  N   UNL     1       3.901   4.662  19.047  0.00  0.00    +0.000 N 
ATOM     13  C   UNL     1       3.487   3.483  19.828  0.00  0.00    +0.000 C 
BRANCH  12  14
ATOM     14  C   UNL     1       2.823   5.557  18.591  0.00  0.00    +0.000 C 
BRANCH  14  15
ATOM     15  C   UNL     1       3.259   6.915  17.973  0.00  0.00    +0.000 C 
BRANCH  15  16
ATOM     16  C   UNL     1       2.393   8.041  18.484  0.00  0.00    +0.000 A 
ATOM     17  C   UNL     1       1.977   9.214  17.798  0.00  0.00    +0.000 A 
ATOM     18  N   UNL     1       1.134   9.960  18.507  0.00  0.00    +0.000 NA
ATOM     19  N   UNL     1       1.013   9.290  19.666  0.00  0.00    +0.000 N 
ATOM     20  C   UNL     1       0.081   9.741  20.668  0.00  0.00    +0.000 C 
ATOM     21  C   UNL     1       1.783   8.159  19.715  0.00  0.00    +0.000 A 
ENDBRANCH  15  16
ENDBRANCH  14  15
ENDBRANCH  12  14
ENDBRANCH   7  12
TORSDOF 5
ENDMDL
MODEL 4
REMARK VINA RESULT:      -6.5      1.460      1.878
REMARK  Name = 
REMARK  8 active torsions:
REMARK  status: ('A' for Active; 'I' for Inactive)
REMARK    1  A    between atoms: C_1  and  C_2
REMARK    2  A    between atoms: C_2  and  C_3
REMARK    3  A    between atoms: C_9  and  N_10
REMARK    4  A    between atoms: N_10  and  C_11
REMARK    5  A    between atoms: N_10  and  C_12
REMARK    6  A    between atoms: C_12  and  C_13
REMARK    7  A    between atoms: C_13  and  C_14
REMARK    8  A    between atoms: N_17  and  C_18
REMARK                            x       y       z     vdW  Elec       q    Type
REMARK                         _______ _______ _______ _____ _____    ______ ____
ROOT
ATOM      1  C   UNL     1       5.870   4.878  16.824  0.00  0.00    +0.000 A 
ATOM      2  C   UNL     1       7.021   5.679  16.810  0.00  0.00    +0.000 A 
ATOM      3  N   UNL     1       7.813   5.941  17.854  0.00  0.00    +0.000 NA
ATOM      4  C   UNL     1       7.425   5.385  18.986  0.00  0.00    +0.000 A 
ATOM      5  N   UNL     1       8.232   5.586  20.088  0.00  0.00    +0.000 N 
ATOM      6  N   UNL     1       6.346   4.607  19.118  0.00  0.00    +0.000 NA
ATOM      7  C   UNL     1       5.522   4.336  18.068  0.00  0.00    +0.000 A 
ATOM      8  H   UNL     1       9.162   5.828  19.774  0.00  0.00    +0.000 HD
ATOM      9  H   UNL     1       8.145   4.804  20.720  0.00  0.00    +0.000 HD
ENDROOT
BRANCH   1  11
ATOM     10  C   UNL     1       6.109   3.977  14.444  0.00  0.00    +0.000 C 
ATOM     11  C   UNL     1       5.247   4.722  15.459  0.00  0.00    +0.000 C 
ENDBRANCH   1  11
BRANCH   7  12
ATOM     12  N   UNL     1       4.404   3.560  18.394  0.00  0.00    +0.000 N 
ATOM     13  C   UNL     1       4.490   2.753  19.625  0.00  0.00    +0.000 C 
BRANCH  12  14
ATOM     14  C   UNL     1       3.280   3.256  17.491  0.00  0.00    +0.000 C 
BRANCH  14  15
ATOM     15  C   UNL     1       1.901   3.867  17.865  0.00  0.00    +0.000 C 
BRANCH  15  16
ATOM     16  C   UNL     1       2.070   5.219  18.513  0.00  0.00    +0.000 A 
ATOM     17  C   UNL     1       2.524   6.430  17.921  0.00  0.00    +0.000 A 
ATOM     18  N   UNL     1       2.463   7.468  18.750  0.00  0.00    +0.000 NA
ATOM     19  N   UNL     1       1.992   6.938  19.893  0.00  0.00    +0.000 N 
ATOM     20  C   UNL     1       1.685   7.790  21.013  0.00  0.00    +0.000 C 
ATOM     21  C   UNL     1       1.785   5.588  19.811  0.00  0.00    +0.000 A 
ENDBRANCH  15  16
ENDBRANCH  14  15
ENDBRANCH  12  14
ENDBRANCH   7  12
TORSDOF 5
ENDMDL
MODEL 5
REMARK VINA RESULT:      -6.5      2.572      4.344
REMARK  Name = 
REMARK  8 active torsions:
REMARK  status: ('A' for Active; 'I' for Inactive)
REMARK    1  A    between atoms: C_1  and  C_2
REMARK    2  A    between atoms: C_2  and  C_3
REMARK    3  A    between atoms: C_9  and  N_10
REMARK    4  A    between atoms: N_10  and  C_11
REMARK    5  A    between atoms: N_10  and  C_12
REMARK    6  A    between atoms: C_12  and  C_13
REMARK    7  A    between atoms: C_13  and  C_14
REMARK    8  A    between atoms: N_17  and  C_18
REMARK                            x       y       z     vdW  Elec       q    Type
REMARK                         _______ _______ _______ _____ _____    ______ ____
ROOT
ATOM      1  C   UNL     1       5.743   4.555  15.995  0.00  0.00    +0.000 A 
ATOM      2  C   UNL     1       7.129   4.691  16.150  0.00  0.00    +0.000 A 
ATOM      3  N   UNL     1       7.775   4.935  17.294  0.00  0.00    +0.000 NA
ATOM      4  C   UNL     1       6.991   5.070  18.346  0.00  0.00    +0.000 A 
ATOM      5  N   UNL     1       7.608   5.279  19.563  0.00  0.00    +0.000 N 
ATOM      6  N   UNL     1       5.658   4.963  18.317  0.00  0.00    +0.000 NA
ATOM      7  C   UNL     1       4.981   4.724  17.160  0.00  0.00    +0.000 A 
ATOM      8  H   UNL     1       8.562   4.947  19.508  0.00  0.00    +0.000 HD
ATOM      9  H   UNL     1       7.031   4.910  20.305  0.00  0.00    +0.000 HD
ENDROOT
BRANCH   1  11
ATOM     10  C   UNL     1       6.505   4.033  13.612  0.00  0.00    +0.000 C 
ATOM     11  C   UNL     1       5.341   4.204  14.584  0.00  0.00    +0.000 C 
ENDBRANCH   1  11
BRANCH   7  12
ATOM     12  N   UNL     1       3.589   4.707  17.295  0.00  0.00    +0.000 N 
ATOM     13  C   UNL     1       2.988   5.772  18.118  0.00  0.00    +0.000 C 
BRANCH  12  14
ATOM     14  C   UNL     1       2.707   3.581  16.938  0.00  0.00    +0.000 C 
BRANCH  14  15
ATOM     15  C   UNL     1       3.045   2.204  17.576  0.00  0.00    +0.000 C 
BRANCH  15  16
ATOM     16  C   UNL     1       2.897   2.256  19.076  0.00  0.00    +0.000 A 
ATOM     17  C   UNL     1       3.919   2.360  20.059  0.00  0.00    +0.000 A 
ATOM     18  N   UNL     1       3.441   2.480  21.295  0.00  0.00    +0.000 NA
ATOM     19  N   UNL     1       2.107   2.431  21.128  0.00  0.00    +0.000 N 
ATOM     20  C   UNL     1       1.229   2.640  22.252  0.00  0.00    +0.000 C 
ATOM     21  C   UNL     1       1.737   2.253  19.823  0.00  0.00    +0.000 A 
ENDBRANCH  15  16
ENDBRANCH  14  15
ENDBRANCH  12  14
ENDBRANCH   7  12
TORSDOF 5
ENDMDL
MODEL 6
REMARK VINA RESULT:      -6.4      2.220      5.980
REMARK  Name = 
REMARK  8 active torsions:
REMARK  status: ('A' for Active; 'I' for Inactive)
REMARK    1  A    between atoms: C_1  and  C_2
REMARK    2  A    between atoms: C_2  and  C_3
REMARK    3  A    between atoms: C_9  and  N_10
REMARK    4  A    between atoms: N_10  and  C_11
REMARK    5  A    between atoms: N_10  and  C_12
REMARK    6  A    between atoms: C_12  and  C_13
REMARK    7  A    between atoms: C_13  and  C_14
REMARK    8  A    between atoms: N_17  and  C_18
REMARK                            x       y       z     vdW  Elec       q    Type
REMARK                         _______ _______ _______ _____ _____    ______ ____
ROOT
ATOM      1  C   UNL     1       2.356   5.164  20.241  0.00  0.00    +0.000 A 
ATOM      2  C   UNL     1       1.948   6.434  20.673  0.00  0.00    +0.000 A 
ATOM      3  N   UNL     1       1.917   7.547  19.934  0.00  0.00    +0.000 NA
ATOM      4  C   UNL     1       2.335   7.389  18.693  0.00  0.00    +0.000 A 
ATOM      5  N   UNL     1       2.283   8.497  17.871  0.00  0.00    +0.000 N 
ATOM      6  N   UNL     1       2.749   6.228  18.173  0.00  0.00    +0.000 NA
ATOM      7  C   UNL     1       2.796   5.086  18.913  0.00  0.00    +0.000 A 
ATOM      8  H   UNL     1       1.610   9.152  18.247  0.00  0.00    +0.000 HD
ATOM      9  H   UNL     1       2.159   8.204  16.913  0.00  0.00    +0.000 HD
ENDROOT
BRANCH   1  11
ATOM     10  C   UNL     1       1.117   3.064  21.009  0.00  0.00    +0.000 C 
ATOM     11  C   UNL     1       2.196   4.103  21.302  0.00  0.00    +0.000 C 
ENDBRANCH   1  11
BRANCH   7  12
ATOM     12  N   UNL     1       3.315   3.977  18.235  0.00  0.00    +0.000 N 
ATOM     13  C   UNL     1       2.349   3.119  17.526  0.00  0.00    +0.000 C 
BRANCH  12  14
ATOM     14  C   UNL     1       4.675   3.434  18.397  0.00  0.00    +0.000 C 
BRANCH  14  15
ATOM     15  C   UNL     1       5.851   4.433  18.207  0.00  0.00    +0.000 C 
BRANCH  15  16
ATOM     16  C   UNL     1       6.217   4.561  16.749  0.00  0.00    +0.000 A 
ATOM     17  C   UNL     1       7.216   5.383  16.160  0.00  0.00    +0.000 A 
ATOM     18  N   UNL     1       7.346   5.185  14.850  0.00  0.00    +0.000 NA
ATOM     19  N   UNL     1       6.419   4.251  14.575  0.00  0.00    +0.000 N 
ATOM     20  C   UNL     1       6.328   3.691  13.250  0.00  0.00    +0.000 C 
ATOM     21  C   UNL     1       5.689   3.881  15.672  0.00  0.00    +0.000 A 
ENDBRANCH  15  16
ENDBRANCH  14  15
ENDBRANCH  12  14
ENDBRANCH   7  12
TORSDOF 5
ENDMDL
MODEL 7
REMARK VINA RESULT:      -6.4      1.882      2.915
REMARK  Name = 
REMARK  8 active torsions:
REMARK  status: ('A' for Active; 'I' for Inactive)
REMARK    1  A    between atoms: C_1  and  C_2
REMARK    2  A    between atoms: C_2  and  C_3
REMARK    3  A    between atoms: C_9  and  N_10
REMARK    4  A    between atoms: N_10  and  C_11
REMARK    5  A    between atoms: N_10  and  C_12
REMARK    6  A    between atoms: C_12  and  C_13
REMARK    7  A    between atoms: C_13  and  C_14
REMARK    8  A    between atoms: N_17  and  C_18
REMARK                            x       y       z     vdW  Elec       q    Type
REMARK                         _______ _______ _______ _____ _____    ______ ____
ROOT
ATOM      1  C   UNL     1       6.212   4.826  17.893  0.00  0.00    +0.000 A 
ATOM      2  C   UNL     1       7.383   4.744  17.127  0.00  0.00    +0.000 A 
ATOM      3  N   UNL     1       7.469   4.344  15.855  0.00  0.00    +0.000 NA
ATOM      4  C   UNL     1       6.319   3.986  15.318  0.00  0.00    +0.000 A 
ATOM      5  N   UNL     1       6.342   3.606  13.990  0.00  0.00    +0.000 N 
ATOM      6  N   UNL     1       5.142   4.020  15.951  0.00  0.00    +0.000 NA
ATOM      7  C   UNL     1       5.036   4.416  17.250  0.00  0.00    +0.000 A 
ATOM      8  H   UNL     1       7.165   3.997  13.552  0.00  0.00    +0.000 HD
ATOM      9  H   UNL     1       5.449   3.808  13.564  0.00  0.00    +0.000 HD
ENDROOT
BRANCH   1  11
ATOM     10  C   UNL     1       7.903   5.730  19.582  0.00  0.00    +0.000 C 
ATOM     11  C   UNL     1       6.448   5.391  19.271  0.00  0.00    +0.000 C 
ENDBRANCH   1  11
BRANCH   7  12
ATOM     12  N   UNL     1       3.743   4.329  17.778  0.00  0.00    +0.000 N 
ATOM     13  C   UNL     1       3.001   3.082  17.520  0.00  0.00    +0.000 C 
BRANCH  12  14
ATOM     14  C   UNL     1       2.960   5.457  18.313  0.00  0.00    +0.000 C 
BRANCH  14  15
ATOM     15  C   UNL     1       3.226   6.852  17.680  0.00  0.00    +0.000 C 
BRANCH  15  16
ATOM     16  C   UNL     1       2.442   7.925  18.395  0.00  0.00    +0.000 A 
ATOM     17  C   UNL     1       2.023   9.189  17.898  0.00  0.00    +0.000 A 
ATOM     18  N   UNL     1       1.261   9.859  18.759  0.00  0.00    +0.000 NA
ATOM     19  N   UNL     1       1.198   9.047  19.829  0.00  0.00    +0.000 N 
ATOM     20  C   UNL     1       0.358   9.390  20.949  0.00  0.00    +0.000 C 
ATOM     21  C   UNL     1       1.926   7.899  19.673  0.00  0.00    +0.000 A 
ENDBRANCH  15  16
ENDBRANCH  14  15
ENDBRANCH  12  14
ENDBRANCH   7  12
TORSDOF 5
ENDMDL
MODEL 8
REMARK VINA RESULT:      -6.3      1.177      1.434
REMARK  Name = 
REMARK  8 active torsions:
REMARK  status: ('A' for Active; 'I' for Inactive)
REMARK    1  A    between atoms: C_1  and  C_2
REMARK    2  A    between atoms: C_2  and  C_3
REMARK    3  A    between atoms: C_9  and  N_10
REMARK    4  A    between atoms: N_10  and  C_11
REMARK    5  A    between atoms: N_10  and  C_12
REMARK    6  A    between atoms: C_12  and  C_13
REMARK    7  A    between atoms: C_13  and  C_14
REMARK    8  A    between atoms: N_17  and  C_18
REMARK                            x       y       z     vdW  Elec       q    Type
REMARK                         _______ _______ _______ _____ _____    ______ ____
ROOT
ATOM      1  C   UNL     1       5.756   4.489  16.917  0.00  0.00    +0.000 A 
ATOM      2  C   UNL     1       7.082   4.929  16.809  0.00  0.00    +0.000 A 
ATOM      3  N   UNL     1       7.870   5.317  17.816  0.00  0.00    +0.000 NA
ATOM      4  C   UNL     1       7.295   5.281  19.002  0.00  0.00    +0.000 A 
ATOM      5  N   UNL     1       8.078   5.630  20.085  0.00  0.00    +0.000 N 
ATOM      6  N   UNL     1       6.039   4.883  19.226  0.00  0.00    +0.000 NA
ATOM      7  C   UNL     1       5.218   4.493  18.212  0.00  0.00    +0.000 A 
ATOM      8  H   UNL     1       9.052   5.516  19.836  0.00  0.00    +0.000 HD
ATOM      9  H   UNL     1       7.751   5.148  20.910  0.00  0.00    +0.000 HD
ENDROOT
BRANCH   1  11
ATOM     10  C   UNL     1       6.181   3.937  14.458  0.00  0.00    +0.000 C 
ATOM     11  C   UNL     1       5.172   4.048  15.598  0.00  0.00    +0.000 C 
ENDBRANCH   1  11
BRANCH   7  12
ATOM     12  N   UNL     1       3.916   4.170  18.611  0.00  0.00    +0.000 N 
ATOM     13  C   UNL     1       3.667   2.768  18.995  0.00  0.00    +0.000 C 
BRANCH  12  14
ATOM     14  C   UNL     1       2.726   5.015  18.414  0.00  0.00    +0.000 C 
BRANCH  14  15
ATOM     15  C   UNL     1       2.982   6.493  18.003  0.00  0.00    +0.000 C 
BRANCH  15  16
ATOM     16  C   UNL     1       2.285   7.442  18.947  0.00  0.00    +0.000 A 
ATOM     17  C   UNL     1       2.010   7.265  20.330  0.00  0.00    +0.000 A 
ATOM     18  N   UNL     1       1.465   8.341  20.893  0.00  0.00    +0.000 NA
ATOM     19  N   UNL     1       1.360   9.215  19.877  0.00  0.00    +0.000 N 
ATOM     20  C   UNL     1       0.904  10.559  20.123  0.00  0.00    +0.000 C 
ATOM     21  C   UNL     1       1.798   8.705  18.684  0.00  0.00    +0.000 A 
ENDBRANCH  15  16
ENDBRANCH  14  15
ENDBRANCH  12  14
ENDBRANCH   7  12
TORSDOF 5
ENDMDL
MODEL 9
REMARK VINA RESULT:      -6.3      1.452      2.089
REMARK  Name = 
REMARK  8 active torsions:
REMARK  status: ('A' for Active; 'I' for Inactive)
REMARK    1  A    between atoms: C_1  and  C_2
REMARK    2  A    between atoms: C_2  and  C_3
REMARK    3  A    between atoms: C_9  and  N_10
REMARK    4  A    between atoms: N_10  and  C_11
REMARK    5  A    between atoms: N_10  and  C_12
REMARK    6  A    between atoms: C_12  and  C_13
REMARK    7  A    between atoms: C_13  and  C_14
REMARK    8  A    between atoms: N_17  and  C_18
REMARK                            x       y       z     vdW  Elec       q    Type
REMARK                         _______ _______ _______ _____ _____    ______ ____
ROOT
ATOM      1  C   UNL     1       5.773   4.484  16.901  0.00  0.00    +0.000 A 
ATOM      2  C   UNL     1       6.888   5.322  16.760  0.00  0.00    +0.000 A 
ATOM      3  N   UNL     1       7.697   5.731  17.742  0.00  0.00    +0.000 NA
ATOM      4  C   UNL     1       7.363   5.294  18.941  0.00  0.00    +0.000 A 
ATOM      5  N   UNL     1       8.191   5.651  19.987  0.00  0.00    +0.000 N 
ATOM      6  N   UNL     1       6.323   4.494  19.195  0.00  0.00    +0.000 NA
ATOM      7  C   UNL     1       5.482   4.074  18.209  0.00  0.00    +0.000 A 
ATOM      8  H   UNL     1       9.101   5.891  19.618  0.00  0.00    +0.000 HD
ATOM      9  H   UNL     1       8.154   4.943  20.706  0.00  0.00    +0.000 HD
ENDROOT
BRANCH   1  11
ATOM     10  C   UNL     1       6.043   4.237  14.371  0.00  0.00    +0.000 C 
ATOM     11  C   UNL     1       5.120   4.148  15.583  0.00  0.00    +0.000 C 
ENDBRANCH   1  11
BRANCH   7  12
ATOM     12  N   UNL     1       4.407   3.297  18.656  0.00  0.00    +0.000 N 
ATOM     13  C   UNL     1       4.607   2.541  19.905  0.00  0.00    +0.000 C 
BRANCH  12  14
ATOM     14  C   UNL     1       3.218   2.943  17.860  0.00  0.00    +0.000 C 
BRANCH  14  15
ATOM     15  C   UNL     1       1.862   3.536  18.334  0.00  0.00    +0.000 C 
BRANCH  15  16
ATOM     16  C   UNL     1       1.998   5.006  18.646  0.00  0.00    +0.000 A 
ATOM     17  C   UNL     1       2.066   5.635  19.919  0.00  0.00    +0.000 A 
ATOM     18  N   UNL     1       2.284   6.946  19.841  0.00  0.00    +0.000 NA
ATOM     19  N   UNL     1       2.336   7.182  18.518  0.00  0.00    +0.000 N 
ATOM     20  C   UNL     1       2.669   8.497  18.031  0.00  0.00    +0.000 C 
ATOM     21  C   UNL     1       2.126   6.059  17.764  0.00  0.00    +0.000 A 
ENDBRANCH  15  16
ENDBRANCH  14  15
ENDBRANCH  12  14
ENDBRANCH   7  12
TORSDOF 5
ENDMDL
