MODEL 1
REMARK VINA RESULT:      -7.9      0.000      0.000
REMARK  Name = 
REMARK  7 active torsions:
REMARK  status: ('A' for Active; 'I' for Inactive)
REMARK    1  A    between atoms: C_1  and  C_2
REMARK    2  A    between atoms: C_2  and  C_3
REMARK    3  A    between atoms: C_3  and  C_4
REMARK    4  A    between atoms: C_4  and  N_5
REMARK    5  A    between atoms: N_5  and  C_6
REMARK    6  A    between atoms: C_7  and  C_9
REMARK    7  A    between atoms: C_15  and  C_16
REMARK                            x       y       z     vdW  Elec       q    Type
REMARK                         _______ _______ _______ _____ _____    ______ ____
ROOT
ATOM      1  C   UNL     1       4.483   3.810  18.038  0.00  0.00    +0.000 A 
ATOM      2  C   UNL     1       5.019   4.800  18.850  0.00  0.00    +0.000 A 
ATOM      3  N   UNL     1       5.961   5.433  18.094  0.00  0.00    +0.000 N 
ATOM      4  C   UNL     1       6.862   6.439  18.382  0.00  0.00    +0.000 A 
ATOM      5  C   UNL     1       7.693   6.838  17.404  0.00  0.00    +0.000 A 
ATOM      6  N   UNL     1       7.693   6.319  16.119  0.00  0.00    +0.000 NA
ATOM      7  C   UNL     1       6.823   5.379  15.825  0.00  0.00    +0.000 A 
ATOM      8  C   UNL     1       5.924   4.872  16.845  0.00  0.00    +0.000 A 
ATOM      9  N   UNL     1       5.058   3.886  16.776  0.00  0.00    +0.000 NA
ENDROOT
BRANCH   7  10
ATOM     10  C   UNL     1       6.765   4.827  14.441  0.00  0.00    +0.000 A 
ATOM     11  C   UNL     1       7.700   5.259  13.494  0.00  0.00    +0.000 A 
ATOM     12  C   UNL     1       7.657   4.760  12.190  0.00  0.00    +0.000 A 
ATOM     13  C   UNL     1       6.673   3.840  11.823  0.00  0.00    +0.000 A 
ATOM     14  C   UNL     1       5.731   3.417  12.759  0.00  0.00    +0.000 A 
ATOM     15  C   UNL     1       5.773   3.913  14.062  0.00  0.00    +0.000 A 
ENDBRANCH   7  10
BRANCH   1  18
ATOM     16  N   UNL     1       2.099   3.212  18.307  0.00  0.00    +0.000 N 
ATOM     17  C   UNL     1       1.669   4.402  17.583  0.00  0.00    +0.000 C 
ATOM     18  C   UNL     1       3.448   2.841  18.436  0.00  0.00    +0.000 C 
ATOM     19  O   UNL     1       3.775   1.730  18.854  0.00  0.00    +0.000 OA
BRANCH  16  20
ATOM     20  C   UNL     1       1.069   2.260  18.719  0.00  0.00    +0.000 C 
BRANCH  20  21
ATOM     21  C   UNL     1       0.338   2.635  20.012  0.00  0.00    +0.000 C 
BRANCH  21  23
ATOM     22  C   UNL     1       2.022   2.615  21.875  0.00  0.00    +0.000 C 
ATOM     23  C   UNL     1       1.178   3.491  20.960  0.00  0.00    +0.000 C 
ENDBRANCH  21  23
ENDBRANCH  20  21
ENDBRANCH  16  20
ENDBRANCH   1  18
TORSDOF 5
ENDMDL
MODEL 2
REMARK VINA RESULT:      -7.8      0.049      1.009
REMARK  Name = 
REMARK  7 active torsions:
REMARK  status: ('A' for Active; 'I' for Inactive)
REMARK    1  A    between atoms: C_1  and  C_2
REMARK    2  A    between atoms: C_2  and  C_3
REMARK    3  A    between atoms: C_3  and  C_4
REMARK    4  A    between atoms: C_4  and  N_5
REMARK    5  A    between atoms: N_5  and  C_6
REMARK    6  A    between atoms: C_7  and  C_9
REMARK    7  A    between atoms: C_15  and  C_16
REMARK                            x       y       z     vdW  Elec       q    Type
REMARK                         _______ _______ _______ _____ _____    ______ ____
ROOT
ATOM      1  C   UNL     1       4.484   3.787  17.999  0.00  0.00    +0.000 A 
ATOM      2  C   UNL     1       5.022   4.766  18.823  0.00  0.00    +0.000 A 
ATOM      3  N   UNL     1       5.966   5.406  18.075  0.00  0.00    +0.000 N 
ATOM      4  C   UNL     1       6.869   6.406  18.374  0.00  0.00    +0.000 A 
ATOM      5  C   UNL     1       7.701   6.815  17.402  0.00  0.00    +0.000 A 
ATOM      6  N   UNL     1       7.700   6.312  16.110  0.00  0.00    +0.000 NA
ATOM      7  C   UNL     1       6.828   5.377  15.805  0.00  0.00    +0.000 A 
ATOM      8  C   UNL     1       5.927   4.860  16.819  0.00  0.00    +0.000 A 
ATOM      9  N   UNL     1       5.059   3.877  16.739  0.00  0.00    +0.000 NA
ENDROOT
BRANCH   7  10
ATOM     10  C   UNL     1       6.769   4.842  14.415  0.00  0.00    +0.000 A 
ATOM     11  C   UNL     1       5.777   3.915  14.081  0.00  0.00    +0.000 A 
ATOM     12  C   UNL     1       5.712   3.395  12.786  0.00  0.00    +0.000 A 
ATOM     13  C   UNL     1       6.644   3.790  11.824  0.00  0.00    +0.000 A 
ATOM     14  C   UNL     1       7.643   4.703  12.155  0.00  0.00    +0.000 A 
ATOM     15  C   UNL     1       7.709   5.224  13.447  0.00  0.00    +0.000 A 
ENDBRANCH   7  10
BRANCH   1  18
ATOM     16  N   UNL     1       2.100   3.211  18.313  0.00  0.00    +0.000 N 
ATOM     17  C   UNL     1       1.667   4.437  17.654  0.00  0.00    +0.000 C 
ATOM     18  C   UNL     1       3.447   2.816  18.385  0.00  0.00    +0.000 C 
ATOM     19  O   UNL     1       3.769   1.683  18.745  0.00  0.00    +0.000 OA
BRANCH  16  20
ATOM     20  C   UNL     1       1.068   2.256  18.714  0.00  0.00    +0.000 C 
BRANCH  20  21
ATOM     21  C   UNL     1       0.320   2.632  19.997  0.00  0.00    +0.000 C 
BRANCH  21  23
ATOM     22  C   UNL     1       2.049   2.575  21.817  0.00  0.00    +0.000 C 
ATOM     23  C   UNL     1       1.154   3.467  20.967  0.00  0.00    +0.000 C 
ENDBRANCH  21  23
ENDBRANCH  20  21
ENDBRANCH  16  20
ENDBRANCH   1  18
TORSDOF 5
ENDMDL
MODEL 3
REMARK VINA RESULT:      -7.3      2.955      7.060
REMARK  Name = 
REMARK  7 active torsions:
REMARK  status: ('A' for Active; 'I' for Inactive)
REMARK    1  A    between atoms: C_1  and  C_2
REMARK    2  A    between atoms: C_2  and  C_3
REMARK    3  A    between atoms: C_3  and  C_4
REMARK    4  A    between atoms: C_4  and  N_5
REMARK    5  A    between atoms: N_5  and  C_6
REMARK    6  A    between atoms: C_7  and  C_9
REMARK    7  A    between atoms: C_15  and  C_16
REMARK                            x       y       z     vdW  Elec       q    Type
REMARK                         _______ _______ _______ _____ _____    ______ ____
ROOT
ATOM      1  C   UNL     1       5.244   4.634  18.357  0.00  0.00    +0.000 A 
ATOM      2  C   UNL     1       4.803   3.534  19.080  0.00  0.00    +0.000 A 
ATOM      3  N   UNL     1       3.703   3.955  19.767  0.00  0.00    +0.000 N 
ATOM      4  C   UNL     1       2.892   3.333  20.695  0.00  0.00    +0.000 A 
ATOM      5  C   UNL     1       1.876   4.041  21.217  0.00  0.00    +0.000 A 
ATOM      6  N   UNL     1       1.576   5.350  20.871  0.00  0.00    +0.000 NA
ATOM      7  C   UNL     1       2.326   5.944  19.970  0.00  0.00    +0.000 A 
ATOM      8  C   UNL     1       3.465   5.252  19.396  0.00  0.00    +0.000 A 
ATOM      9  N   UNL     1       4.376   5.698  18.561  0.00  0.00    +0.000 NA
ENDROOT
BRANCH   7  10
ATOM     10  C   UNL     1       2.008   7.336  19.543  0.00  0.00    +0.000 A 
ATOM     11  C   UNL     1       1.422   8.216  20.459  0.00  0.00    +0.000 A 
ATOM     12  C   UNL     1       1.109   9.521  20.074  0.00  0.00    +0.000 A 
ATOM     13  C   UNL     1       1.367   9.950  18.771  0.00  0.00    +0.000 A 
ATOM     14  C   UNL     1       1.938   9.074  17.850  0.00  0.00    +0.000 A 
ATOM     15  C   UNL     1       2.253   7.770  18.232  0.00  0.00    +0.000 A 
ENDBRANCH   7  10
BRANCH   1  18
ATOM     16  N   UNL     1       6.286   5.139  16.172  0.00  0.00    +0.000 N 
ATOM     17  C   UNL     1       5.082   5.811  15.700  0.00  0.00    +0.000 C 
ATOM     18  C   UNL     1       6.433   4.670  17.489  0.00  0.00    +0.000 C 
ATOM     19  O   UNL     1       7.525   4.309  17.928  0.00  0.00    +0.000 OA
BRANCH  16  20
ATOM     20  C   UNL     1       7.459   5.159  15.301  0.00  0.00    +0.000 C 
BRANCH  20  21
ATOM     21  C   UNL     1       7.164   4.837  13.833  0.00  0.00    +0.000 C 
BRANCH  21  23
ATOM     22  C   UNL     1       5.974   3.381  12.169  0.00  0.00    +0.000 C 
ATOM     23  C   UNL     1       6.267   3.614  13.644  0.00  0.00    +0.000 C 
ENDBRANCH  21  23
ENDBRANCH  20  21
ENDBRANCH  16  20
ENDBRANCH   1  18
TORSDOF 5
ENDMDL
MODEL 4
REMARK VINA RESULT:      -7.3      2.928      7.022
REMARK  Name = 
REMARK  7 active torsions:
REMARK  status: ('A' for Active; 'I' for Inactive)
REMARK    1  A    between atoms: C_1  and  C_2
REMARK    2  A    between atoms: C_2  and  C_3
REMARK    3  A    between atoms: C_3  and  C_4
REMARK    4  A    between atoms: C_4  and  N_5
REMARK    5  A    between atoms: N_5  and  C_6
REMARK    6  A    between atoms: C_7  and  C_9
REMARK    7  A    between atoms: C_15  and  C_16
REMARK                            x       y       z     vdW  Elec       q    Type
REMARK                         _______ _______ _______ _____ _____    ______ ____
ROOT
ATOM      1  C   UNL     1       5.250   4.612  18.373  0.00  0.00    +0.000 A 
ATOM      2  C   UNL     1       4.818   3.502  19.086  0.00  0.00    +0.000 A 
ATOM      3  N   UNL     1       3.713   3.907  19.775  0.00  0.00    +0.000 N 
ATOM      4  C   UNL     1       2.906   3.270  20.697  0.00  0.00    +0.000 A 
ATOM      5  C   UNL     1       1.883   3.964  21.223  0.00  0.00    +0.000 A 
ATOM      6  N   UNL     1       1.571   5.273  20.887  0.00  0.00    +0.000 NA
ATOM      7  C   UNL     1       2.317   5.882  19.991  0.00  0.00    +0.000 A 
ATOM      8  C   UNL     1       3.463   5.204  19.414  0.00  0.00    +0.000 A 
ATOM      9  N   UNL     1       4.372   5.666  18.584  0.00  0.00    +0.000 NA
ENDROOT
BRANCH   7  10
ATOM     10  C   UNL     1       1.987   7.274  19.575  0.00  0.00    +0.000 A 
ATOM     11  C   UNL     1       2.250   7.675  18.261  0.00  0.00    +0.000 A 
ATOM     12  C   UNL     1       1.956   8.979  17.854  0.00  0.00    +0.000 A 
ATOM     13  C   UNL     1       1.410   9.890  18.760  0.00  0.00    +0.000 A 
ATOM     14  C   UNL     1       1.159   9.500  20.074  0.00  0.00    +0.000 A 
ATOM     15  C   UNL     1       1.450   8.199  20.482  0.00  0.00    +0.000 A 
ENDBRANCH   7  10
BRANCH   1  18
ATOM     16  N   UNL     1       6.290   5.142  16.193  0.00  0.00    +0.000 N 
ATOM     17  C   UNL     1       5.079   5.804  15.724  0.00  0.00    +0.000 C 
ATOM     18  C   UNL     1       6.440   4.666  17.507  0.00  0.00    +0.000 C 
ATOM     19  O   UNL     1       7.535   4.314  17.945  0.00  0.00    +0.000 OA
BRANCH  16  20
ATOM     20  C   UNL     1       7.464   5.179  15.325  0.00  0.00    +0.000 C 
BRANCH  20  21
ATOM     21  C   UNL     1       7.180   4.834  13.859  0.00  0.00    +0.000 C 
BRANCH  21  23
ATOM     22  C   UNL     1       5.941   3.396  12.215  0.00  0.00    +0.000 C 
ATOM     23  C   UNL     1       6.268   3.620  13.685  0.00  0.00    +0.000 C 
ENDBRANCH  21  23
ENDBRANCH  20  21
ENDBRANCH  16  20
ENDBRANCH   1  18
TORSDOF 5
ENDMDL
MODEL 5
REMARK VINA RESULT:      -7.3      3.744      5.598
REMARK  Name = 
REMARK  7 active torsions:
REMARK  status: ('A' for Active; 'I' for Inactive)
REMARK    1  A    between atoms: C_1  and  C_2
REMARK    2  A    between atoms: C_2  and  C_3
REMARK    3  A    between atoms: C_3  and  C_4
REMARK    4  A    between atoms: C_4  and  N_5
REMARK    5  A    between atoms: N_5  and  C_6
REMARK    6  A    between atoms: C_7  and  C_9
REMARK    7  A    between atoms: C_15  and  C_16
REMARK                            x       y       z     vdW  Elec       q    Type
REMARK                         _______ _______ _______ _____ _____    ______ ____
ROOT
ATOM      1  C   UNL     1       2.130   6.290  19.970  0.00  0.00    +0.000 A 
ATOM      2  C   UNL     1       1.561   5.153  20.526  0.00  0.00    +0.000 A 
ATOM      3  N   UNL     1       2.184   4.095  19.932  0.00  0.00    +0.000 N 
ATOM      4  C   UNL     1       1.994   2.731  20.026  0.00  0.00    +0.000 A 
ATOM      5  C   UNL     1       2.774   1.934  19.277  0.00  0.00    +0.000 A 
ATOM      6  N   UNL     1       3.773   2.390  18.430  0.00  0.00    +0.000 NA
ATOM      7  C   UNL     1       3.981   3.685  18.351  0.00  0.00    +0.000 A 
ATOM      8  C   UNL     1       3.146   4.606  19.102  0.00  0.00    +0.000 A 
ATOM      9  N   UNL     1       3.136   5.920  19.088  0.00  0.00    +0.000 NA
ENDROOT
BRANCH   7  10
ATOM     10  C   UNL     1       5.073   4.210  17.483  0.00  0.00    +0.000 A 
ATOM     11  C   UNL     1       4.872   4.285  16.101  0.00  0.00    +0.000 A 
ATOM     12  C   UNL     1       5.887   4.764  15.271  0.00  0.00    +0.000 A 
ATOM     13  C   UNL     1       7.111   5.159  15.814  0.00  0.00    +0.000 A 
ATOM     14  C   UNL     1       7.322   5.073  17.189  0.00  0.00    +0.000 A 
ATOM     15  C   UNL     1       6.310   4.595  18.021  0.00  0.00    +0.000 A 
ENDBRANCH   7  10
BRANCH   1  18
ATOM     16  N   UNL     1       1.722   8.614  19.231  0.00  0.00    +0.000 N 
ATOM     17  C   UNL     1       1.816   8.234  17.827  0.00  0.00    +0.000 C 
ATOM     18  C   UNL     1       1.749   7.679  20.279  0.00  0.00    +0.000 C 
ATOM     19  O   UNL     1       1.449   7.992  21.432  0.00  0.00    +0.000 OA
BRANCH  16  20
ATOM     20  C   UNL     1       1.363   9.997  19.536  0.00  0.00    +0.000 C 
BRANCH  20  21
ATOM     21  C   UNL     1       0.453  10.661  18.497  0.00  0.00    +0.000 C 
BRANCH  21  23
ATOM     22  C   UNL     1      -1.721  10.031  17.409  0.00  0.00    +0.000 C 
ATOM     23  C   UNL     1      -1.033  10.382  18.721  0.00  0.00    +0.000 C 
ENDBRANCH  21  23
ENDBRANCH  20  21
ENDBRANCH  16  20
ENDBRANCH   1  18
TORSDOF 5
ENDMDL
MODEL 6
REMARK VINA RESULT:      -7.2      0.974      1.577
REMARK  Name = 
REMARK  7 active torsions:
REMARK  status: ('A' for Active; 'I' for Inactive)
REMARK    1  A    between atoms: C_1  and  C_2
REMARK    2  A    between atoms: C_2  and  C_3
REMARK    3  A    between atoms: C_3  and  C_4
REMARK    4  A    between atoms: C_4  and  N_5
REMARK    5  A    between atoms: N_5  and  C_6
REMARK    6  A    between atoms: C_7  and  C_9
REMARK    7  A    between atoms: C_15  and  C_16
REMARK                            x       y       z     vdW  Elec       q    Type
REMARK                         _______ _______ _______ _____ _____    ______ ____
ROOT
ATOM      1  C   UNL     1       3.801   4.555  17.534  0.00  0.00    +0.000 A 
ATOM      2  C   UNL     1       4.410   5.466  18.386  0.00  0.00    +0.000 A 
ATOM      3  N   UNL     1       5.557   5.854  17.760  0.00  0.00    +0.000 N 
ATOM      4  C   UNL     1       6.595   6.678  18.147  0.00  0.00    +0.000 A 
ATOM      5  C   UNL     1       7.618   6.846  17.291  0.00  0.00    +0.000 A 
ATOM      6  N   UNL     1       7.691   6.261  16.036  0.00  0.00    +0.000 NA
ATOM      7  C   UNL     1       6.697   5.495  15.646  0.00  0.00    +0.000 A 
ATOM      8  C   UNL     1       5.580   5.238  16.537  0.00  0.00    +0.000 A 
ATOM      9  N   UNL     1       4.550   4.440  16.371  0.00  0.00    +0.000 NA
ENDROOT
BRANCH   7  10
ATOM     10  C   UNL     1       6.721   4.883  14.287  0.00  0.00    +0.000 A 
ATOM     11  C   UNL     1       5.808   3.870  13.977  0.00  0.00    +0.000 A 
ATOM     12  C   UNL     1       5.822   3.279  12.711  0.00  0.00    +0.000 A 
ATOM     13  C   UNL     1       6.755   3.687  11.756  0.00  0.00    +0.000 A 
ATOM     14  C   UNL     1       7.675   4.686  12.064  0.00  0.00    +0.000 A 
ATOM     15  C   UNL     1       7.663   5.279  13.327  0.00  0.00    +0.000 A 
ENDBRANCH   7  10
BRANCH   1  18
ATOM     16  N   UNL     1       2.608   2.626  18.519  0.00  0.00    +0.000 N 
ATOM     17  C   UNL     1       3.809   2.175  19.210  0.00  0.00    +0.000 C 
ATOM     18  C   UNL     1       2.546   3.834  17.804  0.00  0.00    +0.000 C 
ATOM     19  O   UNL     1       1.474   4.302  17.418  0.00  0.00    +0.000 OA
BRANCH  16  20
ATOM     20  C   UNL     1       1.366   1.898  18.773  0.00  0.00    +0.000 C 
BRANCH  20  21
ATOM     21  C   UNL     1       0.371   2.636  19.674  0.00  0.00    +0.000 C 
BRANCH  21  23
ATOM     22  C   UNL     1       1.554   2.514  21.886  0.00  0.00    +0.000 C 
ATOM     23  C   UNL     1       1.038   3.438  20.791  0.00  0.00    +0.000 C 
ENDBRANCH  21  23
ENDBRANCH  20  21
ENDBRANCH  16  20
ENDBRANCH   1  18
TORSDOF 5
ENDMDL
MODEL 7
REMARK VINA RESULT:      -7.2      4.208      5.885
REMARK  Name = 
REMARK  7 active torsions:
REMARK  status: ('A' for Active; 'I' for Inactive)
REMARK    1  A    between atoms: C_1  and  C_2
REMARK    2  A    between atoms: C_2  and  C_3
REMARK    3  A    between atoms: C_3  and  C_4
REMARK    4  A    between atoms: C_4  and  N_5
REMARK    5  A    between atoms: N_5  and  C_6
REMARK    6  A    between atoms: C_7  and  C_9
REMARK    7  A    between atoms: C_15  and  C_16
REMARK                            x       y       z     vdW  Elec       q    Type
REMARK                         _______ _______ _______ _____ _____    ______ ____
ROOT
ATOM      1  C   UNL     1       2.222   7.087  19.478  0.00  0.00    +0.000 A 
ATOM      2  C   UNL     1       1.741   6.306  20.520  0.00  0.00    +0.000 A 
ATOM      3  N   UNL     1       2.387   5.109  20.419  0.00  0.00    +0.000 N 
ATOM      4  C   UNL     1       2.271   3.927  21.123  0.00  0.00    +0.000 A 
ATOM      5  C   UNL     1       3.052   2.898  20.757  0.00  0.00    +0.000 A 
ATOM      6  N   UNL     1       3.983   2.949  19.730  0.00  0.00    +0.000 NA
ATOM      7  C   UNL     1       4.120   4.077  19.069  0.00  0.00    +0.000 A 
ATOM      8  C   UNL     1       3.279   5.216  19.385  0.00  0.00    +0.000 A 
ATOM      9  N   UNL     1       3.200   6.384  18.787  0.00  0.00    +0.000 NA
ENDROOT
BRANCH   7  10
ATOM     10  C   UNL     1       5.140   4.181  17.986  0.00  0.00    +0.000 A 
ATOM     11  C   UNL     1       6.423   4.643  18.298  0.00  0.00    +0.000 A 
ATOM     12  C   UNL     1       7.388   4.757  17.295  0.00  0.00    +0.000 A 
ATOM     13  C   UNL     1       7.074   4.422  15.976  0.00  0.00    +0.000 A 
ATOM     14  C   UNL     1       5.793   3.975  15.658  0.00  0.00    +0.000 A 
ATOM     15  C   UNL     1       4.828   3.859  16.657  0.00  0.00    +0.000 A 
ENDBRANCH   7  10
BRANCH   1  18
ATOM     16  N   UNL     1       1.166   9.213  20.170  0.00  0.00    +0.000 N 
ATOM     17  C   UNL     1       1.147   8.803  21.569  0.00  0.00    +0.000 C 
ATOM     18  C   UNL     1       1.787   8.458  19.161  0.00  0.00    +0.000 C 
ATOM     19  O   UNL     1       1.985   8.921  18.037  0.00  0.00    +0.000 OA
BRANCH  16  20
ATOM     20  C   UNL     1       0.715  10.566  19.854  0.00  0.00    +0.000 C 
BRANCH  20  21
ATOM     21  C   UNL     1      -0.798  10.700  19.650  0.00  0.00    +0.000 C 
BRANCH  21  23
ATOM     22  C   UNL     1      -2.292  11.346  17.738  0.00  0.00    +0.000 C 
ATOM     23  C   UNL     1      -1.255  10.348  18.235  0.00  0.00    +0.000 C 
ENDBRANCH  21  23
ENDBRANCH  20  21
ENDBRANCH  16  20
ENDBRANCH   1  18
TORSDOF 5
ENDMDL
MODEL 8
REMARK VINA RESULT:      -7.2      4.216      5.944
REMARK  Name = 
REMARK  7 active torsions:
REMARK  status: ('A' for Active; 'I' for Inactive)
REMARK    1  A    between atoms: C_1  and  C_2
REMARK    2  A    between atoms: C_2  and  C_3
REMARK    3  A    between atoms: C_3  and  C_4
REMARK    4  A    between atoms: C_4  and  N_5
REMARK    5  A    between atoms: N_5  and  C_6
REMARK    6  A    between atoms: C_7  and  C_9
REMARK    7  A    between atoms: C_15  and  C_16
REMARK                            x       y       z     vdW  Elec       q    Type
REMARK                         _______ _______ _______ _____ _____    ______ ____
ROOT
ATOM      1  C   UNL     1       2.190   7.046  19.516  0.00  0.00    +0.000 A 
ATOM      2  C   UNL     1       1.714   6.246  20.545  0.00  0.00    +0.000 A 
ATOM      3  N   UNL     1       2.378   5.060  20.434  0.00  0.00    +0.000 N 
ATOM      4  C   UNL     1       2.276   3.868  21.124  0.00  0.00    +0.000 A 
ATOM      5  C   UNL     1       3.076   2.855  20.751  0.00  0.00    +0.000 A 
ATOM      6  N   UNL     1       4.012   2.933  19.732  0.00  0.00    +0.000 NA
ATOM      7  C   UNL     1       4.137   4.070  19.085  0.00  0.00    +0.000 A 
ATOM      8  C   UNL     1       3.276   5.192  19.408  0.00  0.00    +0.000 A 
ATOM      9  N   UNL     1       3.183   6.366  18.824  0.00  0.00    +0.000 NA
ENDROOT
BRANCH   7  10
ATOM     10  C   UNL     1       5.162   4.203  18.011  0.00  0.00    +0.000 A 
ATOM     11  C   UNL     1       4.822   3.867  16.696  0.00  0.00    +0.000 A 
ATOM     12  C   UNL     1       5.772   3.976  15.678  0.00  0.00    +0.000 A 
ATOM     13  C   UNL     1       7.067   4.409  15.970  0.00  0.00    +0.000 A 
ATOM     14  C   UNL     1       7.415   4.732  17.280  0.00  0.00    +0.000 A 
ATOM     15  C   UNL     1       6.468   4.625  18.298  0.00  0.00    +0.000 A 
ENDBRANCH   7  10
BRANCH   1  18
ATOM     16  N   UNL     1       1.142   9.166  20.239  0.00  0.00    +0.000 N 
ATOM     17  C   UNL     1       1.170   8.757  21.638  0.00  0.00    +0.000 C 
ATOM     18  C   UNL     1       1.736   8.413  19.211  0.00  0.00    +0.000 C 
ATOM     19  O   UNL     1       1.895   8.876  18.081  0.00  0.00    +0.000 OA
BRANCH  16  20
ATOM     20  C   UNL     1       0.673  10.516  19.937  0.00  0.00    +0.000 C 
BRANCH  20  21
ATOM     21  C   UNL     1      -0.832  10.619  19.666  0.00  0.00    +0.000 C 
BRANCH  21  23
ATOM     22  C   UNL     1      -2.254  11.539  17.812  0.00  0.00    +0.000 C 
ATOM     23  C   UNL     1      -1.193  10.514  18.184  0.00  0.00    +0.000 C 
ENDBRANCH  21  23
ENDBRANCH  20  21
ENDBRANCH  16  20
ENDBRANCH   1  18
TORSDOF 5
ENDMDL
MODEL 9
REMARK VINA RESULT:      -7.1      4.432      5.973
REMARK  Name = 
REMARK  7 active torsions:
REMARK  status: ('A' for Active; 'I' for Inactive)
REMARK    1  A    between atoms: C_1  and  C_2
REMARK    2  A    between atoms: C_2  and  C_3
REMARK    3  A    between atoms: C_3  and  C_4
REMARK    4  A    between atoms: C_4  and  N_5
REMARK    5  A    between atoms: N_5  and  C_6
REMARK    6  A    between atoms: C_7  and  C_9
REMARK    7  A    between atoms: C_15  and  C_16
REMARK                            x       y       z     vdW  Elec       q    Type
REMARK                         _______ _______ _______ _____ _____    ______ ____
ROOT
ATOM      1  C   UNL     1       2.135   7.053  19.707  0.00  0.00    +0.000 A 
ATOM      2  C   UNL     1       1.648   6.226  20.710  0.00  0.00    +0.000 A 
ATOM      3  N   UNL     1       2.300   5.037  20.562  0.00  0.00    +0.000 N 
ATOM      4  C   UNL     1       2.183   3.826  21.214  0.00  0.00    +0.000 A 
ATOM      5  C   UNL     1       2.972   2.816  20.810  0.00  0.00    +0.000 A 
ATOM      6  N   UNL     1       3.911   2.916  19.794  0.00  0.00    +0.000 NA
ATOM      7  C   UNL     1       4.049   4.071  19.184  0.00  0.00    +0.000 A 
ATOM      8  C   UNL     1       3.200   5.192  19.542  0.00  0.00    +0.000 A 
ATOM      9  N   UNL     1       3.121   6.385  18.995  0.00  0.00    +0.000 NA
ENDROOT
BRANCH   7  10
ATOM     10  C   UNL     1       5.077   4.227  18.115  0.00  0.00    +0.000 A 
ATOM     11  C   UNL     1       4.747   3.900  16.796  0.00  0.00    +0.000 A 
ATOM     12  C   UNL     1       5.700   4.030  15.783  0.00  0.00    +0.000 A 
ATOM     13  C   UNL     1       6.988   4.476  16.085  0.00  0.00    +0.000 A 
ATOM     14  C   UNL     1       7.327   4.790  17.399  0.00  0.00    +0.000 A 
ATOM     15  C   UNL     1       6.377   4.661  18.412  0.00  0.00    +0.000 A 
ENDBRANCH   7  10
BRANCH   1  18
ATOM     16  N   UNL     1       1.237   9.207  20.526  0.00  0.00    +0.000 N 
ATOM     17  C   UNL     1       1.398   8.799  21.917  0.00  0.00    +0.000 C 
ATOM     18  C   UNL     1       1.696   8.435  19.445  0.00  0.00    +0.000 C 
ATOM     19  O   UNL     1       1.751   8.891  18.303  0.00  0.00    +0.000 OA
BRANCH  16  20
ATOM     20  C   UNL     1       0.783  10.572  20.269  0.00  0.00    +0.000 C 
BRANCH  20  21
ATOM     21  C   UNL     1      -0.678  10.836  20.647  0.00  0.00    +0.000 C 
BRANCH  21  23
ATOM     22  C   UNL     1      -1.289  11.065  23.072  0.00  0.00    +0.000 C 
ATOM     23  C   UNL     1      -0.839  11.803  21.819  0.00  0.00    +0.000 C 
ENDBRANCH  21  23
ENDBRANCH  20  21
ENDBRANCH  16  20
ENDBRANCH   1  18
TORSDOF 5
ENDMDL
