MODEL 1
REMARK VINA RESULT:      -6.6      0.000      0.000
REMARK  Name = 
REMARK  7 active torsions:
REMARK  status: ('A' for Active; 'I' for Inactive)
REMARK    1  A    between atoms: C_2  and  C_3
REMARK    2  A    between atoms: C_3  and  C_4
REMARK    3  A    between atoms: C_3  and  C_6
REMARK    4  A    between atoms: C_10  and  S_11
REMARK    5  A    between atoms: S_11  and  C_12
REMARK    6  A    between atoms: C_18  and  S_19
REMARK    7  A    between atoms: S_19  and  C_20
REMARK                            x       y       z     vdW  Elec       q    Type
REMARK                         _______ _______ _______ _____ _____    ______ ____
ROOT
ATOM      1  C   UNL     1       6.049   6.164  16.972  0.00  0.00    +0.000 C 
ATOM      2  C   UNL     1       4.710   6.893  16.701  0.00  0.00    +0.000 C 
ATOM      3  C   UNL     1       3.748   6.817  17.886  0.00  0.00    +0.000 C 
ATOM      4  C   UNL     1       3.790   5.506  18.617  0.00  0.00    +0.000 C 
ATOM      5  C   UNL     1       4.658   4.510  18.349  0.00  0.00    +0.000 C 
ATOM      6  C   UNL     1       5.763   4.659  17.294  0.00  0.00    +0.000 C 
ENDROOT
BRANCH   1   7
ATOM      7  C   UNL     1       6.878   6.868  18.096  0.00  0.00    +0.000 C 
BRANCH   7   9
ATOM      8  N   UNL     1       8.341   8.816  17.084  0.00  0.00    +0.000 NA
ATOM      9  C   UNL     1       7.705   7.958  17.534  0.00  0.00    +0.000 C 
ENDBRANCH   7   9
BRANCH   7  10
ATOM     10  C   UNL     1       7.751   5.910  18.797  0.00  0.00    +0.000 C 
ATOM     11  N   UNL     1       8.409   5.126  19.345  0.00  0.00    +0.000 NA
ENDBRANCH   7  10
ENDBRANCH   1   7
BRANCH   5  12
ATOM     12  S   UNL     1       4.692   3.085  19.381  0.00  0.00    +0.000 S 
BRANCH  12  13
ATOM     13  C   UNL     1       2.961   2.850  19.776  0.00  0.00    +0.000 A 
ATOM     14  C   UNL     1       2.475   3.050  21.073  0.00  0.00    +0.000 A 
ATOM     15  C   UNL     1       1.116   2.892  21.359  0.00  0.00    +0.000 A 
ATOM     16  C   UNL     1       0.223   2.555  20.345  0.00  0.00    +0.000 A 
ATOM     17  C   UNL     1       0.687   2.387  19.042  0.00  0.00    +0.000 A 
ATOM     18  C   UNL     1       2.051   2.536  18.759  0.00  0.00    +0.000 A 
ENDBRANCH  12  13
ENDBRANCH   5  12
BRANCH   6  19
ATOM     19  S   UNL     1       5.233   3.718  15.778  0.00  0.00    +0.000 S 
BRANCH  19  20
ATOM     20  C   UNL     1       6.289   4.289  14.452  0.00  0.00    +0.000 A 
ATOM     21  C   UNL     1       7.321   5.223  14.587  0.00  0.00    +0.000 A 
ATOM     22  C   UNL     1       8.091   5.600  13.481  0.00  0.00    +0.000 A 
ATOM     23  C   UNL     1       7.852   5.036  12.229  0.00  0.00    +0.000 A 
ATOM     24  C   UNL     1       6.844   4.088  12.084  0.00  0.00    +0.000 A 
ATOM     25  C   UNL     1       6.074   3.716  13.188  0.00  0.00    +0.000 A 
ENDBRANCH  19  20
ENDBRANCH   6  19
TORSDOF 7
ENDMDL
MODEL 2
REMARK VINA RESULT:      -6.3      0.787      1.241
REMARK  Name = 
REMARK  7 active torsions:
REMARK  status: ('A' for Active; 'I' for Inactive)
REMARK    1  A    between atoms: C_2  and  C_3
REMARK    2  A    between atoms: C_3  and  C_4
REMARK    3  A    between atoms: C_3  and  C_6
REMARK    4  A    between atoms: C_10  and  S_11
REMARK    5  A    between atoms: S_11  and  C_12
REMARK    6  A    between atoms: C_18  and  S_19
REMARK    7  A    between atoms: S_19  and  C_20
REMARK                            x       y       z     vdW  Elec       q    Type
REMARK                         _______ _______ _______ _____ _____    ______ ____
ROOT
ATOM      1  C   UNL     1       5.696   6.069  16.640  0.00  0.00    +0.000 C 
ATOM      2  C   UNL     1       4.435   6.966  16.705  0.00  0.00    +0.000 C 
ATOM      3  C   UNL     1       3.557   6.661  17.918  0.00  0.00    +0.000 C 
ATOM      4  C   UNL     1       3.498   5.203  18.272  0.00  0.00    +0.000 C 
ATOM      5  C   UNL     1       4.223   4.240  17.666  0.00  0.00    +0.000 C 
ATOM      6  C   UNL     1       5.260   4.567  16.583  0.00  0.00    +0.000 C 
ENDROOT
BRANCH   1   7
ATOM      7  C   UNL     1       6.679   6.361  17.821  0.00  0.00    +0.000 C 
BRANCH   7   9
ATOM      8  N   UNL     1       8.018   8.593  17.397  0.00  0.00    +0.000 NA
ATOM      9  C   UNL     1       7.435   7.608  17.578  0.00  0.00    +0.000 C 
ENDBRANCH   7   9
BRANCH   7  10
ATOM     10  C   UNL     1       7.627   5.250  18.015  0.00  0.00    +0.000 C 
ATOM     11  N   UNL     1       8.342   4.351  18.182  0.00  0.00    +0.000 NA
ENDBRANCH   7  10
ENDBRANCH   1   7
BRANCH   5  12
ATOM     12  S   UNL     1       4.163   2.593  18.280  0.00  0.00    +0.000 S 
BRANCH  12  13
ATOM     13  C   UNL     1       2.933   2.704  19.576  0.00  0.00    +0.000 A 
ATOM     14  C   UNL     1       1.566   2.758  19.282  0.00  0.00    +0.000 A 
ATOM     15  C   UNL     1       0.616   2.814  20.305  0.00  0.00    +0.000 A 
ATOM     16  C   UNL     1       1.021   2.791  21.637  0.00  0.00    +0.000 A 
ATOM     17  C   UNL     1       2.377   2.701  21.946  0.00  0.00    +0.000 A 
ATOM     18  C   UNL     1       3.329   2.656  20.919  0.00  0.00    +0.000 A 
ENDBRANCH  12  13
ENDBRANCH   5  12
BRANCH   6  19
ATOM     19  S   UNL     1       4.517   4.126  14.933  0.00  0.00    +0.000 S 
BRANCH  19  20
ATOM     20  C   UNL     1       5.845   4.271  13.743  0.00  0.00    +0.000 A 
ATOM     21  C   UNL     1       6.968   5.093  13.883  0.00  0.00    +0.000 A 
ATOM     22  C   UNL     1       7.953   5.129  12.889  0.00  0.00    +0.000 A 
ATOM     23  C   UNL     1       7.838   4.331  11.752  0.00  0.00    +0.000 A 
ATOM     24  C   UNL     1       6.739   3.491  11.611  0.00  0.00    +0.000 A 
ATOM     25  C   UNL     1       5.754   3.459  12.601  0.00  0.00    +0.000 A 
ENDBRANCH  19  20
ENDBRANCH   6  19
TORSDOF 7
ENDMDL
MODEL 3
REMARK VINA RESULT:      -6.3      7.901      9.886
REMARK  Name = 
REMARK  7 active torsions:
REMARK  status: ('A' for Active; 'I' for Inactive)
REMARK    1  A    between atoms: C_2  and  C_3
REMARK    2  A    between atoms: C_3  and  C_4
REMARK    3  A    between atoms: C_3  and  C_6
REMARK    4  A    between atoms: C_10  and  S_11
REMARK    5  A    between atoms: S_11  and  C_12
REMARK    6  A    between atoms: C_18  and  S_19
REMARK    7  A    between atoms: S_19  and  C_20
REMARK                            x       y       z     vdW  Elec       q    Type
REMARK                         _______ _______ _______ _____ _____    ______ ____
ROOT
ATOM      1  C   UNL     1       0.714  12.096  20.251  0.00  0.00    +0.000 C 
ATOM      2  C   UNL     1       1.084  13.336  19.400  0.00  0.00    +0.000 C 
ATOM      3  C   UNL     1      -0.102  13.878  18.603  0.00  0.00    +0.000 C 
ATOM      4  C   UNL     1      -1.014  12.810  18.073  0.00  0.00    +0.000 C 
ATOM      5  C   UNL     1      -0.890  11.495  18.345  0.00  0.00    +0.000 C 
ATOM      6  C   UNL     1       0.178  10.964  19.312  0.00  0.00    +0.000 C 
ENDROOT
BRANCH   1   7
ATOM      7  C   UNL     1      -0.295  12.453  21.392  0.00  0.00    +0.000 C 
BRANCH   7   9
ATOM      8  N   UNL     1       0.388  14.698  22.595  0.00  0.00    +0.000 NA
ATOM      9  C   UNL     1       0.097  13.710  22.064  0.00  0.00    +0.000 C 
ENDBRANCH   7   9
BRANCH   7  10
ATOM     10  C   UNL     1      -0.375  11.374  22.392  0.00  0.00    +0.000 C 
ATOM     11  N   UNL     1      -0.443  10.496  23.149  0.00  0.00    +0.000 NA
ENDBRANCH   7  10
ENDBRANCH   1   7
BRANCH   5  12
ATOM     12  S   UNL     1      -2.116  10.370  17.775  0.00  0.00    +0.000 S 
BRANCH  12  13
ATOM     13  C   UNL     1      -3.627  11.312  17.964  0.00  0.00    +0.000 A 
ATOM     14  C   UNL     1      -4.543  11.441  16.914  0.00  0.00    +0.000 A 
ATOM     15  C   UNL     1      -5.733  12.154  17.087  0.00  0.00    +0.000 A 
ATOM     16  C   UNL     1      -6.032  12.726  18.321  0.00  0.00    +0.000 A 
ATOM     17  C   UNL     1      -5.146  12.575  19.385  0.00  0.00    +0.000 A 
ATOM     18  C   UNL     1      -3.949  11.870  19.208  0.00  0.00    +0.000 A 
ENDBRANCH  12  13
ENDBRANCH   5  12
BRANCH   6  19
ATOM     19  S   UNL     1       1.542  10.210  18.293  0.00  0.00    +0.000 S 
BRANCH  19  20
ATOM     20  C   UNL     1       1.799   8.569  18.958  0.00  0.00    +0.000 A 
ATOM     21  C   UNL     1       2.400   7.506  18.275  0.00  0.00    +0.000 A 
ATOM     22  C   UNL     1       2.554   6.259  18.891  0.00  0.00    +0.000 A 
ATOM     23  C   UNL     1       2.128   6.062  20.203  0.00  0.00    +0.000 A 
ATOM     24  C   UNL     1       1.550   7.116  20.902  0.00  0.00    +0.000 A 
ATOM     25  C   UNL     1       1.392   8.359  20.285  0.00  0.00    +0.000 A 
ENDBRANCH  19  20
ENDBRANCH   6  19
TORSDOF 7
ENDMDL
MODEL 4
REMARK VINA RESULT:      -6.2      7.751      9.631
REMARK  Name = 
REMARK  7 active torsions:
REMARK  status: ('A' for Active; 'I' for Inactive)
REMARK    1  A    between atoms: C_2  and  C_3
REMARK    2  A    between atoms: C_3  and  C_4
REMARK    3  A    between atoms: C_3  and  C_6
REMARK    4  A    between atoms: C_10  and  S_11
REMARK    5  A    between atoms: S_11  and  C_12
REMARK    6  A    between atoms: C_18  and  S_19
REMARK    7  A    between atoms: S_19  and  C_20
REMARK                            x       y       z     vdW  Elec       q    Type
REMARK                         _______ _______ _______ _____ _____    ______ ____
ROOT
ATOM      1  C   UNL     1       0.650  11.591  20.380  0.00  0.00    +0.000 C 
ATOM      2  C   UNL     1       1.089  12.899  19.677  0.00  0.00    +0.000 C 
ATOM      3  C   UNL     1      -0.050  13.563  18.904  0.00  0.00    +0.000 C 
ATOM      4  C   UNL     1      -0.976  12.589  18.235  0.00  0.00    +0.000 C 
ATOM      5  C   UNL     1      -0.903  11.249  18.371  0.00  0.00    +0.000 C 
ATOM      6  C   UNL     1       0.112  10.584  19.310  0.00  0.00    +0.000 C 
ENDROOT
BRANCH   1   7
ATOM      7  C   UNL     1      -0.387  11.863  21.519  0.00  0.00    +0.000 C 
BRANCH   7   9
ATOM      8  N   UNL     1       0.003  14.244  22.585  0.00  0.00    +0.000 NA
ATOM      9  C   UNL     1      -0.165  13.194  22.124  0.00  0.00    +0.000 C 
ENDBRANCH   7   9
BRANCH   7  10
ATOM     10  C   UNL     1      -0.308  10.834  22.571  0.00  0.00    +0.000 C 
ATOM     11  N   UNL     1      -0.216  10.004  23.378  0.00  0.00    +0.000 NA
ENDBRANCH   7  10
ENDBRANCH   1   7
BRANCH   5  12
ATOM     12  S   UNL     1      -2.144  10.234  17.646  0.00  0.00    +0.000 S 
BRANCH  12  13
ATOM     13  C   UNL     1      -3.636  11.184  17.925  0.00  0.00    +0.000 A 
ATOM     14  C   UNL     1      -3.895  11.791  19.159  0.00  0.00    +0.000 A 
ATOM     15  C   UNL     1      -5.049  12.554  19.353  0.00  0.00    +0.000 A 
ATOM     16  C   UNL     1      -5.947  12.741  18.305  0.00  0.00    +0.000 A 
ATOM     17  C   UNL     1      -5.685  12.172  17.060  0.00  0.00    +0.000 A 
ATOM     18  C   UNL     1      -4.533  11.398  16.871  0.00  0.00    +0.000 A 
ENDBRANCH  12  13
ENDBRANCH   5  12
BRANCH   6  19
ATOM     19  S   UNL     1       1.486   9.891  18.262  0.00  0.00    +0.000 S 
BRANCH  19  20
ATOM     20  C   UNL     1       1.884   8.296  18.968  0.00  0.00    +0.000 A 
ATOM     21  C   UNL     1       1.515   7.864  20.246  0.00  0.00    +0.000 A 
ATOM     22  C   UNL     1       1.878   6.590  20.700  0.00  0.00    +0.000 A 
ATOM     23  C   UNL     1       2.598   5.726  19.878  0.00  0.00    +0.000 A 
ATOM     24  C   UNL     1       2.952   6.134  18.596  0.00  0.00    +0.000 A 
ATOM     25  C   UNL     1       2.593   7.406  18.145  0.00  0.00    +0.000 A 
ENDBRANCH  19  20
ENDBRANCH   6  19
TORSDOF 7
ENDMDL
MODEL 5
REMARK VINA RESULT:      -6.1      9.084     12.369
REMARK  Name = 
REMARK  7 active torsions:
REMARK  status: ('A' for Active; 'I' for Inactive)
REMARK    1  A    between atoms: C_2  and  C_3
REMARK    2  A    between atoms: C_3  and  C_4
REMARK    3  A    between atoms: C_3  and  C_6
REMARK    4  A    between atoms: C_10  and  S_11
REMARK    5  A    between atoms: S_11  and  C_12
REMARK    6  A    between atoms: C_18  and  S_19
REMARK    7  A    between atoms: S_19  and  C_20
REMARK                            x       y       z     vdW  Elec       q    Type
REMARK                         _______ _______ _______ _____ _____    ______ ____
ROOT
ATOM      1  C   UNL     1      -0.099  10.189  20.409  0.00  0.00    +0.000 C 
ATOM      2  C   UNL     1       0.273  10.104  18.908  0.00  0.00    +0.000 C 
ATOM      3  C   UNL     1       1.477  10.974  18.549  0.00  0.00    +0.000 C 
ATOM      4  C   UNL     1       1.527  12.277  19.294  0.00  0.00    +0.000 C 
ATOM      5  C   UNL     1       0.668  12.631  20.271  0.00  0.00    +0.000 C 
ATOM      6  C   UNL     1      -0.422  11.676  20.779  0.00  0.00    +0.000 C 
ENDROOT
BRANCH   1   7
ATOM      7  C   UNL     1       1.015   9.575  21.319  0.00  0.00    +0.000 C 
BRANCH   7   9
ATOM      8  N   UNL     1       1.558   7.103  20.578  0.00  0.00    +0.000 NA
ATOM      9  C   UNL     1       1.319   8.187  20.912  0.00  0.00    +0.000 C 
ENDBRANCH   7   9
BRANCH   7  10
ATOM     10  C   UNL     1       0.613   9.587  22.737  0.00  0.00    +0.000 C 
ATOM     11  N   UNL     1       0.259   9.580  23.842  0.00  0.00    +0.000 NA
ENDBRANCH   7  10
ENDBRANCH   1   7
BRANCH   5  12
ATOM     12  S   UNL     1       0.932  14.126  21.160  0.00  0.00    +0.000 S 
BRANCH  12  13
ATOM     13  C   UNL     1       0.811  15.369  19.876  0.00  0.00    +0.000 A 
ATOM     14  C   UNL     1      -0.425  15.752  19.345  0.00  0.00    +0.000 A 
ATOM     15  C   UNL     1      -0.506  16.745  18.366  0.00  0.00    +0.000 A 
ATOM     16  C   UNL     1       0.649  17.385  17.923  0.00  0.00    +0.000 A 
ATOM     17  C   UNL     1       1.883  17.039  18.468  0.00  0.00    +0.000 A 
ATOM     18  C   UNL     1       1.964  16.036  19.442  0.00  0.00    +0.000 A 
ENDBRANCH  12  13
ENDBRANCH   5  12
BRANCH   6  19
ATOM     19  S   UNL     1      -2.045  12.230  20.056  0.00  0.00    +0.000 S 
BRANCH  19  20
ATOM     20  C   UNL     1      -3.135  12.500  21.449  0.00  0.00    +0.000 A 
ATOM     21  C   UNL     1      -2.758  12.433  22.794  0.00  0.00    +0.000 A 
ATOM     22  C   UNL     1      -3.693  12.664  23.809  0.00  0.00    +0.000 A 
ATOM     23  C   UNL     1      -5.013  12.983  23.494  0.00  0.00    +0.000 A 
ATOM     24  C   UNL     1      -5.397  13.076  22.160  0.00  0.00    +0.000 A 
ATOM     25  C   UNL     1      -4.463  12.840  21.148  0.00  0.00    +0.000 A 
ENDBRANCH  19  20
ENDBRANCH   6  19
TORSDOF 7
ENDMDL
MODEL 6
REMARK VINA RESULT:      -6.0      9.041     12.306
REMARK  Name = 
REMARK  7 active torsions:
REMARK  status: ('A' for Active; 'I' for Inactive)
REMARK    1  A    between atoms: C_2  and  C_3
REMARK    2  A    between atoms: C_3  and  C_4
REMARK    3  A    between atoms: C_3  and  C_6
REMARK    4  A    between atoms: C_10  and  S_11
REMARK    5  A    between atoms: S_11  and  C_12
REMARK    6  A    between atoms: C_18  and  S_19
REMARK    7  A    between atoms: S_19  and  C_20
REMARK                            x       y       z     vdW  Elec       q    Type
REMARK                         _______ _______ _______ _____ _____    ______ ____
ROOT
ATOM      1  C   UNL     1       0.059  10.302  20.090  0.00  0.00    +0.000 C 
ATOM      2  C   UNL     1       0.620  10.239  18.647  0.00  0.00    +0.000 C 
ATOM      3  C   UNL     1       1.835  11.144  18.447  0.00  0.00    +0.000 C 
ATOM      4  C   UNL     1       1.754  12.442  19.199  0.00  0.00    +0.000 C 
ATOM      5  C   UNL     1       0.768  12.764  20.061  0.00  0.00    +0.000 C 
ATOM      6  C   UNL     1      -0.349  11.776  20.422  0.00  0.00    +0.000 C 
ENDROOT
BRANCH   1   7
ATOM      7  C   UNL     1       1.066   9.711  21.131  0.00  0.00    +0.000 C 
BRANCH   7   9
ATOM      8  N   UNL     1       1.643   7.205  20.545  0.00  0.00    +0.000 NA
ATOM      9  C   UNL     1       1.398   8.308  20.803  0.00  0.00    +0.000 C 
ENDBRANCH   7   9
BRANCH   7  10
ATOM     10  C   UNL     1       0.519   9.772  22.498  0.00  0.00    +0.000 C 
ATOM     11  N   UNL     1       0.056   9.794  23.562  0.00  0.00    +0.000 NA
ENDBRANCH   7  10
ENDBRANCH   1   7
BRANCH   5  12
ATOM     12  S   UNL     1       0.875  14.259  20.982  0.00  0.00    +0.000 S 
BRANCH  12  13
ATOM     13  C   UNL     1       0.759  15.512  19.708  0.00  0.00    +0.000 A 
ATOM     14  C   UNL     1      -0.479  15.954  19.231  0.00  0.00    +0.000 A 
ATOM     15  C   UNL     1      -0.554  16.955  18.258  0.00  0.00    +0.000 A 
ATOM     16  C   UNL     1       0.609  17.542  17.768  0.00  0.00    +0.000 A 
ATOM     17  C   UNL     1       1.848  17.137  18.260  0.00  0.00    +0.000 A 
ATOM     18  C   UNL     1       1.923  16.126  19.227  0.00  0.00    +0.000 A 
ENDBRANCH  12  13
ENDBRANCH   5  12
BRANCH   6  19
ATOM     19  S   UNL     1      -1.883  12.291  19.502  0.00  0.00    +0.000 S 
BRANCH  19  20
ATOM     20  C   UNL     1      -3.132  12.574  20.752  0.00  0.00    +0.000 A 
ATOM     21  C   UNL     1      -4.495  12.762  20.503  0.00  0.00    +0.000 A 
ATOM     22  C   UNL     1      -5.390  12.975  21.558  0.00  0.00    +0.000 A 
ATOM     23  C   UNL     1      -4.939  12.983  22.876  0.00  0.00    +0.000 A 
ATOM     24  C   UNL     1      -3.589  12.773  23.140  0.00  0.00    +0.000 A 
ATOM     25  C   UNL     1      -2.696  12.566  22.086  0.00  0.00    +0.000 A 
ENDBRANCH  19  20
ENDBRANCH   6  19
TORSDOF 7
ENDMDL
MODEL 7
REMARK VINA RESULT:      -6.0      0.676      1.559
REMARK  Name = 
REMARK  7 active torsions:
REMARK  status: ('A' for Active; 'I' for Inactive)
REMARK    1  A    between atoms: C_2  and  C_3
REMARK    2  A    between atoms: C_3  and  C_4
REMARK    3  A    between atoms: C_3  and  C_6
REMARK    4  A    between atoms: C_10  and  S_11
REMARK    5  A    between atoms: S_11  and  C_12
REMARK    6  A    between atoms: C_18  and  S_19
REMARK    7  A    between atoms: S_19  and  C_20
REMARK                            x       y       z     vdW  Elec       q    Type
REMARK                         _______ _______ _______ _____ _____    ______ ____
ROOT
ATOM      1  C   UNL     1       6.586   5.970  16.619  0.00  0.00    +0.000 C 
ATOM      2  C   UNL     1       5.411   6.972  16.500  0.00  0.00    +0.000 C 
ATOM      3  C   UNL     1       4.641   7.136  17.810  0.00  0.00    +0.000 C 
ATOM      4  C   UNL     1       4.507   5.863  18.596  0.00  0.00    +0.000 C 
ATOM      5  C   UNL     1       5.090   4.694  18.261  0.00  0.00    +0.000 C 
ATOM      6  C   UNL     1       6.033   4.573  17.056  0.00  0.00    +0.000 C 
ENDROOT
BRANCH   1   7
ATOM      7  C   UNL     1       7.704   6.497  17.577  0.00  0.00    +0.000 C 
BRANCH   7   9
ATOM      8  N   UNL     1       7.458   5.438  19.980  0.00  0.00    +0.000 NA
ATOM      9  C   UNL     1       7.559   5.909  18.926  0.00  0.00    +0.000 C 
ENDBRANCH   7   9
BRANCH   7  10
ATOM     10  C   UNL     1       7.669   7.966  17.684  0.00  0.00    +0.000 C 
ATOM     11  N   UNL     1       7.683   9.123  17.778  0.00  0.00    +0.000 NA
ENDBRANCH   7  10
ENDBRANCH   1   7
BRANCH   5  12
ATOM     12  S   UNL     1       4.968   3.319  19.352  0.00  0.00    +0.000 S 
BRANCH  12  13
ATOM     13  C   UNL     1       3.197   3.136  19.551  0.00  0.00    +0.000 A 
ATOM     14  C   UNL     1       2.542   3.590  20.701  0.00  0.00    +0.000 A 
ATOM     15  C   UNL     1       1.156   3.468  20.829  0.00  0.00    +0.000 A 
ATOM     16  C   UNL     1       0.405   2.913  19.796  0.00  0.00    +0.000 A 
ATOM     17  C   UNL     1       1.039   2.489  18.631  0.00  0.00    +0.000 A 
ATOM     18  C   UNL     1       2.430   2.602  18.508  0.00  0.00    +0.000 A 
ENDBRANCH  12  13
ENDBRANCH   5  12
BRANCH   6  19
ATOM     19  S   UNL     1       5.093   3.742  15.680  0.00  0.00    +0.000 S 
BRANCH  19  20
ATOM     20  C   UNL     1       6.033   4.049  14.189  0.00  0.00    +0.000 A 
ATOM     21  C   UNL     1       7.150   4.886  14.097  0.00  0.00    +0.000 A 
ATOM     22  C   UNL     1       7.815   5.055  12.878  0.00  0.00    +0.000 A 
ATOM     23  C   UNL     1       7.386   4.376  11.739  0.00  0.00    +0.000 A 
ATOM     24  C   UNL     1       6.290   3.523  11.821  0.00  0.00    +0.000 A 
ATOM     25  C   UNL     1       5.624   3.359  13.038  0.00  0.00    +0.000 A 
ENDBRANCH  19  20
ENDBRANCH   6  19
TORSDOF 7
ENDMDL
MODEL 8
REMARK VINA RESULT:      -6.0     10.552     12.732
REMARK  Name = 
REMARK  7 active torsions:
REMARK  status: ('A' for Active; 'I' for Inactive)
REMARK    1  A    between atoms: C_2  and  C_3
REMARK    2  A    between atoms: C_3  and  C_4
REMARK    3  A    between atoms: C_3  and  C_6
REMARK    4  A    between atoms: C_10  and  S_11
REMARK    5  A    between atoms: S_11  and  C_12
REMARK    6  A    between atoms: C_18  and  S_19
REMARK    7  A    between atoms: S_19  and  C_20
REMARK                            x       y       z     vdW  Elec       q    Type
REMARK                         _______ _______ _______ _____ _____    ______ ____
ROOT
ATOM      1  C   UNL     1      -0.911  12.599  21.026  0.00  0.00    +0.000 C 
ATOM      2  C   UNL     1      -0.815  12.254  22.533  0.00  0.00    +0.000 C 
ATOM      3  C   UNL     1      -2.144  11.772  23.113  0.00  0.00    +0.000 C 
ATOM      4  C   UNL     1      -3.343  12.479  22.548  0.00  0.00    +0.000 C 
ATOM      5  C   UNL     1      -3.296  13.381  21.547  0.00  0.00    +0.000 C 
ATOM      6  C   UNL     1      -1.986  13.718  20.820  0.00  0.00    +0.000 C 
ENDROOT
BRANCH   1   7
ATOM      7  C   UNL     1      -1.194  11.331  20.156  0.00  0.00    +0.000 C 
BRANCH   7   9
ATOM      8  N   UNL     1       0.828   9.643  20.299  0.00  0.00    +0.000 NA
ATOM      9  C   UNL     1      -0.062  10.382  20.228  0.00  0.00    +0.000 C 
ENDBRANCH   7   9
BRANCH   7  10
ATOM     10  C   UNL     1      -1.434  11.692  18.747  0.00  0.00    +0.000 C 
ATOM     11  N   UNL     1      -1.656  12.001  17.650  0.00  0.00    +0.000 NA
ENDBRANCH   7  10
ENDBRANCH   1   7
BRANCH   5  12
ATOM     12  S   UNL     1      -4.794  14.023  20.885  0.00  0.00    +0.000 S 
BRANCH  12  13
ATOM     13  C   UNL     1      -5.549  12.573  20.153  0.00  0.00    +0.000 A 
ATOM     14  C   UNL     1      -6.629  11.927  20.763  0.00  0.00    +0.000 A 
ATOM     15  C   UNL     1      -7.228  10.815  20.164  0.00  0.00    +0.000 A 
ATOM     16  C   UNL     1      -6.768  10.352  18.934  0.00  0.00    +0.000 A 
ATOM     17  C   UNL     1      -5.716  11.007  18.297  0.00  0.00    +0.000 A 
ATOM     18  C   UNL     1      -5.110  12.115  18.904  0.00  0.00    +0.000 A 
ENDBRANCH  12  13
ENDBRANCH   5  12
BRANCH   6  19
ATOM     19  S   UNL     1      -1.395  15.367  21.449  0.00  0.00    +0.000 S 
BRANCH  19  20
ATOM     20  C   UNL     1      -1.304  16.434  20.016  0.00  0.00    +0.000 A 
ATOM     21  C   UNL     1      -0.351  16.336  18.996  0.00  0.00    +0.000 A 
ATOM     22  C   UNL     1      -0.371  17.224  17.914  0.00  0.00    +0.000 A 
ATOM     23  C   UNL     1      -1.353  18.209  17.827  0.00  0.00    +0.000 A 
ATOM     24  C   UNL     1      -2.321  18.303  18.822  0.00  0.00    +0.000 A 
ATOM     25  C   UNL     1      -2.297  17.420  19.903  0.00  0.00    +0.000 A 
ENDBRANCH  19  20
ENDBRANCH   6  19
TORSDOF 7
ENDMDL
MODEL 9
REMARK VINA RESULT:      -5.9     10.340     12.695
REMARK  Name = 
REMARK  7 active torsions:
REMARK  status: ('A' for Active; 'I' for Inactive)
REMARK    1  A    between atoms: C_2  and  C_3
REMARK    2  A    between atoms: C_3  and  C_4
REMARK    3  A    between atoms: C_3  and  C_6
REMARK    4  A    between atoms: C_10  and  S_11
REMARK    5  A    between atoms: S_11  and  C_12
REMARK    6  A    between atoms: C_18  and  S_19
REMARK    7  A    between atoms: S_19  and  C_20
REMARK                            x       y       z     vdW  Elec       q    Type
REMARK                         _______ _______ _______ _____ _____    ______ ____
ROOT
ATOM      1  C   UNL     1      -2.254  12.464  18.828  0.00  0.00    +0.000 C 
ATOM      2  C   UNL     1      -1.473  11.604  17.804  0.00  0.00    +0.000 C 
ATOM      3  C   UNL     1      -1.107  10.225  18.350  0.00  0.00    +0.000 C 
ATOM      4  C   UNL     1      -0.744  10.228  19.807  0.00  0.00    +0.000 C 
ATOM      5  C   UNL     1      -0.826  11.306  20.612  0.00  0.00    +0.000 C 
ATOM      6  C   UNL     1      -1.388  12.647  20.118  0.00  0.00    +0.000 C 
ENDROOT
BRANCH   1   7
ATOM      7  C   UNL     1      -3.665  11.864  19.135  0.00  0.00    +0.000 C 
BRANCH   7   9
ATOM      8  N   UNL     1      -5.018  11.497  16.901  0.00  0.00    +0.000 NA
ATOM      9  C   UNL     1      -4.429  11.652  17.886  0.00  0.00    +0.000 C 
ENDBRANCH   7   9
BRANCH   7  10
ATOM     10  C   UNL     1      -4.437  12.743  20.031  0.00  0.00    +0.000 C 
ATOM     11  N   UNL     1      -5.057  13.458  20.703  0.00  0.00    +0.000 NA
ENDBRANCH   7  10
ENDBRANCH   1   7
BRANCH   5  12
ATOM     12  S   UNL     1      -0.508  11.131  22.334  0.00  0.00    +0.000 S 
BRANCH  12  13
ATOM     13  C   UNL     1      -1.614  12.338  23.059  0.00  0.00    +0.000 A 
ATOM     14  C   UNL     1      -2.934  12.012  23.389  0.00  0.00    +0.000 A 
ATOM     15  C   UNL     1      -3.776  12.956  23.984  0.00  0.00    +0.000 A 
ATOM     16  C   UNL     1      -3.300  14.231  24.277  0.00  0.00    +0.000 A 
ATOM     17  C   UNL     1      -1.977  14.559  23.987  0.00  0.00    +0.000 A 
ATOM     18  C   UNL     1      -1.137  13.615  23.382  0.00  0.00    +0.000 A 
ENDBRANCH  12  13
ENDBRANCH   5  12
BRANCH   6  19
ATOM     19  S   UNL     1       0.050  13.793  19.828  0.00  0.00    +0.000 S 
BRANCH  19  20
ATOM     20  C   UNL     1      -0.662  15.405  19.521  0.00  0.00    +0.000 A 
ATOM     21  C   UNL     1      -0.304  16.260  18.474  0.00  0.00    +0.000 A 
ATOM     22  C   UNL     1      -0.929  17.503  18.323  0.00  0.00    +0.000 A 
ATOM     23  C   UNL     1      -1.932  17.901  19.205  0.00  0.00    +0.000 A 
ATOM     24  C   UNL     1      -2.315  17.051  20.237  0.00  0.00    +0.000 A 
ATOM     25  C   UNL     1      -1.687  15.813  20.390  0.00  0.00    +0.000 A 
ENDBRANCH  19  20
ENDBRANCH   6  19
TORSDOF 7
ENDMDL
