MODEL 1
REMARK VINA RESULT:      -7.7      0.000      0.000
REMARK  Name = 
REMARK  10 active torsions:
REMARK  status: ('A' for Active; 'I' for Inactive)
REMARK    1  A    between atoms: C_1  and  S_2
REMARK    2  A    between atoms: S_2  and  C_3
REMARK    3  A    between atoms: C_3  and  C_4
REMARK    4  A    between atoms: C_4  and  C_5
REMARK    5  A    between atoms: C_5  and  N_6
REMARK    6  A    between atoms: C_5  and  C_17
REMARK    7  A    between atoms: N_6  and  S_7
REMARK    8  A    between atoms: S_7  and  C_10
REMARK    9  A    between atoms: C_13  and  C_14
REMARK   10  A    between atoms: C_22  and  C_23
REMARK                            x       y       z     vdW  Elec       q    Type
REMARK                         _______ _______ _______ _____ _____    ______ ____
ROOT
ATOM      1  C   UNL     1       4.333   3.868  19.162  0.00  0.00    +0.000 C 
ENDROOT
BRANCH   1   2
ATOM      2  C   UNL     1       3.218   4.579  18.300  0.00  0.00    +0.000 C 
ATOM      3  O   UNL     1       2.907   4.139  17.187  0.00  0.00    +0.000 OA
ATOM      4  N   UNL     1       2.620   5.752  18.771  0.00  0.00    +0.000 N 
ATOM      5  C   UNL     1       2.613   6.194  20.165  0.00  0.00    +0.000 C 
ATOM      6  C   UNL     1       1.692   7.366  20.383  0.00  0.00    +0.000 C 
ATOM      7  C   UNL     1       1.687   8.397  19.507  0.00  0.00    +0.000 C 
ATOM      8  C   UNL     1       2.460   8.153  18.227  0.00  0.00    +0.000 C 
ATOM      9  C   UNL     1       2.099   6.718  17.779  0.00  0.00    +0.000 C 
BRANCH   7  10
ATOM     10  C   UNL     1       0.880   9.627  19.691  0.00  0.00    +0.000 A 
ATOM     11  C   UNL     1       0.546  10.148  20.958  0.00  0.00    +0.000 A 
ATOM     12  C   UNL     1      -0.198  11.328  21.074  0.00  0.00    +0.000 A 
ATOM     13  C   UNL     1      -0.623  12.023  19.944  0.00  0.00    +0.000 A 
ATOM     14  C   UNL     1      -0.300  11.521  18.687  0.00  0.00    +0.000 A 
ATOM     15  C   UNL     1       0.437  10.340  18.567  0.00  0.00    +0.000 A 
ENDBRANCH   7  10
ENDBRANCH   1   2
BRANCH   1  16
ATOM     16  N   UNL     1       5.487   3.578  18.245  0.00  0.00    +0.000 NA
ATOM     17  H   UNL     1       5.329   2.933  17.481  0.00  0.00    +0.000 HD
BRANCH  16  18
ATOM     18  S   UNL     1       6.561   4.764  17.713  0.00  0.00    +0.000 S 
ATOM     19  O   UNL     1       5.915   6.028  18.049  0.00  0.00    +0.000 OA
ATOM     20  O   UNL     1       7.857   4.426  18.245  0.00  0.00    +0.000 OA
BRANCH  18  21
ATOM     21  C   UNL     1       6.524   4.595  15.956  0.00  0.00    +0.000 A 
ATOM     22  C   UNL     1       5.595   3.746  15.351  0.00  0.00    +0.000 A 
ATOM     23  C   UNL     1       5.657   3.531  13.970  0.00  0.00    +0.000 A 
ATOM     24  C   UNL     1       6.645   4.157  13.195  0.00  0.00    +0.000 A 
ATOM     25  C   UNL     1       6.772   3.891  11.722  0.00  0.00    +0.000 C 
ATOM     26  C   UNL     1       7.534   5.050  13.813  0.00  0.00    +0.000 A 
ATOM     27  C   UNL     1       7.467   5.277  15.187  0.00  0.00    +0.000 A 
ENDBRANCH  18  21
ENDBRANCH  16  18
ENDBRANCH   1  16
BRANCH   1  28
ATOM     28  C   UNL     1       3.797   2.541  19.757  0.00  0.00    +0.000 C 
BRANCH  28  29
ATOM     29  C   UNL     1       3.162   2.662  21.148  0.00  0.00    +0.000 C 
BRANCH  29  31
ATOM     30  C   UNL     1       0.973   2.201  19.444  0.00  0.00    +0.000 C 
ATOM     31  S   UNL     1       1.335   2.851  21.099  0.00  0.00    +0.000 S 
ENDBRANCH  29  31
ENDBRANCH  28  29
ENDBRANCH   1  28
TORSDOF 8
ENDMDL
MODEL 2
REMARK VINA RESULT:      -7.4      1.868      2.878
REMARK  Name = 
REMARK  10 active torsions:
REMARK  status: ('A' for Active; 'I' for Inactive)
REMARK    1  A    between atoms: C_1  and  S_2
REMARK    2  A    between atoms: S_2  and  C_3
REMARK    3  A    between atoms: C_3  and  C_4
REMARK    4  A    between atoms: C_4  and  C_5
REMARK    5  A    between atoms: C_5  and  N_6
REMARK    6  A    between atoms: C_5  and  C_17
REMARK    7  A    between atoms: N_6  and  S_7
REMARK    8  A    between atoms: S_7  and  C_10
REMARK    9  A    between atoms: C_13  and  C_14
REMARK   10  A    between atoms: C_22  and  C_23
REMARK                            x       y       z     vdW  Elec       q    Type
REMARK                         _______ _______ _______ _____ _____    ______ ____
ROOT
ATOM      1  C   UNL     1       3.072   6.159  19.893  0.00  0.00    +0.000 C 
ENDROOT
BRANCH   1   2
ATOM      2  C   UNL     1       2.145   7.240  19.213  0.00  0.00    +0.000 C 
ATOM      3  O   UNL     1       2.072   7.323  17.982  0.00  0.00    +0.000 OA
ATOM      4  N   UNL     1       1.446   8.154  20.009  0.00  0.00    +0.000 N 
ATOM      5  C   UNL     1       1.150   7.979  21.431  0.00  0.00    +0.000 C 
ATOM      6  C   UNL     1       0.186   9.019  21.940  0.00  0.00    +0.000 C 
ATOM      7  C   UNL     1       0.343  10.318  21.593  0.00  0.00    +0.000 C 
ATOM      8  C   UNL     1       1.364  10.570  20.502  0.00  0.00    +0.000 C 
ATOM      9  C   UNL     1       1.123   9.478  19.434  0.00  0.00    +0.000 C 
BRANCH   7  10
ATOM     10  C   UNL     1      -0.503  11.417  22.119  0.00  0.00    +0.000 A 
ATOM     11  C   UNL     1      -1.582  11.205  23.002  0.00  0.00    +0.000 A 
ATOM     12  C   UNL     1      -2.332  12.283  23.487  0.00  0.00    +0.000 A 
ATOM     13  C   UNL     1      -2.031  13.591  23.118  0.00  0.00    +0.000 A 
ATOM     14  C   UNL     1      -0.968  13.815  22.247  0.00  0.00    +0.000 A 
ATOM     15  C   UNL     1      -0.221  12.742  21.756  0.00  0.00    +0.000 A 
ENDBRANCH   7  10
ENDBRANCH   1   2
BRANCH   1  16
ATOM     16  N   UNL     1       3.725   5.377  18.789  0.00  0.00    +0.000 NA
ATOM     17  H   UNL     1       3.665   5.749  17.850  0.00  0.00    +0.000 HD
BRANCH  16  18
ATOM     18  S   UNL     1       5.226   4.626  18.957  0.00  0.00    +0.000 S 
ATOM     19  O   UNL     1       6.062   5.611  19.634  0.00  0.00    +0.000 OA
ATOM     20  O   UNL     1       4.983   3.329  19.539  0.00  0.00    +0.000 OA
BRANCH  18  21
ATOM     21  C   UNL     1       5.803   4.484  17.295  0.00  0.00    +0.000 A 
ATOM     22  C   UNL     1       7.132   4.783  16.985  0.00  0.00    +0.000 A 
ATOM     23  C   UNL     1       7.543   4.782  15.648  0.00  0.00    +0.000 A 
ATOM     24  C   UNL     1       6.632   4.488  14.622  0.00  0.00    +0.000 A 
ATOM     25  C   UNL     1       7.033   4.545  13.175  0.00  0.00    +0.000 C 
ATOM     26  C   UNL     1       5.315   4.135  14.958  0.00  0.00    +0.000 A 
ATOM     27  C   UNL     1       4.905   4.123  16.290  0.00  0.00    +0.000 A 
ENDBRANCH  18  21
ENDBRANCH  16  18
ENDBRANCH   1  16
BRANCH   1  28
ATOM     28  C   UNL     1       2.232   5.203  20.779  0.00  0.00    +0.000 C 
BRANCH  28  29
ATOM     29  C   UNL     1       1.212   4.343  20.022  0.00  0.00    +0.000 C 
BRANCH  29  31
ATOM     30  C   UNL     1       1.938   2.173  18.388  0.00  0.00    +0.000 C 
ATOM     31  S   UNL     1       1.561   2.543  20.124  0.00  0.00    +0.000 S 
ENDBRANCH  29  31
ENDBRANCH  28  29
ENDBRANCH   1  28
TORSDOF 8
ENDMDL
MODEL 3
REMARK VINA RESULT:      -7.1      0.917      1.567
REMARK  Name = 
REMARK  10 active torsions:
REMARK  status: ('A' for Active; 'I' for Inactive)
REMARK    1  A    between atoms: C_1  and  S_2
REMARK    2  A    between atoms: S_2  and  C_3
REMARK    3  A    between atoms: C_3  and  C_4
REMARK    4  A    between atoms: C_4  and  C_5
REMARK    5  A    between atoms: C_5  and  N_6
REMARK    6  A    between atoms: C_5  and  C_17
REMARK    7  A    between atoms: N_6  and  S_7
REMARK    8  A    between atoms: S_7  and  C_10
REMARK    9  A    between atoms: C_13  and  C_14
REMARK   10  A    between atoms: C_22  and  C_23
REMARK                            x       y       z     vdW  Elec       q    Type
REMARK                         _______ _______ _______ _____ _____    ______ ____
ROOT
ATOM      1  C   UNL     1       4.426   4.830  19.384  0.00  0.00    +0.000 C 
ENDROOT
BRANCH   1   2
ATOM      2  C   UNL     1       3.323   5.431  18.428  0.00  0.00    +0.000 C 
ATOM      3  O   UNL     1       3.158   4.974  17.291  0.00  0.00    +0.000 OA
ATOM      4  N   UNL     1       2.565   6.529  18.848  0.00  0.00    +0.000 N 
ATOM      5  C   UNL     1       2.390   6.951  20.238  0.00  0.00    +0.000 C 
ATOM      6  C   UNL     1       1.335   8.017  20.376  0.00  0.00    +0.000 C 
ATOM      7  C   UNL     1       1.298   9.053  19.506  0.00  0.00    +0.000 C 
ATOM      8  C   UNL     1       2.203   8.907  18.299  0.00  0.00    +0.000 C 
ATOM      9  C   UNL     1       2.035   7.448  17.817  0.00  0.00    +0.000 C 
BRANCH   7  10
ATOM     10  C   UNL     1       0.354  10.190  19.622  0.00  0.00    +0.000 A 
ATOM     11  C   UNL     1      -0.139  10.900  18.508  0.00  0.00    +0.000 A 
ATOM     12  C   UNL     1      -1.049  11.951  18.674  0.00  0.00    +0.000 A 
ATOM     13  C   UNL     1      -1.497  12.320  19.940  0.00  0.00    +0.000 A 
ATOM     14  C   UNL     1      -1.019  11.628  21.049  0.00  0.00    +0.000 A 
ATOM     15  C   UNL     1      -0.106  10.583  20.888  0.00  0.00    +0.000 A 
ENDBRANCH   7  10
ENDBRANCH   1   2
BRANCH   1  16
ATOM     16  N   UNL     1       5.471   4.194  18.511  0.00  0.00    +0.000 NA
ATOM     17  H   UNL     1       5.165   3.502  17.841  0.00  0.00    +0.000 HD
BRANCH  16  18
ATOM     18  S   UNL     1       6.746   5.058  17.825  0.00  0.00    +0.000 S 
ATOM     19  O   UNL     1       6.340   6.456  17.915  0.00  0.00    +0.000 OA
ATOM     20  O   UNL     1       7.956   4.593  18.454  0.00  0.00    +0.000 OA
BRANCH  18  21
ATOM     21  C   UNL     1       6.689   4.593  16.123  0.00  0.00    +0.000 A 
ATOM     22  C   UNL     1       7.496   5.245  15.188  0.00  0.00    +0.000 A 
ATOM     23  C   UNL     1       7.353   4.948  13.829  0.00  0.00    +0.000 A 
ATOM     24  C   UNL     1       6.404   4.007  13.401  0.00  0.00    +0.000 A 
ATOM     25  C   UNL     1       6.186   3.720  11.943  0.00  0.00    +0.000 C 
ATOM     26  C   UNL     1       5.641   3.322  14.360  0.00  0.00    +0.000 A 
ATOM     27  C   UNL     1       5.791   3.606  15.716  0.00  0.00    +0.000 A 
ENDBRANCH  18  21
ENDBRANCH  16  18
ENDBRANCH   1  16
BRANCH   1  28
ATOM     28  C   UNL     1       3.810   3.758  20.320  0.00  0.00    +0.000 C 
BRANCH  28  29
ATOM     29  C   UNL     1       4.134   2.306  19.947  0.00  0.00    +0.000 C 
BRANCH  29  31
ATOM     30  C   UNL     1       1.440   2.298  19.141  0.00  0.00    +0.000 C 
ATOM     31  S   UNL     1       3.049   1.635  18.626  0.00  0.00    +0.000 S 
ENDBRANCH  29  31
ENDBRANCH  28  29
ENDBRANCH   1  28
TORSDOF 8
ENDMDL
MODEL 4
REMARK VINA RESULT:      -7.1      1.939      3.161
REMARK  Name = 
REMARK  10 active torsions:
REMARK  status: ('A' for Active; 'I' for Inactive)
REMARK    1  A    between atoms: C_1  and  S_2
REMARK    2  A    between atoms: S_2  and  C_3
REMARK    3  A    between atoms: C_3  and  C_4
REMARK    4  A    between atoms: C_4  and  C_5
REMARK    5  A    between atoms: C_5  and  N_6
REMARK    6  A    between atoms: C_5  and  C_17
REMARK    7  A    between atoms: N_6  and  S_7
REMARK    8  A    between atoms: S_7  and  C_10
REMARK    9  A    between atoms: C_13  and  C_14
REMARK   10  A    between atoms: C_22  and  C_23
REMARK                            x       y       z     vdW  Elec       q    Type
REMARK                         _______ _______ _______ _____ _____    ______ ____
ROOT
ATOM      1  C   UNL     1       3.158   7.004  18.786  0.00  0.00    +0.000 C 
ENDROOT
BRANCH   1   2
ATOM      2  C   UNL     1       2.190   8.169  18.342  0.00  0.00    +0.000 C 
ATOM      3  O   UNL     1       2.084   8.481  17.151  0.00  0.00    +0.000 OA
ATOM      4  N   UNL     1       1.492   8.898  19.311  0.00  0.00    +0.000 N 
ATOM      5  C   UNL     1       1.237   8.451  20.681  0.00  0.00    +0.000 C 
ATOM      6  C   UNL     1       0.264   9.350  21.397  0.00  0.00    +0.000 C 
ATOM      7  C   UNL     1       0.383  10.694  21.299  0.00  0.00    +0.000 C 
ATOM      8  C   UNL     1       1.370  11.175  20.254  0.00  0.00    +0.000 C 
ATOM      9  C   UNL     1       1.125  10.297  19.004  0.00  0.00    +0.000 C 
BRANCH   7  10
ATOM     10  C   UNL     1      -0.472  11.652  22.041  0.00  0.00    +0.000 A 
ATOM     11  C   UNL     1      -0.307  13.050  21.969  0.00  0.00    +0.000 A 
ATOM     12  C   UNL     1      -1.160  13.909  22.673  0.00  0.00    +0.000 A 
ATOM     13  C   UNL     1      -2.197  13.409  23.455  0.00  0.00    +0.000 A 
ATOM     14  C   UNL     1      -2.373  12.030  23.535  0.00  0.00    +0.000 A 
ATOM     15  C   UNL     1      -1.520  11.170  22.840  0.00  0.00    +0.000 A 
ENDBRANCH   7  10
ENDBRANCH   1   2
BRANCH   1  16
ATOM     16  N   UNL     1       4.049   6.698  17.616  0.00  0.00    +0.000 NA
ATOM     17  H   UNL     1       4.028   7.334  16.830  0.00  0.00    +0.000 HD
BRANCH  16  18
ATOM     18  S   UNL     1       5.628   6.130  17.786  0.00  0.00    +0.000 S 
ATOM     19  O   UNL     1       6.459   7.329  17.772  0.00  0.00    +0.000 OA
ATOM     20  O   UNL     1       5.633   5.233  18.914  0.00  0.00    +0.000 OA
BRANCH  18  21
ATOM     21  C   UNL     1       5.917   5.261  16.276  0.00  0.00    +0.000 A 
ATOM     22  C   UNL     1       7.090   5.482  15.551  0.00  0.00    +0.000 A 
ATOM     23  C   UNL     1       7.250   4.877  14.300  0.00  0.00    +0.000 A 
ATOM     24  C   UNL     1       6.241   4.058  13.770  0.00  0.00    +0.000 A 
ATOM     25  C   UNL     1       6.361   3.451  12.401  0.00  0.00    +0.000 C 
ATOM     26  C   UNL     1       5.094   3.803  14.538  0.00  0.00    +0.000 A 
ATOM     27  C   UNL     1       4.937   4.394  15.791  0.00  0.00    +0.000 A 
ENDBRANCH  18  21
ENDBRANCH  16  18
ENDBRANCH   1  16
BRANCH   1  28
ATOM     28  C   UNL     1       2.347   5.739  19.166  0.00  0.00    +0.000 C 
BRANCH  28  29
ATOM     29  C   UNL     1       1.894   4.877  17.981  0.00  0.00    +0.000 C 
BRANCH  29  31
ATOM     30  C   UNL     1       0.808   2.423  18.820  0.00  0.00    +0.000 C 
ATOM     31  S   UNL     1       2.351   3.106  18.153  0.00  0.00    +0.000 S 
ENDBRANCH  29  31
ENDBRANCH  28  29
ENDBRANCH   1  28
TORSDOF 8
ENDMDL
MODEL 5
REMARK VINA RESULT:      -6.8      5.100      9.479
REMARK  Name = 
REMARK  10 active torsions:
REMARK  status: ('A' for Active; 'I' for Inactive)
REMARK    1  A    between atoms: C_1  and  S_2
REMARK    2  A    between atoms: S_2  and  C_3
REMARK    3  A    between atoms: C_3  and  C_4
REMARK    4  A    between atoms: C_4  and  C_5
REMARK    5  A    between atoms: C_5  and  N_6
REMARK    6  A    between atoms: C_5  and  C_17
REMARK    7  A    between atoms: N_6  and  S_7
REMARK    8  A    between atoms: S_7  and  C_10
REMARK    9  A    between atoms: C_13  and  C_14
REMARK   10  A    between atoms: C_22  and  C_23
REMARK                            x       y       z     vdW  Elec       q    Type
REMARK                         _______ _______ _______ _____ _____    ______ ____
ROOT
ATOM      1  C   UNL     1      -0.323  11.133  21.194  0.00  0.00    +0.000 C 
ENDROOT
BRANCH   1   2
ATOM      2  C   UNL     1       0.913  11.164  20.213  0.00  0.00    +0.000 C 
ATOM      3  O   UNL     1       1.359  12.239  19.794  0.00  0.00    +0.000 OA
ATOM      4  N   UNL     1       1.473   9.963  19.764  0.00  0.00    +0.000 N 
ATOM      5  C   UNL     1       1.305   8.661  20.411  0.00  0.00    +0.000 C 
ATOM      6  C   UNL     1       2.218   7.617  19.824  0.00  0.00    +0.000 C 
ATOM      7  C   UNL     1       2.364   7.520  18.482  0.00  0.00    +0.000 C 
ATOM      8  C   UNL     1       1.761   8.661  17.688  0.00  0.00    +0.000 C 
ATOM      9  C   UNL     1       2.143   9.954  18.446  0.00  0.00    +0.000 C 
BRANCH   7  10
ATOM     10  C   UNL     1       3.170   6.467  17.817  0.00  0.00    +0.000 A 
ATOM     11  C   UNL     1       2.837   5.097  17.864  0.00  0.00    +0.000 A 
ATOM     12  C   UNL     1       3.620   4.147  17.197  0.00  0.00    +0.000 A 
ATOM     13  C   UNL     1       4.742   4.527  16.465  0.00  0.00    +0.000 A 
ATOM     14  C   UNL     1       5.082   5.876  16.410  0.00  0.00    +0.000 A 
ATOM     15  C   UNL     1       4.307   6.826  17.079  0.00  0.00    +0.000 A 
ENDBRANCH   7  10
ENDBRANCH   1   2
BRANCH   1  16
ATOM     16  N   UNL     1      -1.549  10.909  20.356  0.00  0.00    +0.000 NA
ATOM     17  H   UNL     1      -2.259  10.287  20.719  0.00  0.00    +0.000 HD
BRANCH  16  18
ATOM     18  S   UNL     1      -2.322  12.144  19.507  0.00  0.00    +0.000 S 
ATOM     19  O   UNL     1      -3.540  12.411  20.264  0.00  0.00    +0.000 OA
ATOM     20  O   UNL     1      -1.342  13.178  19.285  0.00  0.00    +0.000 OA
BRANCH  18  21
ATOM     21  C   UNL     1      -2.792  11.370  17.991  0.00  0.00    +0.000 A 
ATOM     22  C   UNL     1      -1.920  10.485  17.355  0.00  0.00    +0.000 A 
ATOM     23  C   UNL     1      -2.256   9.973  16.097  0.00  0.00    +0.000 A 
ATOM     24  C   UNL     1      -3.457  10.346  15.473  0.00  0.00    +0.000 A 
ATOM     25  C   UNL     1      -3.809   9.862  14.096  0.00  0.00    +0.000 C 
ATOM     26  C   UNL     1      -4.346  11.193  16.154  0.00  0.00    +0.000 A 
ATOM     27  C   UNL     1      -4.019  11.695  17.413  0.00  0.00    +0.000 A 
ENDBRANCH  18  21
ENDBRANCH  16  18
ENDBRANCH   1  16
BRANCH   1  28
ATOM     28  C   UNL     1      -0.450  12.480  21.951  0.00  0.00    +0.000 C 
BRANCH  28  29
ATOM     29  C   UNL     1      -1.403  12.462  23.152  0.00  0.00    +0.000 C 
BRANCH  29  31
ATOM     30  C   UNL     1      -3.685  13.480  24.442  0.00  0.00    +0.000 C 
ATOM     31  S   UNL     1      -2.333  14.032  23.366  0.00  0.00    +0.000 S 
ENDBRANCH  29  31
ENDBRANCH  28  29
ENDBRANCH   1  28
TORSDOF 8
ENDMDL
MODEL 6
REMARK VINA RESULT:      -6.8      4.904     10.358
REMARK  Name = 
REMARK  10 active torsions:
REMARK  status: ('A' for Active; 'I' for Inactive)
REMARK    1  A    between atoms: C_1  and  S_2
REMARK    2  A    between atoms: S_2  and  C_3
REMARK    3  A    between atoms: C_3  and  C_4
REMARK    4  A    between atoms: C_4  and  C_5
REMARK    5  A    between atoms: C_5  and  N_6
REMARK    6  A    between atoms: C_5  and  C_17
REMARK    7  A    between atoms: N_6  and  S_7
REMARK    8  A    between atoms: S_7  and  C_10
REMARK    9  A    between atoms: C_13  and  C_14
REMARK   10  A    between atoms: C_22  and  C_23
REMARK                            x       y       z     vdW  Elec       q    Type
REMARK                         _______ _______ _______ _____ _____    ______ ____
ROOT
ATOM      1  C   UNL     1      -0.485  10.586  20.721  0.00  0.00    +0.000 C 
ENDROOT
BRANCH   1   2
ATOM      2  C   UNL     1       0.838  10.660  19.862  0.00  0.00    +0.000 C 
ATOM      3  O   UNL     1       1.278  11.748  19.475  0.00  0.00    +0.000 OA
ATOM      4  N   UNL     1       1.486   9.479  19.484  0.00  0.00    +0.000 N 
ATOM      5  C   UNL     1       1.309   8.177  20.127  0.00  0.00    +0.000 C 
ATOM      6  C   UNL     1       2.316   7.166  19.643  0.00  0.00    +0.000 C 
ATOM      7  C   UNL     1       2.594   7.064  18.322  0.00  0.00    +0.000 C 
ATOM      8  C   UNL     1       2.024   8.173  17.461  0.00  0.00    +0.000 C 
ATOM      9  C   UNL     1       2.279   9.487  18.236  0.00  0.00    +0.000 C 
BRANCH   7  10
ATOM     10  C   UNL     1       3.501   6.040  17.750  0.00  0.00    +0.000 A 
ATOM     11  C   UNL     1       3.288   4.653  17.895  0.00  0.00    +0.000 A 
ATOM     12  C   UNL     1       4.163   3.729  17.313  0.00  0.00    +0.000 A 
ATOM     13  C   UNL     1       5.263   4.152  16.571  0.00  0.00    +0.000 A 
ATOM     14  C   UNL     1       5.486   5.517  16.419  0.00  0.00    +0.000 A 
ATOM     15  C   UNL     1       4.618   6.443  17.004  0.00  0.00    +0.000 A 
ENDBRANCH   7  10
ENDBRANCH   1   2
BRANCH   1  16
ATOM     16  N   UNL     1      -1.463  11.551  20.113  0.00  0.00    +0.000 NA
ATOM     17  H   UNL     1      -1.307  12.538  20.269  0.00  0.00    +0.000 HD
BRANCH  16  18
ATOM     18  S   UNL     1      -2.102  11.360  18.564  0.00  0.00    +0.000 S 
ATOM     19  O   UNL     1      -1.362  12.307  17.737  0.00  0.00    +0.000 OA
ATOM     20  O   UNL     1      -2.086   9.948  18.274  0.00  0.00    +0.000 OA
BRANCH  18  21
ATOM     21  C   UNL     1      -3.753  11.964  18.723  0.00  0.00    +0.000 A 
ATOM     22  C   UNL     1      -4.149  12.629  19.885  0.00  0.00    +0.000 A 
ATOM     23  C   UNL     1      -5.490  12.995  20.046  0.00  0.00    +0.000 A 
ATOM     24  C   UNL     1      -6.434  12.696  19.051  0.00  0.00    +0.000 A 
ATOM     25  C   UNL     1      -7.890  13.020  19.229  0.00  0.00    +0.000 C 
ATOM     26  C   UNL     1      -6.006  12.078  17.866  0.00  0.00    +0.000 A 
ATOM     27  C   UNL     1      -4.668  11.722  17.698  0.00  0.00    +0.000 A 
ENDBRANCH  18  21
ENDBRANCH  16  18
ENDBRANCH   1  16
BRANCH   1  28
ATOM     28  C   UNL     1      -0.202  10.991  22.190  0.00  0.00    +0.000 C 
BRANCH  28  29
ATOM     29  C   UNL     1      -1.437  11.408  22.998  0.00  0.00    +0.000 C 
BRANCH  29  31
ATOM     30  C   UNL     1      -3.332  13.406  23.566  0.00  0.00    +0.000 C 
ATOM     31  S   UNL     1      -1.553  13.222  23.263  0.00  0.00    +0.000 S 
ENDBRANCH  29  31
ENDBRANCH  28  29
ENDBRANCH   1  28
TORSDOF 8
ENDMDL
MODEL 7
REMARK VINA RESULT:      -6.8      5.250     10.731
REMARK  Name = 
REMARK  10 active torsions:
REMARK  status: ('A' for Active; 'I' for Inactive)
REMARK    1  A    between atoms: C_1  and  S_2
REMARK    2  A    between atoms: S_2  and  C_3
REMARK    3  A    between atoms: C_3  and  C_4
REMARK    4  A    between atoms: C_4  and  C_5
REMARK    5  A    between atoms: C_5  and  N_6
REMARK    6  A    between atoms: C_5  and  C_17
REMARK    7  A    between atoms: N_6  and  S_7
REMARK    8  A    between atoms: S_7  and  C_10
REMARK    9  A    between atoms: C_13  and  C_14
REMARK   10  A    between atoms: C_22  and  C_23
REMARK                            x       y       z     vdW  Elec       q    Type
REMARK                         _______ _______ _______ _____ _____    ______ ____
ROOT
ATOM      1  C   UNL     1      -1.034  11.909  19.586  0.00  0.00    +0.000 C 
ENDROOT
BRANCH   1   2
ATOM      2  C   UNL     1       0.427  11.738  19.014  0.00  0.00    +0.000 C 
ATOM      3  O   UNL     1       1.004  12.683  18.465  0.00  0.00    +0.000 OA
ATOM      4  N   UNL     1       1.053  10.488  19.073  0.00  0.00    +0.000 N 
ATOM      5  C   UNL     1       0.671   9.396  19.969  0.00  0.00    +0.000 C 
ATOM      6  C   UNL     1       1.680   8.277  19.957  0.00  0.00    +0.000 C 
ATOM      7  C   UNL     1       2.191   7.837  18.784  0.00  0.00    +0.000 C 
ATOM      8  C   UNL     1       1.869   8.700  17.581  0.00  0.00    +0.000 C 
ATOM      9  C   UNL     1       2.064  10.162  18.044  0.00  0.00    +0.000 C 
BRANCH   7  10
ATOM     10  C   UNL     1       3.117   6.684  18.673  0.00  0.00    +0.000 A 
ATOM     11  C   UNL     1       4.103   6.580  17.670  0.00  0.00    +0.000 A 
ATOM     12  C   UNL     1       4.967   5.479  17.627  0.00  0.00    +0.000 A 
ATOM     13  C   UNL     1       4.883   4.463  18.574  0.00  0.00    +0.000 A 
ATOM     14  C   UNL     1       3.915   4.551  19.570  0.00  0.00    +0.000 A 
ATOM     15  C   UNL     1       3.046   5.645  19.613  0.00  0.00    +0.000 A 
ENDBRANCH   7  10
ENDBRANCH   1   2
BRANCH   1  16
ATOM     16  N   UNL     1      -1.929  12.240  18.425  0.00  0.00    +0.000 NA
ATOM     17  H   UNL     1      -1.527  12.758  17.655  0.00  0.00    +0.000 HD
BRANCH  16  18
ATOM     18  S   UNL     1      -3.057  11.157  17.794  0.00  0.00    +0.000 S 
ATOM     19  O   UNL     1      -3.310  11.631  16.438  0.00  0.00    +0.000 OA
ATOM     20  O   UNL     1      -2.546   9.831  18.036  0.00  0.00    +0.000 OA
BRANCH  18  21
ATOM     21  C   UNL     1      -4.507  11.470  18.751  0.00  0.00    +0.000 A 
ATOM     22  C   UNL     1      -4.510  12.481  19.714  0.00  0.00    +0.000 A 
ATOM     23  C   UNL     1      -5.624  12.638  20.545  0.00  0.00    +0.000 A 
ATOM     24  C   UNL     1      -6.732  11.785  20.419  0.00  0.00    +0.000 A 
ATOM     25  C   UNL     1      -7.912  11.892  21.342  0.00  0.00    +0.000 C 
ATOM     26  C   UNL     1      -6.734  10.812  19.408  0.00  0.00    +0.000 A 
ATOM     27  C   UNL     1      -5.630  10.661  18.570  0.00  0.00    +0.000 A 
ENDBRANCH  18  21
ENDBRANCH  16  18
ENDBRANCH   1  16
BRANCH   1  28
ATOM     28  C   UNL     1      -1.081  13.062  20.622  0.00  0.00    +0.000 C 
BRANCH  28  29
ATOM     29  C   UNL     1      -1.729  12.702  21.964  0.00  0.00    +0.000 C 
BRANCH  29  31
ATOM     30  C   UNL     1      -3.536  13.277  24.040  0.00  0.00    +0.000 C 
ATOM     31  S   UNL     1      -2.544  14.130  22.783  0.00  0.00    +0.000 S 
ENDBRANCH  29  31
ENDBRANCH  28  29
ENDBRANCH   1  28
TORSDOF 8
ENDMDL
MODEL 8
REMARK VINA RESULT:      -6.8      1.826      2.891
REMARK  Name = 
REMARK  10 active torsions:
REMARK  status: ('A' for Active; 'I' for Inactive)
REMARK    1  A    between atoms: C_1  and  S_2
REMARK    2  A    between atoms: S_2  and  C_3
REMARK    3  A    between atoms: C_3  and  C_4
REMARK    4  A    between atoms: C_4  and  C_5
REMARK    5  A    between atoms: C_5  and  N_6
REMARK    6  A    between atoms: C_5  and  C_17
REMARK    7  A    between atoms: N_6  and  S_7
REMARK    8  A    between atoms: S_7  and  C_10
REMARK    9  A    between atoms: C_13  and  C_14
REMARK   10  A    between atoms: C_22  and  C_23
REMARK                            x       y       z     vdW  Elec       q    Type
REMARK                         _______ _______ _______ _____ _____    ______ ____
ROOT
ATOM      1  C   UNL     1       3.004   6.424  19.532  0.00  0.00    +0.000 C 
ENDROOT
BRANCH   1   2
ATOM      2  C   UNL     1       2.080   7.561  18.944  0.00  0.00    +0.000 C 
ATOM      3  O   UNL     1       2.002   7.742  17.724  0.00  0.00    +0.000 OA
ATOM      4  N   UNL     1       1.389   8.412  19.814  0.00  0.00    +0.000 N 
ATOM      5  C   UNL     1       1.099   8.127  21.219  0.00  0.00    +0.000 C 
ATOM      6  C   UNL     1       0.144   9.128  21.814  0.00  0.00    +0.000 C 
ATOM      7  C   UNL     1       0.307  10.449  21.570  0.00  0.00    +0.000 C 
ATOM      8  C   UNL     1       1.324  10.782  20.497  0.00  0.00    +0.000 C 
ATOM      9  C   UNL     1       1.071   9.779  19.348  0.00  0.00    +0.000 C 
BRANCH   7  10
ATOM     10  C   UNL     1      -0.530  11.508  22.186  0.00  0.00    +0.000 A 
ATOM     11  C   UNL     1      -0.303  12.885  21.987  0.00  0.00    +0.000 A 
ATOM     12  C   UNL     1      -1.140  13.841  22.574  0.00  0.00    +0.000 A 
ATOM     13  C   UNL     1      -2.222  13.461  23.363  0.00  0.00    +0.000 A 
ATOM     14  C   UNL     1      -2.459  12.104  23.568  0.00  0.00    +0.000 A 
ATOM     15  C   UNL     1      -1.622  11.147  22.990  0.00  0.00    +0.000 A 
ENDBRANCH   7  10
ENDBRANCH   1   2
BRANCH   1  16
ATOM     16  N   UNL     1       4.101   6.184  18.534  0.00  0.00    +0.000 NA
ATOM     17  H   UNL     1       4.771   6.927  18.385  0.00  0.00    +0.000 HD
BRANCH  16  18
ATOM     18  S   UNL     1       4.913   4.713  18.396  0.00  0.00    +0.000 S 
ATOM     19  O   UNL     1       6.027   4.813  19.332  0.00  0.00    +0.000 OA
ATOM     20  O   UNL     1       3.924   3.673  18.524  0.00  0.00    +0.000 OA
BRANCH  18  21
ATOM     21  C   UNL     1       5.581   4.764  16.762  0.00  0.00    +0.000 A 
ATOM     22  C   UNL     1       4.832   4.295  15.681  0.00  0.00    +0.000 A 
ATOM     23  C   UNL     1       5.418   4.231  14.413  0.00  0.00    +0.000 A 
ATOM     24  C   UNL     1       6.750   4.630  14.223  0.00  0.00    +0.000 A 
ATOM     25  C   UNL     1       7.422   4.510  12.885  0.00  0.00    +0.000 C 
ATOM     26  C   UNL     1       7.469   5.152  15.310  0.00  0.00    +0.000 A 
ATOM     27  C   UNL     1       6.883   5.229  16.572  0.00  0.00    +0.000 A 
ENDBRANCH  18  21
ENDBRANCH  16  18
ENDBRANCH   1  16
BRANCH   1  28
ATOM     28  C   UNL     1       2.195   5.118  19.737  0.00  0.00    +0.000 C 
BRANCH  28  29
ATOM     29  C   UNL     1       2.201   4.568  21.169  0.00  0.00    +0.000 C 
BRANCH  29  31
ATOM     30  C   UNL     1       0.839   2.660  19.616  0.00  0.00    +0.000 C 
ATOM     31  S   UNL     1       1.437   2.904  21.312  0.00  0.00    +0.000 S 
ENDBRANCH  29  31
ENDBRANCH  28  29
ENDBRANCH   1  28
TORSDOF 8
ENDMDL
MODEL 9
REMARK VINA RESULT:      -6.8      1.694      2.535
REMARK  Name = 
REMARK  10 active torsions:
REMARK  status: ('A' for Active; 'I' for Inactive)
REMARK    1  A    between atoms: C_1  and  S_2
REMARK    2  A    between atoms: S_2  and  C_3
REMARK    3  A    between atoms: C_3  and  C_4
REMARK    4  A    between atoms: C_4  and  C_5
REMARK    5  A    between atoms: C_5  and  N_6
REMARK    6  A    between atoms: C_5  and  C_17
REMARK    7  A    between atoms: N_6  and  S_7
REMARK    8  A    between atoms: S_7  and  C_10
REMARK    9  A    between atoms: C_13  and  C_14
REMARK   10  A    between atoms: C_22  and  C_23
REMARK                            x       y       z     vdW  Elec       q    Type
REMARK                         _______ _______ _______ _____ _____    ______ ____
ROOT
ATOM      1  C   UNL     1       3.358   6.532  19.291  0.00  0.00    +0.000 C 
ENDROOT
BRANCH   1   2
ATOM      2  C   UNL     1       2.399   7.591  18.619  0.00  0.00    +0.000 C 
ATOM      3  O   UNL     1       2.434   7.787  17.399  0.00  0.00    +0.000 OA
ATOM      4  N   UNL     1       1.544   8.357  19.418  0.00  0.00    +0.000 N 
ATOM      5  C   UNL     1       1.135   8.018  20.782  0.00  0.00    +0.000 C 
ATOM      6  C   UNL     1       0.033   8.915  21.281  0.00  0.00    +0.000 C 
ATOM      7  C   UNL     1       0.096  10.250  21.069  0.00  0.00    +0.000 C 
ATOM      8  C   UNL     1       1.185  10.696  20.115  0.00  0.00    +0.000 C 
ATOM      9  C   UNL     1       1.151   9.698  18.935  0.00  0.00    +0.000 C 
BRANCH   7  10
ATOM     10  C   UNL     1      -0.897  11.215  21.603  0.00  0.00    +0.000 A 
ATOM     11  C   UNL     1      -1.224  11.308  22.971  0.00  0.00    +0.000 A 
ATOM     12  C   UNL     1      -2.151  12.254  23.423  0.00  0.00    +0.000 A 
ATOM     13  C   UNL     1      -2.770  13.132  22.537  0.00  0.00    +0.000 A 
ATOM     14  C   UNL     1      -2.457  13.052  21.183  0.00  0.00    +0.000 A 
ATOM     15  C   UNL     1      -1.537  12.105  20.728  0.00  0.00    +0.000 A 
ENDBRANCH   7  10
ENDBRANCH   1   2
BRANCH   1  16
ATOM     16  N   UNL     1       3.931   5.689  18.187  0.00  0.00    +0.000 NA
ATOM     17  H   UNL     1       3.639   5.893  17.240  0.00  0.00    +0.000 HD
BRANCH  16  18
ATOM     18  S   UNL     1       5.545   5.203  18.143  0.00  0.00    +0.000 S 
ATOM     19  O   UNL     1       6.303   6.397  18.500  0.00  0.00    +0.000 OA
ATOM     20  O   UNL     1       5.643   3.997  18.926  0.00  0.00    +0.000 OA
BRANCH  18  21
ATOM     21  C   UNL     1       5.830   4.881  16.430  0.00  0.00    +0.000 A 
ATOM     22  C   UNL     1       4.909   4.135  15.692  0.00  0.00    +0.000 A 
ATOM     23  C   UNL     1       5.206   3.787  14.370  0.00  0.00    +0.000 A 
ATOM     24  C   UNL     1       6.422   4.178  13.787  0.00  0.00    +0.000 A 
ATOM     25  C   UNL     1       6.791   3.761  12.392  0.00  0.00    +0.000 C 
ATOM     26  C   UNL     1       7.309   4.975  14.526  0.00  0.00    +0.000 A 
ATOM     27  C   UNL     1       7.010   5.334  15.840  0.00  0.00    +0.000 A 
ENDBRANCH  18  21
ENDBRANCH  16  18
ENDBRANCH   1  16
BRANCH   1  28
ATOM     28  C   UNL     1       2.570   5.631  20.276  0.00  0.00    +0.000 C 
BRANCH  28  29
ATOM     29  C   UNL     1       1.869   4.427  19.636  0.00  0.00    +0.000 C 
BRANCH  29  31
ATOM     30  C   UNL     1       1.504   2.546  21.694  0.00  0.00    +0.000 C 
ATOM     31  S   UNL     1       2.524   2.812  20.217  0.00  0.00    +0.000 S 
ENDBRANCH  29  31
ENDBRANCH  28  29
ENDBRANCH   1  28
TORSDOF 8
ENDMDL
