MODEL 1
REMARK VINA RESULT:      -7.9      0.000      0.000
REMARK  Name = 
REMARK  2 active torsions:
REMARK  status: ('A' for Active; 'I' for Inactive)
REMARK    1  A    between atoms: N_3  and  C_4
REMARK    2  A    between atoms: C_9  and  C_10
REMARK                            x       y       z     vdW  Elec       q    Type
REMARK                         _______ _______ _______ _____ _____    ______ ____
ROOT
ATOM      1  C   UNL     1       4.598   4.474  17.137  0.00  0.00    +0.000 A 
ATOM      2  C   UNL     1       4.383   3.560  18.168  0.00  0.00    +0.000 A 
ATOM      3  C   UNL     1       3.615   3.881  19.289  0.00  0.00    +0.000 A 
ATOM      4  C   UNL     1       3.075   5.172  19.366  0.00  0.00    +0.000 A 
ATOM      5  S   UNL     1       2.088   5.830  20.597  0.00  0.00    +0.000 S 
ATOM      6  C   UNL     1       2.066   7.351  19.787  0.00  0.00    +0.000 A 
ATOM      7  N   UNL     1       2.696   7.367  18.625  0.00  0.00    +0.000 NA
ATOM      8  C   UNL     1       3.294   6.132  18.380  0.00  0.00    +0.000 A 
ATOM      9  C   UNL     1       4.078   5.775  17.254  0.00  0.00    +0.000 A 
ENDROOT
BRANCH   1  12
ATOM     10  O   UNL     1       6.734   5.980  15.896  0.00  0.00    +0.000 OA
ATOM     11  C   UNL     1       6.317   4.933  15.407  0.00  0.00    +0.000 C 
ATOM     12  N   UNL     1       5.348   4.130  15.983  0.00  0.00    +0.000 N 
ATOM     13  N   UNL     1       6.827   4.451  14.214  0.00  0.00    +0.000 N 
ATOM     14  C   UNL     1       7.921   5.152  13.562  0.00  0.00    +0.000 C 
ATOM     15  C   UNL     1       7.510   5.195  12.103  0.00  0.00    +0.000 C 
ATOM     16  C   UNL     1       6.808   3.856  11.920  0.00  0.00    +0.000 C 
ATOM     17  C   UNL     1       6.097   3.633  13.255  0.00  0.00    +0.000 C 
ATOM     18  H   UNL     1       5.418   3.152  15.751  0.00  0.00    +0.000 HD
ENDBRANCH   1  12
BRANCH   6  19
ATOM     19  C   UNL     1       1.336   8.484  20.388  0.00  0.00    +0.000 A 
ATOM     20  C   UNL     1       1.004   8.514  21.756  0.00  0.00    +0.000 A 
ATOM     21  C   UNL     1       0.280   9.577  22.303  0.00  0.00    +0.000 A 
ATOM     22  C   UNL     1      -0.117  10.635  21.492  0.00  0.00    +0.000 A 
ATOM     23  C   UNL     1       0.217  10.635  20.139  0.00  0.00    +0.000 A 
ATOM     24  C   UNL     1       0.942   9.571  19.591  0.00  0.00    +0.000 A 
ENDBRANCH   6  19
TORSDOF 2
ENDMDL
MODEL 2
REMARK VINA RESULT:      -7.9      0.048      1.006
REMARK  Name = 
REMARK  2 active torsions:
REMARK  status: ('A' for Active; 'I' for Inactive)
REMARK    1  A    between atoms: N_3  and  C_4
REMARK    2  A    between atoms: C_9  and  C_10
REMARK                            x       y       z     vdW  Elec       q    Type
REMARK                         _______ _______ _______ _____ _____    ______ ____
ROOT
ATOM      1  C   UNL     1       4.599   4.486  17.169  0.00  0.00    +0.000 A 
ATOM      2  C   UNL     1       4.388   3.582  18.209  0.00  0.00    +0.000 A 
ATOM      3  C   UNL     1       3.615   3.910  19.325  0.00  0.00    +0.000 A 
ATOM      4  C   UNL     1       3.067   5.198  19.387  0.00  0.00    +0.000 A 
ATOM      5  S   UNL     1       2.074   5.863  20.610  0.00  0.00    +0.000 S 
ATOM      6  C   UNL     1       2.044   7.375  19.783  0.00  0.00    +0.000 A 
ATOM      7  N   UNL     1       2.676   7.383  18.622  0.00  0.00    +0.000 NA
ATOM      8  C   UNL     1       3.282   6.150  18.391  0.00  0.00    +0.000 A 
ATOM      9  C   UNL     1       4.070   5.785  17.270  0.00  0.00    +0.000 A 
ENDROOT
BRANCH   1  12
ATOM     10  O   UNL     1       6.691   6.017  15.884  0.00  0.00    +0.000 OA
ATOM     11  C   UNL     1       6.299   4.949  15.422  0.00  0.00    +0.000 C 
ATOM     12  N   UNL     1       5.353   4.135  16.019  0.00  0.00    +0.000 N 
ATOM     13  N   UNL     1       6.817   4.452  14.238  0.00  0.00    +0.000 N 
ATOM     14  C   UNL     1       7.891   5.166  13.565  0.00  0.00    +0.000 C 
ATOM     15  C   UNL     1       7.474   5.165  12.107  0.00  0.00    +0.000 C 
ATOM     16  C   UNL     1       6.805   3.804  11.958  0.00  0.00    +0.000 C 
ATOM     17  C   UNL     1       6.105   3.594  13.300  0.00  0.00    +0.000 C 
ATOM     18  H   UNL     1       5.447   3.154  15.810  0.00  0.00    +0.000 HD
ENDBRANCH   1  12
BRANCH   6  19
ATOM     19  C   UNL     1       1.305   8.510  20.371  0.00  0.00    +0.000 A 
ATOM     20  C   UNL     1       0.898   9.614  19.598  0.00  0.00    +0.000 A 
ATOM     21  C   UNL     1       0.231  10.697  20.177  0.00  0.00    +0.000 A 
ATOM     22  C   UNL     1      -0.049  10.691  21.540  0.00  0.00    +0.000 A 
ATOM     23  C   UNL     1       0.328   9.600  22.320  0.00  0.00    +0.000 A 
ATOM     24  C   UNL     1       0.995   8.515  21.740  0.00  0.00    +0.000 A 
ENDBRANCH   6  19
TORSDOF 2
ENDMDL
MODEL 3
REMARK VINA RESULT:      -7.6      3.915      5.424
REMARK  Name = 
REMARK  2 active torsions:
REMARK  status: ('A' for Active; 'I' for Inactive)
REMARK    1  A    between atoms: N_3  and  C_4
REMARK    2  A    between atoms: C_9  and  C_10
REMARK                            x       y       z     vdW  Elec       q    Type
REMARK                         _______ _______ _______ _____ _____    ______ ____
ROOT
ATOM      1  C   UNL     1       2.389   7.532  18.910  0.00  0.00    +0.000 A 
ATOM      2  C   UNL     1       2.300   8.343  17.779  0.00  0.00    +0.000 A 
ATOM      3  C   UNL     1       1.694   9.600  17.820  0.00  0.00    +0.000 A 
ATOM      4  C   UNL     1       1.148  10.026  19.038  0.00  0.00    +0.000 A 
ATOM      5  S   UNL     1       0.372  11.510  19.384  0.00  0.00    +0.000 S 
ATOM      6  C   UNL     1       0.070  10.991  21.000  0.00  0.00    +0.000 A 
ATOM      7  N   UNL     1       0.574   9.808  21.304  0.00  0.00    +0.000 NA
ATOM      8  C   UNL     1       1.177   9.235  20.186  0.00  0.00    +0.000 A 
ATOM      9  C   UNL     1       1.801   7.964  20.112  0.00  0.00    +0.000 A 
ENDROOT
BRANCH   1  12
ATOM     10  O   UNL     1       1.485   5.109  17.613  0.00  0.00    +0.000 OA
ATOM     11  C   UNL     1       2.514   5.135  18.284  0.00  0.00    +0.000 C 
ATOM     12  N   UNL     1       3.038   6.271  18.873  0.00  0.00    +0.000 N 
ATOM     13  N   UNL     1       3.265   3.988  18.481  0.00  0.00    +0.000 N 
ATOM     14  C   UNL     1       2.873   2.748  17.829  0.00  0.00    +0.000 C 
ATOM     15  C   UNL     1       3.004   1.704  18.920  0.00  0.00    +0.000 C 
ATOM     16  C   UNL     1       4.219   2.193  19.698  0.00  0.00    +0.000 C 
ATOM     17  C   UNL     1       4.097   3.715  19.645  0.00  0.00    +0.000 C 
ATOM     18  H   UNL     1       4.039   6.263  18.990  0.00  0.00    +0.000 HD
ENDBRANCH   1  12
BRANCH   6  19
ATOM     19  C   UNL     1      -0.660  11.882  21.924  0.00  0.00    +0.000 A 
ATOM     20  C   UNL     1      -1.763  11.433  22.674  0.00  0.00    +0.000 A 
ATOM     21  C   UNL     1      -2.467  12.298  23.517  0.00  0.00    +0.000 A 
ATOM     22  C   UNL     1      -2.072  13.627  23.631  0.00  0.00    +0.000 A 
ATOM     23  C   UNL     1      -0.971  14.088  22.913  0.00  0.00    +0.000 A 
ATOM     24  C   UNL     1      -0.267  13.222  22.069  0.00  0.00    +0.000 A 
ENDBRANCH   6  19
TORSDOF 2
ENDMDL
MODEL 4
REMARK VINA RESULT:      -7.5      3.911      5.479
REMARK  Name = 
REMARK  2 active torsions:
REMARK  status: ('A' for Active; 'I' for Inactive)
REMARK    1  A    between atoms: N_3  and  C_4
REMARK    2  A    between atoms: C_9  and  C_10
REMARK                            x       y       z     vdW  Elec       q    Type
REMARK                         _______ _______ _______ _____ _____    ______ ____
ROOT
ATOM      1  C   UNL     1       2.390   7.547  18.907  0.00  0.00    +0.000 A 
ATOM      2  C   UNL     1       2.293   8.341  17.764  0.00  0.00    +0.000 A 
ATOM      3  C   UNL     1       1.687   9.599  17.791  0.00  0.00    +0.000 A 
ATOM      4  C   UNL     1       1.149  10.042  19.006  0.00  0.00    +0.000 A 
ATOM      5  S   UNL     1       0.375  11.531  19.336  0.00  0.00    +0.000 S 
ATOM      6  C   UNL     1       0.084  11.036  20.961  0.00  0.00    +0.000 A 
ATOM      7  N   UNL     1       0.591   9.857  21.279  0.00  0.00    +0.000 NA
ATOM      8  C   UNL     1       1.186   9.269  20.165  0.00  0.00    +0.000 A 
ATOM      9  C   UNL     1       1.810   7.997  20.106  0.00  0.00    +0.000 A 
ENDROOT
BRANCH   1  12
ATOM     10  O   UNL     1       1.515   5.124  17.590  0.00  0.00    +0.000 OA
ATOM     11  C   UNL     1       2.529   5.150  18.282  0.00  0.00    +0.000 C 
ATOM     12  N   UNL     1       3.040   6.286  18.883  0.00  0.00    +0.000 N 
ATOM     13  N   UNL     1       3.275   4.003  18.496  0.00  0.00    +0.000 N 
ATOM     14  C   UNL     1       2.897   2.764  17.835  0.00  0.00    +0.000 C 
ATOM     15  C   UNL     1       3.004   1.719  18.929  0.00  0.00    +0.000 C 
ATOM     16  C   UNL     1       4.202   2.207  19.733  0.00  0.00    +0.000 C 
ATOM     17  C   UNL     1       4.081   3.730  19.678  0.00  0.00    +0.000 C 
ATOM     18  H   UNL     1       4.038   6.278  19.022  0.00  0.00    +0.000 HD
ENDBRANCH   1  12
BRANCH   6  19
ATOM     19  C   UNL     1      -0.640  11.939  21.877  0.00  0.00    +0.000 A 
ATOM     20  C   UNL     1      -0.243  13.276  22.072  0.00  0.00    +0.000 A 
ATOM     21  C   UNL     1      -0.917  14.108  22.970  0.00  0.00    +0.000 A 
ATOM     22  C   UNL     1      -2.007  13.620  23.683  0.00  0.00    +0.000 A 
ATOM     23  C   UNL     1      -2.428  12.306  23.492  0.00  0.00    +0.000 A 
ATOM     24  C   UNL     1      -1.754  11.473  22.592  0.00  0.00    +0.000 A 
ENDBRANCH   6  19
TORSDOF 2
ENDMDL
MODEL 5
REMARK VINA RESULT:      -7.5      3.210      9.367
REMARK  Name = 
REMARK  2 active torsions:
REMARK  status: ('A' for Active; 'I' for Inactive)
REMARK    1  A    between atoms: N_3  and  C_4
REMARK    2  A    between atoms: C_9  and  C_10
REMARK                            x       y       z     vdW  Elec       q    Type
REMARK                         _______ _______ _______ _____ _____    ______ ____
ROOT
ATOM      1  C   UNL     1       0.771   9.631  19.829  0.00  0.00    +0.000 A 
ATOM      2  C   UNL     1       0.769   8.749  20.908  0.00  0.00    +0.000 A 
ATOM      3  C   UNL     1       1.506   7.563  20.890  0.00  0.00    +0.000 A 
ATOM      4  C   UNL     1       2.241   7.264  19.736  0.00  0.00    +0.000 A 
ATOM      5  S   UNL     1       3.240   5.907  19.444  0.00  0.00    +0.000 S 
ATOM      6  C   UNL     1       3.560   6.469  17.846  0.00  0.00    +0.000 A 
ATOM      7  N   UNL     1       3.017   7.637  17.552  0.00  0.00    +0.000 NA
ATOM      8  C   UNL     1       2.243   8.095  18.617  0.00  0.00    +0.000 A 
ATOM      9  C   UNL     1       1.486   9.293  18.667  0.00  0.00    +0.000 A 
ENDROOT
BRANCH   1  12
ATOM     10  O   UNL     1       1.441  12.043  21.280  0.00  0.00    +0.000 OA
ATOM     11  C   UNL     1       0.400  11.948  20.636  0.00  0.00    +0.000 C 
ATOM     12  N   UNL     1       0.051  10.853  19.866  0.00  0.00    +0.000 N 
ATOM     13  N   UNL     1      -0.520  12.983  20.611  0.00  0.00    +0.000 N 
ATOM     14  C   UNL     1      -0.222  14.229  21.299  0.00  0.00    +0.000 C 
ATOM     15  C   UNL     1      -1.509  14.562  22.028  0.00  0.00    +0.000 C 
ATOM     16  C   UNL     1      -2.574  14.082  21.050  0.00  0.00    +0.000 C 
ATOM     17  C   UNL     1      -1.957  12.829  20.427  0.00  0.00    +0.000 C 
ATOM     18  H   UNL     1      -0.547  11.062  19.082  0.00  0.00    +0.000 HD
ENDBRANCH   1  12
BRANCH   6  19
ATOM     19  C   UNL     1       4.424   5.670  16.955  0.00  0.00    +0.000 A 
ATOM     20  C   UNL     1       5.187   6.262  15.932  0.00  0.00    +0.000 A 
ATOM     21  C   UNL     1       5.973   5.488  15.073  0.00  0.00    +0.000 A 
ATOM     22  C   UNL     1       6.015   4.106  15.229  0.00  0.00    +0.000 A 
ATOM     23  C   UNL     1       5.282   3.501  16.247  0.00  0.00    +0.000 A 
ATOM     24  C   UNL     1       4.496   4.276  17.108  0.00  0.00    +0.000 A 
ENDBRANCH   6  19
TORSDOF 2
ENDMDL
MODEL 6
REMARK VINA RESULT:      -7.5      3.233      9.341
REMARK  Name = 
REMARK  2 active torsions:
REMARK  status: ('A' for Active; 'I' for Inactive)
REMARK    1  A    between atoms: N_3  and  C_4
REMARK    2  A    between atoms: C_9  and  C_10
REMARK                            x       y       z     vdW  Elec       q    Type
REMARK                         _______ _______ _______ _____ _____    ______ ____
ROOT
ATOM      1  C   UNL     1       0.749   9.654  19.809  0.00  0.00    +0.000 A 
ATOM      2  C   UNL     1       0.770   8.792  20.904  0.00  0.00    +0.000 A 
ATOM      3  C   UNL     1       1.516   7.612  20.899  0.00  0.00    +0.000 A 
ATOM      4  C   UNL     1       2.237   7.297  19.740  0.00  0.00    +0.000 A 
ATOM      5  S   UNL     1       3.244   5.943  19.459  0.00  0.00    +0.000 S 
ATOM      6  C   UNL     1       3.536   6.477  17.847  0.00  0.00    +0.000 A 
ATOM      7  N   UNL     1       2.979   7.635  17.538  0.00  0.00    +0.000 NA
ATOM      8  C   UNL     1       2.217   8.107  18.606  0.00  0.00    +0.000 A 
ATOM      9  C   UNL     1       1.451   9.299  18.643  0.00  0.00    +0.000 A 
ENDROOT
BRANCH   1  12
ATOM     10  O   UNL     1       1.318  12.035  21.352  0.00  0.00    +0.000 OA
ATOM     11  C   UNL     1       0.316  11.949  20.647  0.00  0.00    +0.000 C 
ATOM     12  N   UNL     1       0.019  10.871  19.833  0.00  0.00    +0.000 N 
ATOM     13  N   UNL     1      -0.609  12.979  20.594  0.00  0.00    +0.000 N 
ATOM     14  C   UNL     1      -0.359  14.210  21.327  0.00  0.00    +0.000 C 
ATOM     15  C   UNL     1      -1.688  14.518  21.988  0.00  0.00    +0.000 C 
ATOM     16  C   UNL     1      -2.691  14.055  20.939  0.00  0.00    +0.000 C 
ATOM     17  C   UNL     1      -2.031  12.821  20.324  0.00  0.00    +0.000 C 
ATOM     18  H   UNL     1      -0.534  11.094  19.021  0.00  0.00    +0.000 HD
ENDBRANCH   1  12
BRANCH   6  19
ATOM     19  C   UNL     1       4.394   5.668  16.959  0.00  0.00    +0.000 A 
ATOM     20  C   UNL     1       4.520   4.274  17.112  0.00  0.00    +0.000 A 
ATOM     21  C   UNL     1       5.365   3.528  16.286  0.00  0.00    +0.000 A 
ATOM     22  C   UNL     1       6.093   4.162  15.285  0.00  0.00    +0.000 A 
ATOM     23  C   UNL     1       5.969   5.538  15.103  0.00  0.00    +0.000 A 
ATOM     24  C   UNL     1       5.123   6.286  15.930  0.00  0.00    +0.000 A 
ENDBRANCH   6  19
TORSDOF 2
ENDMDL
MODEL 7
REMARK VINA RESULT:      -7.4      4.647      9.663
REMARK  Name = 
REMARK  2 active torsions:
REMARK  status: ('A' for Active; 'I' for Inactive)
REMARK    1  A    between atoms: N_3  and  C_4
REMARK    2  A    between atoms: C_9  and  C_10
REMARK                            x       y       z     vdW  Elec       q    Type
REMARK                         _______ _______ _______ _____ _____    ______ ____
ROOT
ATOM      1  C   UNL     1       0.504  10.526  19.867  0.00  0.00    +0.000 A 
ATOM      2  C   UNL     1       1.113  10.696  18.624  0.00  0.00    +0.000 A 
ATOM      3  C   UNL     1       1.851   9.676  18.021  0.00  0.00    +0.000 A 
ATOM      4  C   UNL     1       1.988   8.466  18.713  0.00  0.00    +0.000 A 
ATOM      5  S   UNL     1       2.808   7.051  18.214  0.00  0.00    +0.000 S 
ATOM      6  C   UNL     1       2.432   6.287  19.712  0.00  0.00    +0.000 A 
ATOM      7  N   UNL     1       1.676   7.005  20.524  0.00  0.00    +0.000 NA
ATOM      8  C   UNL     1       1.430   8.261  19.974  0.00  0.00    +0.000 A 
ATOM      9  C   UNL     1       0.685   9.316  20.560  0.00  0.00    +0.000 A 
ENDROOT
BRANCH   1  12
ATOM     10  O   UNL     1       1.423  12.748  21.477  0.00  0.00    +0.000 OA
ATOM     11  C   UNL     1       0.228  12.552  21.273  0.00  0.00    +0.000 C 
ATOM     12  N   UNL     1      -0.276  11.552  20.460  0.00  0.00    +0.000 N 
ATOM     13  N   UNL     1      -0.735  13.367  21.843  0.00  0.00    +0.000 N 
ATOM     14  C   UNL     1      -0.329  14.516  22.637  0.00  0.00    +0.000 C 
ATOM     15  C   UNL     1      -1.229  14.454  23.856  0.00  0.00    +0.000 C 
ATOM     16  C   UNL     1      -2.537  13.937  23.273  0.00  0.00    +0.000 C 
ATOM     17  C   UNL     1      -2.090  12.957  22.188  0.00  0.00    +0.000 C 
ATOM     18  H   UNL     1      -1.165  11.762  20.034  0.00  0.00    +0.000 HD
ENDBRANCH   1  12
BRANCH   6  19
ATOM     19  C   UNL     1       2.913   4.915  19.968  0.00  0.00    +0.000 A 
ATOM     20  C   UNL     1       2.289   4.069  20.904  0.00  0.00    +0.000 A 
ATOM     21  C   UNL     1       2.779   2.786  21.162  0.00  0.00    +0.000 A 
ATOM     22  C   UNL     1       3.899   2.322  20.479  0.00  0.00    +0.000 A 
ATOM     23  C   UNL     1       4.521   3.135  19.535  0.00  0.00    +0.000 A 
ATOM     24  C   UNL     1       4.030   4.420  19.276  0.00  0.00    +0.000 A 
ENDBRANCH   6  19
TORSDOF 2
ENDMDL
MODEL 8
REMARK VINA RESULT:      -7.4      0.898      1.100
REMARK  Name = 
REMARK  2 active torsions:
REMARK  status: ('A' for Active; 'I' for Inactive)
REMARK    1  A    between atoms: N_3  and  C_4
REMARK    2  A    between atoms: C_9  and  C_10
REMARK                            x       y       z     vdW  Elec       q    Type
REMARK                         _______ _______ _______ _____ _____    ______ ____
ROOT
ATOM      1  C   UNL     1       4.413   5.208  17.317  0.00  0.00    +0.000 A 
ATOM      2  C   UNL     1       4.354   4.583  18.563  0.00  0.00    +0.000 A 
ATOM      3  C   UNL     1       3.612   5.115  19.619  0.00  0.00    +0.000 A 
ATOM      4  C   UNL     1       2.934   6.321  19.402  0.00  0.00    +0.000 A 
ATOM      5  S   UNL     1       1.941   7.184  20.495  0.00  0.00    +0.000 S 
ATOM      6  C   UNL     1       1.707   8.427  19.324  0.00  0.00    +0.000 A 
ATOM      7  N   UNL     1       2.272   8.195  18.152  0.00  0.00    +0.000 NA
ATOM      8  C   UNL     1       2.993   7.003  18.188  0.00  0.00    +0.000 A 
ATOM      9  C   UNL     1       3.755   6.437  17.134  0.00  0.00    +0.000 A 
ENDROOT
BRANCH   1  12
ATOM     10  O   UNL     1       6.680   6.341  15.921  0.00  0.00    +0.000 OA
ATOM     11  C   UNL     1       6.177   5.275  15.574  0.00  0.00    +0.000 C 
ATOM     12  N   UNL     1       5.139   4.645  16.236  0.00  0.00    +0.000 N 
ATOM     13  N   UNL     1       6.652   4.590  14.468  0.00  0.00    +0.000 N 
ATOM     14  C   UNL     1       7.808   5.099  13.747  0.00  0.00    +0.000 C 
ATOM     15  C   UNL     1       7.413   4.973  12.288  0.00  0.00    +0.000 C 
ATOM     16  C   UNL     1       6.599   3.685  12.279  0.00  0.00    +0.000 C 
ATOM     17  C   UNL     1       5.861   3.712  13.617  0.00  0.00    +0.000 C 
ATOM     18  H   UNL     1       5.126   3.642  16.143  0.00  0.00    +0.000 HD
ENDBRANCH   1  12
BRANCH   6  19
ATOM     19  C   UNL     1       0.883   9.603  19.668  0.00  0.00    +0.000 A 
ATOM     20  C   UNL     1       0.329   9.774  20.950  0.00  0.00    +0.000 A 
ATOM     21  C   UNL     1      -0.479  10.875  21.249  0.00  0.00    +0.000 A 
ATOM     22  C   UNL     1      -0.738  11.830  20.272  0.00  0.00    +0.000 A 
ATOM     23  C   UNL     1      -0.184  11.691  19.001  0.00  0.00    +0.000 A 
ATOM     24  C   UNL     1       0.625  10.588  18.702  0.00  0.00    +0.000 A 
ENDBRANCH   6  19
TORSDOF 2
ENDMDL
MODEL 9
REMARK VINA RESULT:      -7.4      4.717      9.861
REMARK  Name = 
REMARK  2 active torsions:
REMARK  status: ('A' for Active; 'I' for Inactive)
REMARK    1  A    between atoms: N_3  and  C_4
REMARK    2  A    between atoms: C_9  and  C_10
REMARK                            x       y       z     vdW  Elec       q    Type
REMARK                         _______ _______ _______ _____ _____    ______ ____
ROOT
ATOM      1  C   UNL     1       0.318  10.664  20.099  0.00  0.00    +0.000 A 
ATOM      2  C   UNL     1       0.888  10.871  18.843  0.00  0.00    +0.000 A 
ATOM      3  C   UNL     1       1.629   9.879  18.198  0.00  0.00    +0.000 A 
ATOM      4  C   UNL     1       1.810   8.659  18.862  0.00  0.00    +0.000 A 
ATOM      5  S   UNL     1       2.645   7.272  18.311  0.00  0.00    +0.000 S 
ATOM      6  C   UNL     1       2.328   6.471  19.803  0.00  0.00    +0.000 A 
ATOM      7  N   UNL     1       1.582   7.157  20.651  0.00  0.00    +0.000 NA
ATOM      8  C   UNL     1       1.294   8.418  20.134  0.00  0.00    +0.000 A 
ATOM      9  C   UNL     1       0.545   9.445  20.762  0.00  0.00    +0.000 A 
ENDROOT
BRANCH   1  12
ATOM     10  O   UNL     1       1.244  12.995  21.542  0.00  0.00    +0.000 OA
ATOM     11  C   UNL     1       0.050  12.719  21.463  0.00  0.00    +0.000 C 
ATOM     12  N   UNL     1      -0.465  11.662  20.735  0.00  0.00    +0.000 N 
ATOM     13  N   UNL     1      -0.904  13.494  22.101  0.00  0.00    +0.000 N 
ATOM     14  C   UNL     1      -0.498  14.694  22.816  0.00  0.00    +0.000 C 
ATOM     15  C   UNL     1      -1.270  14.622  24.119  0.00  0.00    +0.000 C 
ATOM     16  C   UNL     1      -2.593  14.005  23.683  0.00  0.00    +0.000 C 
ATOM     17  C   UNL     1      -2.190  13.016  22.590  0.00  0.00    +0.000 C 
ATOM     18  H   UNL     1      -1.402  11.801  20.393  0.00  0.00    +0.000 HD
ENDBRANCH   1  12
BRANCH   6  19
ATOM     19  C   UNL     1       2.845   5.105  20.017  0.00  0.00    +0.000 A 
ATOM     20  C   UNL     1       3.956   4.610  19.309  0.00  0.00    +0.000 A 
ATOM     21  C   UNL     1       4.411   3.301  19.497  0.00  0.00    +0.000 A 
ATOM     22  C   UNL     1       3.767   2.467  20.406  0.00  0.00    +0.000 A 
ATOM     23  C   UNL     1       2.677   2.943  21.131  0.00  0.00    +0.000 A 
ATOM     24  C   UNL     1       2.222   4.253  20.943  0.00  0.00    +0.000 A 
ENDBRANCH   6  19
TORSDOF 2
ENDMDL
