MODEL 1
REMARK VINA RESULT:      -8.3      0.000      0.000
REMARK  Name = 
REMARK  7 active torsions:
REMARK  status: ('A' for Active; 'I' for Inactive)
REMARK    1  A    between atoms: C_1  and  C_2
REMARK    2  A    between atoms: C_5  and  S_6
REMARK    3  A    between atoms: S_6  and  N_9
REMARK    4  A    between atoms: N_9  and  C_10
REMARK    5  A    between atoms: C_10  and  C_11
REMARK    6  A    between atoms: C_11  and  C_12
REMARK    7  A    between atoms: C_12  and  N_13
REMARK                            x       y       z     vdW  Elec       q    Type
REMARK                         _______ _______ _______ _____ _____    ______ ____
ROOT
ATOM      1  N   UNL     1       2.952   6.860  19.216  0.00  0.00    +0.000 N 
ATOM      2  C   UNL     1       3.540   6.024  18.265  0.00  0.00    +0.000 A 
ATOM      3  C   UNL     1       3.116   4.760  18.102  0.00  0.00    +0.000 A 
ATOM      4  C   UNL     1       2.446   4.064  19.173  0.00  0.00    +0.000 A 
ATOM      5  C   UNL     1       2.531   2.676  19.273  0.00  0.00    +0.000 A 
ATOM      6  C   UNL     1       2.028   2.031  20.398  0.00  0.00    +0.000 A 
ATOM      7  C   UNL     1       1.397   2.773  21.395  0.00  0.00    +0.000 A 
ATOM      8  C   UNL     1       1.323   4.170  21.303  0.00  0.00    +0.000 A 
ATOM      9  C   UNL     1       1.906   4.821  20.214  0.00  0.00    +0.000 A 
ATOM     10  C   UNL     1       2.032   6.308  20.164  0.00  0.00    +0.000 A 
ATOM     11  O   UNL     1       1.343   6.986  20.915  0.00  0.00    +0.000 OA
ATOM     12  C   UNL     1       3.615   4.228  16.836  0.00  0.00    +0.000 C 
ATOM     13  O   UNL     1       3.247   3.238  16.242  0.00  0.00    +0.000 OA
ATOM     14  C   UNL     1       4.703   5.104  16.461  0.00  0.00    +0.000 A 
ATOM     15  C   UNL     1       5.743   4.694  15.640  0.00  0.00    +0.000 A 
ATOM     16  C   UNL     1       6.962   5.315  15.830  0.00  0.00    +0.000 A 
ATOM     17  C   UNL     1       7.085   6.311  16.816  0.00  0.00    +0.000 A 
ATOM     18  C   UNL     1       5.977   6.739  17.593  0.00  0.00    +0.000 A 
ATOM     19  C   UNL     1       4.732   6.148  17.395  0.00  0.00    +0.000 A 
ENDROOT
BRANCH   1  20
ATOM     20  C   UNL     1       2.666   8.266  18.879  0.00  0.00    +0.000 C 
BRANCH  20  21
ATOM     21  C   UNL     1       1.543   8.499  17.865  0.00  0.00    +0.000 C 
BRANCH  21  22
ATOM     22  C   UNL     1       0.727   9.707  18.275  0.00  0.00    +0.000 C 
BRANCH  22  23
ATOM     23  N   UNL     1       0.337   9.616  19.683  0.00  0.00    +0.000 NA
ATOM     24  H   UNL     1      -0.627   9.345  19.876  0.00  0.00    +0.000 HD
BRANCH  23  25
ATOM     25  S   UNL     1       0.825  10.897  20.681  0.00  0.00    +0.000 S 
ATOM     26  O   UNL     1       1.411  11.926  19.853  0.00  0.00    +0.000 OA
ATOM     27  O   UNL     1       1.525  10.315  21.801  0.00  0.00    +0.000 OA
BRANCH  25  32
ATOM     28  C   UNL     1      -4.409  13.126  22.793  0.00  0.00    +0.000 C 
ATOM     29  C   UNL     1      -3.135  12.535  22.264  0.00  0.00    +0.000 A 
ATOM     30  C   UNL     1      -2.272  11.823  23.108  0.00  0.00    +0.000 A 
ATOM     31  C   UNL     1      -1.073  11.309  22.618  0.00  0.00    +0.000 A 
ATOM     32  C   UNL     1      -0.737  11.502  21.276  0.00  0.00    +0.000 A 
ATOM     33  C   UNL     1      -1.585  12.214  20.423  0.00  0.00    +0.000 A 
ATOM     34  C   UNL     1      -2.788  12.719  20.918  0.00  0.00    +0.000 A 
ENDBRANCH  25  32
ENDBRANCH  23  25
ENDBRANCH  22  23
ENDBRANCH  21  22
ENDBRANCH  20  21
ENDBRANCH   1  20
TORSDOF 6
ENDMDL
MODEL 2
REMARK VINA RESULT:      -8.2      2.128      4.673
REMARK  Name = 
REMARK  7 active torsions:
REMARK  status: ('A' for Active; 'I' for Inactive)
REMARK    1  A    between atoms: C_1  and  C_2
REMARK    2  A    between atoms: C_5  and  S_6
REMARK    3  A    between atoms: S_6  and  N_9
REMARK    4  A    between atoms: N_9  and  C_10
REMARK    5  A    between atoms: C_10  and  C_11
REMARK    6  A    between atoms: C_11  and  C_12
REMARK    7  A    between atoms: C_12  and  N_13
REMARK                            x       y       z     vdW  Elec       q    Type
REMARK                         _______ _______ _______ _____ _____    ______ ____
ROOT
ATOM      1  N   UNL     1       2.731   6.912  18.664  0.00  0.00    +0.000 N 
ATOM      2  C   UNL     1       3.061   5.670  19.209  0.00  0.00    +0.000 A 
ATOM      3  C   UNL     1       4.163   5.013  18.811  0.00  0.00    +0.000 A 
ATOM      4  C   UNL     1       4.743   5.267  17.515  0.00  0.00    +0.000 A 
ATOM      5  C   UNL     1       5.451   4.265  16.851  0.00  0.00    +0.000 A 
ATOM      6  C   UNL     1       5.859   4.462  15.537  0.00  0.00    +0.000 A 
ATOM      7  C   UNL     1       5.602   5.679  14.908  0.00  0.00    +0.000 A 
ATOM      8  C   UNL     1       4.879   6.682  15.568  0.00  0.00    +0.000 A 
ATOM      9  C   UNL     1       4.395   6.448  16.857  0.00  0.00    +0.000 A 
ATOM     10  C   UNL     1       3.455   7.396  17.527  0.00  0.00    +0.000 A 
ATOM     11  O   UNL     1       3.354   8.536  17.092  0.00  0.00    +0.000 OA
ATOM     12  C   UNL     1       4.480   3.953  19.765  0.00  0.00    +0.000 C 
ATOM     13  O   UNL     1       5.514   3.329  19.874  0.00  0.00    +0.000 OA
ATOM     14  C   UNL     1       3.266   3.751  20.524  0.00  0.00    +0.000 A 
ATOM     15  C   UNL     1       2.969   2.550  21.151  0.00  0.00    +0.000 A 
ATOM     16  C   UNL     1       1.629   2.245  21.298  0.00  0.00    +0.000 A 
ATOM     17  C   UNL     1       0.659   3.146  20.823  0.00  0.00    +0.000 A 
ATOM     18  C   UNL     1       1.011   4.391  20.239  0.00  0.00    +0.000 A 
ATOM     19  C   UNL     1       2.355   4.731  20.111  0.00  0.00    +0.000 A 
ENDROOT
BRANCH   1  20
ATOM     20  C   UNL     1       2.237   7.990  19.539  0.00  0.00    +0.000 C 
BRANCH  20  21
ATOM     21  C   UNL     1       1.312   7.557  20.681  0.00  0.00    +0.000 C 
BRANCH  21  22
ATOM     22  C   UNL     1       1.103   8.715  21.635  0.00  0.00    +0.000 C 
BRANCH  22  23
ATOM     23  N   UNL     1      -0.198   9.346  21.407  0.00  0.00    +0.000 NA
ATOM     24  H   UNL     1      -0.889   8.801  20.890  0.00  0.00    +0.000 HD
BRANCH  23  25
ATOM     25  S   UNL     1      -0.168  10.957  20.879  0.00  0.00    +0.000 S 
ATOM     26  O   UNL     1       1.185  11.289  20.496  0.00  0.00    +0.000 OA
ATOM     27  O   UNL     1      -0.909  11.731  21.846  0.00  0.00    +0.000 OA
BRANCH  25  32
ATOM     28  C   UNL     1      -3.409  10.815  15.750  0.00  0.00    +0.000 C 
ATOM     29  C   UNL     1      -2.637  10.821  17.038  0.00  0.00    +0.000 A 
ATOM     30  C   UNL     1      -2.995  11.684  18.082  0.00  0.00    +0.000 A 
ATOM     31  C   UNL     1      -2.251  11.711  19.261  0.00  0.00    +0.000 A 
ATOM     32  C   UNL     1      -1.146  10.866  19.397  0.00  0.00    +0.000 A 
ATOM     33  C   UNL     1      -0.774  10.004  18.363  0.00  0.00    +0.000 A 
ATOM     34  C   UNL     1      -1.529   9.976  17.189  0.00  0.00    +0.000 A 
ENDBRANCH  25  32
ENDBRANCH  23  25
ENDBRANCH  22  23
ENDBRANCH  21  22
ENDBRANCH  20  21
ENDBRANCH   1  20
TORSDOF 6
ENDMDL
MODEL 3
REMARK VINA RESULT:      -8.2      1.708      2.142
REMARK  Name = 
REMARK  7 active torsions:
REMARK  status: ('A' for Active; 'I' for Inactive)
REMARK    1  A    between atoms: C_1  and  C_2
REMARK    2  A    between atoms: C_5  and  S_6
REMARK    3  A    between atoms: S_6  and  N_9
REMARK    4  A    between atoms: N_9  and  C_10
REMARK    5  A    between atoms: C_10  and  C_11
REMARK    6  A    between atoms: C_11  and  C_12
REMARK    7  A    between atoms: C_12  and  N_13
REMARK                            x       y       z     vdW  Elec       q    Type
REMARK                         _______ _______ _______ _____ _____    ______ ____
ROOT
ATOM      1  N   UNL     1       3.019   6.643  19.280  0.00  0.00    +0.000 N 
ATOM      2  C   UNL     1       3.612   5.826  18.316  0.00  0.00    +0.000 A 
ATOM      3  C   UNL     1       3.191   4.564  18.127  0.00  0.00    +0.000 A 
ATOM      4  C   UNL     1       2.519   3.847  19.183  0.00  0.00    +0.000 A 
ATOM      5  C   UNL     1       2.607   2.457  19.257  0.00  0.00    +0.000 A 
ATOM      6  C   UNL     1       2.101   1.791  20.368  0.00  0.00    +0.000 A 
ATOM      7  C   UNL     1       1.465   2.512  21.376  0.00  0.00    +0.000 A 
ATOM      8  C   UNL     1       1.388   3.910  21.311  0.00  0.00    +0.000 A 
ATOM      9  C   UNL     1       1.973   4.583  20.236  0.00  0.00    +0.000 A 
ATOM     10  C   UNL     1       2.096   6.071  20.215  0.00  0.00    +0.000 A 
ATOM     11  O   UNL     1       1.403   6.734  20.976  0.00  0.00    +0.000 OA
ATOM     12  C   UNL     1       3.696   4.058  16.853  0.00  0.00    +0.000 C 
ATOM     13  O   UNL     1       3.331   3.078  16.239  0.00  0.00    +0.000 OA
ATOM     14  C   UNL     1       4.783   4.943  16.498  0.00  0.00    +0.000 A 
ATOM     15  C   UNL     1       5.827   4.550  15.673  0.00  0.00    +0.000 A 
ATOM     16  C   UNL     1       7.044   5.170  15.879  0.00  0.00    +0.000 A 
ATOM     17  C   UNL     1       7.161   6.148  16.884  0.00  0.00    +0.000 A 
ATOM     18  C   UNL     1       6.049   6.559  17.665  0.00  0.00    +0.000 A 
ATOM     19  C   UNL     1       4.806   5.969  17.452  0.00  0.00    +0.000 A 
ENDROOT
BRANCH   1  20
ATOM     20  C   UNL     1       2.731   8.055  18.969  0.00  0.00    +0.000 C 
BRANCH  20  21
ATOM     21  C   UNL     1       1.779   8.303  17.795  0.00  0.00    +0.000 C 
BRANCH  21  22
ATOM     22  C   UNL     1       1.503   9.786  17.667  0.00  0.00    +0.000 C 
BRANCH  22  23
ATOM     23  N   UNL     1       0.066  10.056  17.755  0.00  0.00    +0.000 NA
ATOM     24  H   UNL     1      -0.391  10.388  16.906  0.00  0.00    +0.000 HD
BRANCH  23  25
ATOM     25  S   UNL     1      -0.451  10.930  19.112  0.00  0.00    +0.000 S 
ATOM     26  O   UNL     1       0.223  12.208  19.120  0.00  0.00    +0.000 OA
ATOM     27  O   UNL     1      -0.407  10.026  20.237  0.00  0.00    +0.000 OA
BRANCH  25  32
ATOM     28  C   UNL     1      -6.336  11.744  17.872  0.00  0.00    +0.000 C 
ATOM     29  C   UNL     1      -4.870  11.575  18.148  0.00  0.00    +0.000 A 
ATOM     30  C   UNL     1      -4.088  10.717  17.362  0.00  0.00    +0.000 A 
ATOM     31  C   UNL     1      -2.736  10.536  17.647  0.00  0.00    +0.000 A 
ATOM     32  C   UNL     1      -2.161  11.220  18.720  0.00  0.00    +0.000 A 
ATOM     33  C   UNL     1      -2.928  12.074  19.517  0.00  0.00    +0.000 A 
ATOM     34  C   UNL     1      -4.279  12.258  19.220  0.00  0.00    +0.000 A 
ENDBRANCH  25  32
ENDBRANCH  23  25
ENDBRANCH  22  23
ENDBRANCH  21  22
ENDBRANCH  20  21
ENDBRANCH   1  20
TORSDOF 6
ENDMDL
MODEL 4
REMARK VINA RESULT:      -8.1      3.130      9.172
REMARK  Name = 
REMARK  7 active torsions:
REMARK  status: ('A' for Active; 'I' for Inactive)
REMARK    1  A    between atoms: C_1  and  C_2
REMARK    2  A    between atoms: C_5  and  S_6
REMARK    3  A    between atoms: S_6  and  N_9
REMARK    4  A    between atoms: N_9  and  C_10
REMARK    5  A    between atoms: C_10  and  C_11
REMARK    6  A    between atoms: C_11  and  C_12
REMARK    7  A    between atoms: C_12  and  N_13
REMARK                            x       y       z     vdW  Elec       q    Type
REMARK                         _______ _______ _______ _____ _____    ______ ____
ROOT
ATOM      1  N   UNL     1      -2.948  12.786  20.545  0.00  0.00    +0.000 N 
ATOM      2  C   UNL     1      -3.479  12.298  19.351  0.00  0.00    +0.000 A 
ATOM      3  C   UNL     1      -4.802  12.327  19.120  0.00  0.00    +0.000 A 
ATOM      4  C   UNL     1      -5.739  12.364  20.216  0.00  0.00    +0.000 A 
ATOM      5  C   UNL     1      -7.014  11.816  20.073  0.00  0.00    +0.000 A 
ATOM      6  C   UNL     1      -7.847  11.704  21.181  0.00  0.00    +0.000 A 
ATOM      7  C   UNL     1      -7.421  12.186  22.417  0.00  0.00    +0.000 A 
ATOM      8  C   UNL     1      -6.136  12.725  22.567  0.00  0.00    +0.000 A 
ATOM      9  C   UNL     1      -5.271  12.756  21.472  0.00  0.00    +0.000 A 
ATOM     10  C   UNL     1      -3.832  13.132  21.618  0.00  0.00    +0.000 A 
ATOM     11  O   UNL     1      -3.475  13.724  22.628  0.00  0.00    +0.000 OA
ATOM     12  C   UNL     1      -5.064  12.115  17.699  0.00  0.00    +0.000 C 
ATOM     13  O   UNL     1      -6.091  12.319  17.087  0.00  0.00    +0.000 OA
ATOM     14  C   UNL     1      -3.846  11.540  17.172  0.00  0.00    +0.000 A 
ATOM     15  C   UNL     1      -3.827  10.742  16.038  0.00  0.00    +0.000 A 
ATOM     16  C   UNL     1      -2.829   9.789  15.970  0.00  0.00    +0.000 A 
ATOM     17  C   UNL     1      -1.901   9.682  17.023  0.00  0.00    +0.000 A 
ATOM     18  C   UNL     1      -1.926  10.561  18.137  0.00  0.00    +0.000 A 
ATOM     19  C   UNL     1      -2.905  11.549  18.209  0.00  0.00    +0.000 A 
ENDROOT
BRANCH   1  20
ATOM     20  C   UNL     1      -1.716  13.595  20.525  0.00  0.00    +0.000 C 
BRANCH  20  21
ATOM     21  C   UNL     1      -0.520  13.015  21.285  0.00  0.00    +0.000 C 
BRANCH  21  22
ATOM     22  C   UNL     1       0.405  12.306  20.319  0.00  0.00    +0.000 C 
BRANCH  22  23
ATOM     23  N   UNL     1       1.295  11.387  21.031  0.00  0.00    +0.000 NA
ATOM     24  H   UNL     1       2.218  11.234  20.623  0.00  0.00    +0.000 HD
BRANCH  23  25
ATOM     25  S   UNL     1       0.606   9.929  21.554  0.00  0.00    +0.000 S 
ATOM     26  O   UNL     1      -0.810   9.962  21.267  0.00  0.00    +0.000 OA
ATOM     27  O   UNL     1       1.120   9.672  22.879  0.00  0.00    +0.000 OA
BRANCH  25  32
ATOM     28  C   UNL     1       2.988   5.852  17.744  0.00  0.00    +0.000 C 
ATOM     29  C   UNL     1       2.441   6.871  18.700  0.00  0.00    +0.000 A 
ATOM     30  C   UNL     1       2.185   6.532  20.036  0.00  0.00    +0.000 A 
ATOM     31  C   UNL     1       1.642   7.473  20.910  0.00  0.00    +0.000 A 
ATOM     32  C   UNL     1       1.358   8.760  20.447  0.00  0.00    +0.000 A 
ATOM     33  C   UNL     1       1.602   9.110  19.116  0.00  0.00    +0.000 A 
ATOM     34  C   UNL     1       2.154   8.167  18.249  0.00  0.00    +0.000 A 
ENDBRANCH  25  32
ENDBRANCH  23  25
ENDBRANCH  22  23
ENDBRANCH  21  22
ENDBRANCH  20  21
ENDBRANCH   1  20
TORSDOF 6
ENDMDL
MODEL 5
REMARK VINA RESULT:      -8.1      1.839      2.201
REMARK  Name = 
REMARK  7 active torsions:
REMARK  status: ('A' for Active; 'I' for Inactive)
REMARK    1  A    between atoms: C_1  and  C_2
REMARK    2  A    between atoms: C_5  and  S_6
REMARK    3  A    between atoms: S_6  and  N_9
REMARK    4  A    between atoms: N_9  and  C_10
REMARK    5  A    between atoms: C_10  and  C_11
REMARK    6  A    between atoms: C_11  and  C_12
REMARK    7  A    between atoms: C_12  and  N_13
REMARK                            x       y       z     vdW  Elec       q    Type
REMARK                         _______ _______ _______ _____ _____    ______ ____
ROOT
ATOM      1  N   UNL     1       3.281   6.900  18.667  0.00  0.00    +0.000 N 
ATOM      2  C   UNL     1       3.782   5.872  17.867  0.00  0.00    +0.000 A 
ATOM      3  C   UNL     1       3.319   4.617  17.986  0.00  0.00    +0.000 A 
ATOM      4  C   UNL     1       2.709   4.170  19.214  0.00  0.00    +0.000 A 
ATOM      5  C   UNL     1       2.768   2.827  19.583  0.00  0.00    +0.000 A 
ATOM      6  C   UNL     1       2.329   2.436  20.843  0.00  0.00    +0.000 A 
ATOM      7  C   UNL     1       1.785   3.382  21.709  0.00  0.00    +0.000 A 
ATOM      8  C   UNL     1       1.737   4.735  21.346  0.00  0.00    +0.000 A 
ATOM      9  C   UNL     1       2.258   5.136  20.116  0.00  0.00    +0.000 A 
ATOM     10  C   UNL     1       2.415   6.580  19.762  0.00  0.00    +0.000 A 
ATOM     11  O   UNL     1       1.795   7.417  20.405  0.00  0.00    +0.000 OA
ATOM     12  C   UNL     1       3.718   3.828  16.822  0.00  0.00    +0.000 C 
ATOM     13  O   UNL     1       3.287   2.754  16.461  0.00  0.00    +0.000 OA
ATOM     14  C   UNL     1       4.798   4.573  16.212  0.00  0.00    +0.000 A 
ATOM     15  C   UNL     1       5.769   3.972  15.426  0.00  0.00    +0.000 A 
ATOM     16  C   UNL     1       7.012   4.573  15.412  0.00  0.00    +0.000 A 
ATOM     17  C   UNL     1       7.225   5.739  16.170  0.00  0.00    +0.000 A 
ATOM     18  C   UNL     1       6.183   6.351  16.914  0.00  0.00    +0.000 A 
ATOM     19  C   UNL     1       4.914   5.779  16.916  0.00  0.00    +0.000 A 
ENDROOT
BRANCH   1  20
ATOM     20  C   UNL     1       3.005   8.222  18.076  0.00  0.00    +0.000 C 
BRANCH  20  21
ATOM     21  C   UNL     1       1.541   8.510  17.729  0.00  0.00    +0.000 C 
BRANCH  21  22
ATOM     22  C   UNL     1       1.265   9.992  17.871  0.00  0.00    +0.000 C 
BRANCH  22  23
ATOM     23  N   UNL     1      -0.175  10.250  17.916  0.00  0.00    +0.000 NA
ATOM     24  H   UNL     1      -0.668  10.258  17.023  0.00  0.00    +0.000 HD
BRANCH  23  25
ATOM     25  S   UNL     1      -0.677  11.531  18.906  0.00  0.00    +0.000 S 
ATOM     26  O   UNL     1      -0.147  12.762  18.367  0.00  0.00    +0.000 OA
ATOM     27  O   UNL     1      -0.447  11.123  20.272  0.00  0.00    +0.000 OA
BRANCH  25  32
ATOM     28  C   UNL     1      -6.657  11.714  17.889  0.00  0.00    +0.000 C 
ATOM     29  C   UNL     1      -5.184  11.633  18.167  0.00  0.00    +0.000 A 
ATOM     30  C   UNL     1      -4.636  12.240  19.305  0.00  0.00    +0.000 A 
ATOM     31  C   UNL     1      -3.263  12.192  19.538  0.00  0.00    +0.000 A 
ATOM     32  C   UNL     1      -2.434  11.529  18.631  0.00  0.00    +0.000 A 
ATOM     33  C   UNL     1      -2.964  10.923  17.489  0.00  0.00    +0.000 A 
ATOM     34  C   UNL     1      -4.341  10.967  17.267  0.00  0.00    +0.000 A 
ENDBRANCH  25  32
ENDBRANCH  23  25
ENDBRANCH  22  23
ENDBRANCH  21  22
ENDBRANCH  20  21
ENDBRANCH   1  20
TORSDOF 6
ENDMDL
MODEL 6
REMARK VINA RESULT:      -8.1      2.852      9.277
REMARK  Name = 
REMARK  7 active torsions:
REMARK  status: ('A' for Active; 'I' for Inactive)
REMARK    1  A    between atoms: C_1  and  C_2
REMARK    2  A    between atoms: C_5  and  S_6
REMARK    3  A    between atoms: S_6  and  N_9
REMARK    4  A    between atoms: N_9  and  C_10
REMARK    5  A    between atoms: C_10  and  C_11
REMARK    6  A    between atoms: C_11  and  C_12
REMARK    7  A    between atoms: C_12  and  N_13
REMARK                            x       y       z     vdW  Elec       q    Type
REMARK                         _______ _______ _______ _____ _____    ______ ____
ROOT
ATOM      1  N   UNL     1      -2.499  12.940  20.795  0.00  0.00    +0.000 N 
ATOM      2  C   UNL     1      -3.174  12.450  19.676  0.00  0.00    +0.000 A 
ATOM      3  C   UNL     1      -4.513  12.511  19.596  0.00  0.00    +0.000 A 
ATOM      4  C   UNL     1      -5.319  12.586  20.790  0.00  0.00    +0.000 A 
ATOM      5  C   UNL     1      -6.614  12.069  20.800  0.00  0.00    +0.000 A 
ATOM      6  C   UNL     1      -7.319  11.993  21.996  0.00  0.00    +0.000 A 
ATOM      7  C   UNL     1      -6.745  12.479  23.169  0.00  0.00    +0.000 A 
ATOM      8  C   UNL     1      -5.438  12.987  23.164  0.00  0.00    +0.000 A 
ATOM      9  C   UNL     1      -4.702  12.982  21.978  0.00  0.00    +0.000 A 
ATOM     10  C   UNL     1      -3.247  13.322  21.955  0.00  0.00    +0.000 A 
ATOM     11  O   UNL     1      -2.764  13.918  22.909  0.00  0.00    +0.000 OA
ATOM     12  C   UNL     1      -4.939  12.287  18.216  0.00  0.00    +0.000 C 
ATOM     13  O   UNL     1      -6.023  12.509  17.722  0.00  0.00    +0.000 OA
ATOM     14  C   UNL     1      -3.803  11.674  17.564  0.00  0.00    +0.000 A 
ATOM     15  C   UNL     1      -3.932  10.861  16.448  0.00  0.00    +0.000 A 
ATOM     16  C   UNL     1      -2.971   9.882  16.283  0.00  0.00    +0.000 A 
ATOM     17  C   UNL     1      -1.933   9.765  17.226  0.00  0.00    +0.000 A 
ATOM     18  C   UNL     1      -1.811  10.658  18.322  0.00  0.00    +0.000 A 
ATOM     19  C   UNL     1      -2.750  11.672  18.489  0.00  0.00    +0.000 A 
ENDROOT
BRANCH   1  20
ATOM     20  C   UNL     1      -1.258  13.716  20.623  0.00  0.00    +0.000 C 
BRANCH  20  21
ATOM     21  C   UNL     1       0.047  12.968  20.911  0.00  0.00    +0.000 C 
BRANCH  21  22
ATOM     22  C   UNL     1      -0.263  11.598  21.475  0.00  0.00    +0.000 C 
BRANCH  22  23
ATOM     23  N   UNL     1       0.658  10.594  20.938  0.00  0.00    +0.000 NA
ATOM     24  H   UNL     1       0.600  10.408  19.937  0.00  0.00    +0.000 HD
BRANCH  23  25
ATOM     25  S   UNL     1       0.799   9.156  21.823  0.00  0.00    +0.000 S 
ATOM     26  O   UNL     1      -0.526   8.698  22.170  0.00  0.00    +0.000 OA
ATOM     27  O   UNL     1       1.827   9.370  22.815  0.00  0.00    +0.000 OA
BRANCH  25  32
ATOM     28  C   UNL     1       3.227   5.436  17.688  0.00  0.00    +0.000 C 
ATOM     29  C   UNL     1       2.585   6.349  18.693  0.00  0.00    +0.000 A 
ATOM     30  C   UNL     1       2.348   7.696  18.387  0.00  0.00    +0.000 A 
ATOM     31  C   UNL     1       1.786   8.546  19.338  0.00  0.00    +0.000 A 
ATOM     32  C   UNL     1       1.455   8.046  20.599  0.00  0.00    +0.000 A 
ATOM     33  C   UNL     1       1.691   6.707  20.921  0.00  0.00    +0.000 A 
ATOM     34  C   UNL     1       2.245   5.859  19.962  0.00  0.00    +0.000 A 
ENDBRANCH  25  32
ENDBRANCH  23  25
ENDBRANCH  22  23
ENDBRANCH  21  22
ENDBRANCH  20  21
ENDBRANCH   1  20
TORSDOF 6
ENDMDL
MODEL 7
REMARK VINA RESULT:      -8.1      2.158      2.957
REMARK  Name = 
REMARK  7 active torsions:
REMARK  status: ('A' for Active; 'I' for Inactive)
REMARK    1  A    between atoms: C_1  and  C_2
REMARK    2  A    between atoms: C_5  and  S_6
REMARK    3  A    between atoms: S_6  and  N_9
REMARK    4  A    between atoms: N_9  and  C_10
REMARK    5  A    between atoms: C_10  and  C_11
REMARK    6  A    between atoms: C_11  and  C_12
REMARK    7  A    between atoms: C_12  and  N_13
REMARK                            x       y       z     vdW  Elec       q    Type
REMARK                         _______ _______ _______ _____ _____    ______ ____
ROOT
ATOM      1  N   UNL     1       3.080   6.908  18.969  0.00  0.00    +0.000 N 
ATOM      2  C   UNL     1       3.651   6.003  18.073  0.00  0.00    +0.000 A 
ATOM      3  C   UNL     1       3.188   4.746  17.972  0.00  0.00    +0.000 A 
ATOM      4  C   UNL     1       2.482   4.131  19.069  0.00  0.00    +0.000 A 
ATOM      5  C   UNL     1       2.520   2.748  19.245  0.00  0.00    +0.000 A 
ATOM      6  C   UNL     1       1.981   2.183  20.395  0.00  0.00    +0.000 A 
ATOM      7  C   UNL     1       1.363   2.997  21.342  0.00  0.00    +0.000 A 
ATOM      8  C   UNL     1       1.336   4.389  21.174  0.00  0.00    +0.000 A 
ATOM      9  C   UNL     1       1.954   4.960  20.060  0.00  0.00    +0.000 A 
ATOM     10  C   UNL     1       2.130   6.438  19.932  0.00  0.00    +0.000 A 
ATOM     11  O   UNL     1       1.455   7.178  20.636  0.00  0.00    +0.000 OA
ATOM     12  C   UNL     1       3.685   4.131  16.743  0.00  0.00    +0.000 C 
ATOM     13  O   UNL     1       3.291   3.122  16.198  0.00  0.00    +0.000 OA
ATOM     14  C   UNL     1       4.806   4.950  16.337  0.00  0.00    +0.000 A 
ATOM     15  C   UNL     1       5.841   4.462  15.554  0.00  0.00    +0.000 A 
ATOM     16  C   UNL     1       7.078   5.052  15.727  0.00  0.00    +0.000 A 
ATOM     17  C   UNL     1       7.221   6.096  16.660  0.00  0.00    +0.000 A 
ATOM     18  C   UNL     1       6.118   6.601  17.397  0.00  0.00    +0.000 A 
ATOM     19  C   UNL     1       4.857   6.040  17.214  0.00  0.00    +0.000 A 
ENDROOT
BRANCH   1  20
ATOM     20  C   UNL     1       2.845   8.302  18.553  0.00  0.00    +0.000 C 
BRANCH  20  21
ATOM     21  C   UNL     1       1.665   8.530  17.603  0.00  0.00    +0.000 C 
BRANCH  21  22
ATOM     22  C   UNL     1       0.728   9.562  18.192  0.00  0.00    +0.000 C 
BRANCH  22  23
ATOM     23  N   UNL     1       1.284  10.127  19.423  0.00  0.00    +0.000 NA
ATOM     24  H   UNL     1       1.620   9.464  20.121  0.00  0.00    +0.000 HD
BRANCH  23  25
ATOM     25  S   UNL     1       0.396  11.379  20.143  0.00  0.00    +0.000 S 
ATOM     26  O   UNL     1       0.692  11.396  21.557  0.00  0.00    +0.000 OA
ATOM     27  O   UNL     1      -0.953  11.283  19.637  0.00  0.00    +0.000 OA
BRANCH  25  32
ATOM     28  C   UNL     1       3.042  16.327  17.832  0.00  0.00    +0.000 C 
ATOM     29  C   UNL     1       2.361  15.101  18.367  0.00  0.00    +0.000 A 
ATOM     30  C   UNL     1       1.177  15.208  19.110  0.00  0.00    +0.000 A 
ATOM     31  C   UNL     1       0.570  14.069  19.635  0.00  0.00    +0.000 A 
ATOM     32  C   UNL     1       1.146  12.816  19.413  0.00  0.00    +0.000 A 
ATOM     33  C   UNL     1       2.329  12.694  18.679  0.00  0.00    +0.000 A 
ATOM     34  C   UNL     1       2.927  13.837  18.148  0.00  0.00    +0.000 A 
ENDBRANCH  25  32
ENDBRANCH  23  25
ENDBRANCH  22  23
ENDBRANCH  21  22
ENDBRANCH  20  21
ENDBRANCH   1  20
TORSDOF 6
ENDMDL
MODEL 8
REMARK VINA RESULT:      -8.0      0.824      1.102
REMARK  Name = 
REMARK  7 active torsions:
REMARK  status: ('A' for Active; 'I' for Inactive)
REMARK    1  A    between atoms: C_1  and  C_2
REMARK    2  A    between atoms: C_5  and  S_6
REMARK    3  A    between atoms: S_6  and  N_9
REMARK    4  A    between atoms: N_9  and  C_10
REMARK    5  A    between atoms: C_10  and  C_11
REMARK    6  A    between atoms: C_11  and  C_12
REMARK    7  A    between atoms: C_12  and  N_13
REMARK                            x       y       z     vdW  Elec       q    Type
REMARK                         _______ _______ _______ _____ _____    ______ ____
ROOT
ATOM      1  N   UNL     1       3.131   6.717  19.042  0.00  0.00    +0.000 N 
ATOM      2  C   UNL     1       3.667   5.821  18.115  0.00  0.00    +0.000 A 
ATOM      3  C   UNL     1       3.183   4.573  18.002  0.00  0.00    +0.000 A 
ATOM      4  C   UNL     1       2.496   3.948  19.105  0.00  0.00    +0.000 A 
ATOM      5  C   UNL     1       2.517   2.561  19.255  0.00  0.00    +0.000 A 
ATOM      6  C   UNL     1       1.999   1.982  20.408  0.00  0.00    +0.000 A 
ATOM      7  C   UNL     1       1.417   2.787  21.384  0.00  0.00    +0.000 A 
ATOM      8  C   UNL     1       1.406   4.181  21.243  0.00  0.00    +0.000 A 
ATOM      9  C   UNL     1       2.004   4.765  20.125  0.00  0.00    +0.000 A 
ATOM     10  C   UNL     1       2.198   6.243  20.020  0.00  0.00    +0.000 A 
ATOM     11  O   UNL     1       1.551   6.978  20.754  0.00  0.00    +0.000 OA
ATOM     12  C   UNL     1       3.641   3.974  16.751  0.00  0.00    +0.000 C 
ATOM     13  O   UNL     1       3.219   2.982  16.197  0.00  0.00    +0.000 OA
ATOM     14  C   UNL     1       4.763   4.785  16.332  0.00  0.00    +0.000 A 
ATOM     15  C   UNL     1       5.772   4.297  15.515  0.00  0.00    +0.000 A 
ATOM     16  C   UNL     1       7.021   4.867  15.668  0.00  0.00    +0.000 A 
ATOM     17  C   UNL     1       7.202   5.891  16.616  0.00  0.00    +0.000 A 
ATOM     18  C   UNL     1       6.125   6.397  17.390  0.00  0.00    +0.000 A 
ATOM     19  C   UNL     1       4.852   5.858  17.228  0.00  0.00    +0.000 A 
ENDROOT
BRANCH   1  20
ATOM     20  C   UNL     1       2.906   8.122  18.658  0.00  0.00    +0.000 C 
BRANCH  20  21
ATOM     21  C   UNL     1       1.697   8.387  17.755  0.00  0.00    +0.000 C 
BRANCH  21  22
ATOM     22  C   UNL     1       1.076   9.720  18.112  0.00  0.00    +0.000 C 
BRANCH  22  23
ATOM     23  N   UNL     1       0.730   9.768  19.534  0.00  0.00    +0.000 NA
ATOM     24  H   UNL     1      -0.060   9.196  19.834  0.00  0.00    +0.000 HD
BRANCH  23  25
ATOM     25  S   UNL     1       0.676  11.307  20.242  0.00  0.00    +0.000 S 
ATOM     26  O   UNL     1       1.417  12.223  19.406  0.00  0.00    +0.000 OA
ATOM     27  O   UNL     1       0.966  11.135  21.646  0.00  0.00    +0.000 OA
BRANCH  25  32
ATOM     28  C   UNL     1      -5.160  12.872  19.677  0.00  0.00    +0.000 C 
ATOM     29  C   UNL     1      -3.729  12.448  19.840  0.00  0.00    +0.000 A 
ATOM     30  C   UNL     1      -3.012  12.778  20.998  0.00  0.00    +0.000 A 
ATOM     31  C   UNL     1      -1.674  12.413  21.126  0.00  0.00    +0.000 A 
ATOM     32  C   UNL     1      -1.049  11.709  20.093  0.00  0.00    +0.000 A 
ATOM     33  C   UNL     1      -1.749  11.378  18.930  0.00  0.00    +0.000 A 
ATOM     34  C   UNL     1      -3.092  11.738  18.812  0.00  0.00    +0.000 A 
ENDBRANCH  25  32
ENDBRANCH  23  25
ENDBRANCH  22  23
ENDBRANCH  21  22
ENDBRANCH  20  21
ENDBRANCH   1  20
TORSDOF 6
ENDMDL
MODEL 9
REMARK VINA RESULT:      -7.9      7.036     10.877
REMARK  Name = 
REMARK  7 active torsions:
REMARK  status: ('A' for Active; 'I' for Inactive)
REMARK    1  A    between atoms: C_1  and  C_2
REMARK    2  A    between atoms: C_5  and  S_6
REMARK    3  A    between atoms: S_6  and  N_9
REMARK    4  A    between atoms: N_9  and  C_10
REMARK    5  A    between atoms: C_10  and  C_11
REMARK    6  A    between atoms: C_11  and  C_12
REMARK    7  A    between atoms: C_12  and  N_13
REMARK                            x       y       z     vdW  Elec       q    Type
REMARK                         _______ _______ _______ _____ _____    ______ ____
ROOT
ATOM      1  N   UNL     1       9.750  11.941  19.391  0.00  0.00    +0.000 N 
ATOM      2  C   UNL     1       8.944  12.852  20.075  0.00  0.00    +0.000 A 
ATOM      3  C   UNL     1       8.631  14.040  19.533  0.00  0.00    +0.000 A 
ATOM      4  C   UNL     1       9.473  14.633  18.523  0.00  0.00    +0.000 A 
ATOM      5  C   UNL     1       9.537  16.019  18.384  0.00  0.00    +0.000 A 
ATOM      6  C   UNL     1      10.475  16.586  17.527  0.00  0.00    +0.000 A 
ATOM      7  C   UNL     1      11.311  15.762  16.776  0.00  0.00    +0.000 A 
ATOM      8  C   UNL     1      11.258  14.369  16.925  0.00  0.00    +0.000 A 
ATOM      9  C   UNL     1      10.376  13.808  17.849  0.00  0.00    +0.000 A 
ATOM     10  C   UNL     1      10.417  12.355  18.192  0.00  0.00    +0.000 A 
ATOM     11  O   UNL     1      10.998  11.585  17.439  0.00  0.00    +0.000 OA
ATOM     12  C   UNL     1       7.510  14.636  20.255  0.00  0.00    +0.000 C 
ATOM     13  O   UNL     1       6.804  15.560  19.913  0.00  0.00    +0.000 OA
ATOM     14  C   UNL     1       7.452  13.927  21.515  0.00  0.00    +0.000 A 
ATOM     15  C   UNL     1       6.901  14.483  22.660  0.00  0.00    +0.000 A 
ATOM     16  C   UNL     1       7.413  14.048  23.867  0.00  0.00    +0.000 A 
ATOM     17  C   UNL     1       8.437  13.082  23.875  0.00  0.00    +0.000 A 
ATOM     18  C   UNL     1       8.929  12.499  22.678  0.00  0.00    +0.000 A 
ATOM     19  C   UNL     1       8.404  12.902  21.453  0.00  0.00    +0.000 A 
ENDROOT
BRANCH   1  20
ATOM     20  C   UNL     1       9.409  10.507  19.400  0.00  0.00    +0.000 C 
BRANCH  20  21
ATOM     21  C   UNL     1       8.494  10.028  18.269  0.00  0.00    +0.000 C 
BRANCH  21  22
ATOM     22  C   UNL     1       8.438   8.515  18.264  0.00  0.00    +0.000 C 
BRANCH  22  23
ATOM     23  N   UNL     1       7.384   8.037  17.367  0.00  0.00    +0.000 NA
ATOM     24  H   UNL     1       6.474   8.492  17.445  0.00  0.00    +0.000 HD
BRANCH  23  25
ATOM     25  S   UNL     1       7.220   6.355  17.232  0.00  0.00    +0.000 S 
ATOM     26  O   UNL     1       8.187   5.728  18.103  0.00  0.00    +0.000 OA
ATOM     27  O   UNL     1       7.139   6.052  15.822  0.00  0.00    +0.000 OA
BRANCH  25  32
ATOM     28  C   UNL     1       1.761   5.606  19.774  0.00  0.00    +0.000 C 
ATOM     29  C   UNL     1       3.104   5.754  19.120  0.00  0.00    +0.000 A 
ATOM     30  C   UNL     1       4.226   5.087  19.633  0.00  0.00    +0.000 A 
ATOM     31  C   UNL     1       5.477   5.258  19.044  0.00  0.00    +0.000 A 
ATOM     32  C   UNL     1       5.607   6.095  17.933  0.00  0.00    +0.000 A 
ATOM     33  C   UNL     1       4.499   6.771  17.414  0.00  0.00    +0.000 A 
ATOM     34  C   UNL     1       3.248   6.588  18.003  0.00  0.00    +0.000 A 
ENDBRANCH  25  32
ENDBRANCH  23  25
ENDBRANCH  22  23
ENDBRANCH  21  22
ENDBRANCH  20  21
ENDBRANCH   1  20
TORSDOF 6
ENDMDL
