MODEL 1
REMARK VINA RESULT:      -8.2      0.000      0.000
REMARK  Name = 
REMARK  4 active torsions:
REMARK  status: ('A' for Active; 'I' for Inactive)
REMARK    1  A    between atoms: C_2  and  C_12
REMARK    2  A    between atoms: N_3  and  C_4
REMARK    3  A    between atoms: C_12  and  C_13
REMARK    4  A    between atoms: C_12  and  N_19
REMARK                            x       y       z     vdW  Elec       q    Type
REMARK                         _______ _______ _______ _____ _____    ______ ____
ROOT
ATOM      1  C   UNL     1       3.807   5.859  18.980  0.00  0.00    +0.000 C 
ENDROOT
BRANCH   1   2
ATOM      2  C   UNL     1       3.060   4.522  18.940  0.00  0.00    +0.000 A 
ATOM      3  C   UNL     1       3.454   3.398  19.683  0.00  0.00    +0.000 A 
ATOM      4  C   UNL     1       2.658   2.250  19.710  0.00  0.00    +0.000 A 
ATOM      5  C   UNL     1       1.458   2.205  19.001  0.00  0.00    +0.000 A 
ATOM      6  C   UNL     1       1.063   3.301  18.242  0.00  0.00    +0.000 A 
ATOM      7  C   UNL     1       1.861   4.444  18.202  0.00  0.00    +0.000 A 
ENDBRANCH   1   2
BRANCH   1   8
ATOM      8  N   UNL     1       4.969   5.965  18.009  0.00  0.00    +0.000 NA
ATOM      9  C   UNL     1       6.206   5.541  18.719  0.00  0.00    +0.000 C 
ATOM     10  C   UNL     1       7.438   5.441  17.812  0.00  0.00    +0.000 C 
ATOM     11  C   UNL     1       7.187   4.510  16.635  0.00  0.00    +0.000 C 
ATOM     12  C   UNL     1       5.945   4.971  15.895  0.00  0.00    +0.000 C 
ATOM     13  C   UNL     1       4.749   5.067  16.845  0.00  0.00    +0.000 C 
ENDBRANCH   1   8
BRANCH   1  15
ATOM     14  O   UNL     1       2.708   7.669  17.802  0.00  0.00    +0.000 OA
ATOM     15  C   UNL     1       2.829   7.068  18.874  0.00  0.00    +0.000 C 
ATOM     16  N   UNL     1       2.171   7.412  20.048  0.00  0.00    +0.000 N 
ATOM     17  H   UNL     1       2.313   6.758  20.812  0.00  0.00    +0.000 HD
BRANCH  16  18
ATOM     18  C   UNL     1       1.358   8.548  20.282  0.00  0.00    +0.000 A 
ATOM     19  C   UNL     1       1.117   9.556  19.339  0.00  0.00    +0.000 A 
ATOM     20  C   UNL     1       0.320  10.661  19.664  0.00  0.00    +0.000 A 
ATOM     21 CL   UNL     1       0.032  11.887  18.487  0.00  0.00    +0.000 Cl
ATOM     22  C   UNL     1      -0.245  10.788  20.926  0.00  0.00    +0.000 A 
ATOM     23  C   UNL     1      -0.010   9.792  21.866  0.00  0.00    +0.000 A 
ATOM     24 CL   UNL     1      -0.694   9.936  23.441  0.00  0.00    +0.000 Cl
ATOM     25  C   UNL     1       0.777   8.679  21.551  0.00  0.00    +0.000 A 
ENDBRANCH  16  18
ENDBRANCH   1  15
TORSDOF 4
ENDMDL
MODEL 2
REMARK VINA RESULT:      -8.1      0.524      1.107
REMARK  Name = 
REMARK  4 active torsions:
REMARK  status: ('A' for Active; 'I' for Inactive)
REMARK    1  A    between atoms: C_2  and  C_12
REMARK    2  A    between atoms: N_3  and  C_4
REMARK    3  A    between atoms: C_12  and  C_13
REMARK    4  A    between atoms: C_12  and  N_19
REMARK                            x       y       z     vdW  Elec       q    Type
REMARK                         _______ _______ _______ _____ _____    ______ ____
ROOT
ATOM      1  C   UNL     1       3.746   5.914  18.557  0.00  0.00    +0.000 C 
ENDROOT
BRANCH   1   2
ATOM      2  C   UNL     1       2.934   4.645  18.837  0.00  0.00    +0.000 A 
ATOM      3  C   UNL     1       1.755   4.318  18.147  0.00  0.00    +0.000 A 
ATOM      4  C   UNL     1       1.132   3.084  18.352  0.00  0.00    +0.000 A 
ATOM      5  C   UNL     1       1.674   2.156  19.240  0.00  0.00    +0.000 A 
ATOM      6  C   UNL     1       2.829   2.472  19.948  0.00  0.00    +0.000 A 
ATOM      7  C   UNL     1       3.446   3.708  19.757  0.00  0.00    +0.000 A 
ENDBRANCH   1   2
BRANCH   1   8
ATOM      8  N   UNL     1       4.627   5.843  17.322  0.00  0.00    +0.000 NA
ATOM      9  C   UNL     1       6.025   6.142  17.734  0.00  0.00    +0.000 C 
ATOM     10  C   UNL     1       7.056   5.946  16.616  0.00  0.00    +0.000 C 
ATOM     11  C   UNL     1       6.990   4.540  16.040  0.00  0.00    +0.000 C 
ATOM     12  C   UNL     1       5.568   4.256  15.589  0.00  0.00    +0.000 C 
ATOM     13  C   UNL     1       4.579   4.478  16.735  0.00  0.00    +0.000 C 
ENDBRANCH   1   8
BRANCH   1  15
ATOM     14  O   UNL     1       2.835   7.946  17.601  0.00  0.00    +0.000 OA
ATOM     15  C   UNL     1       2.847   7.187  18.576  0.00  0.00    +0.000 C 
ATOM     16  N   UNL     1       2.130   7.398  19.746  0.00  0.00    +0.000 N 
ATOM     17  H   UNL     1       2.182   6.630  20.410  0.00  0.00    +0.000 HD
BRANCH  16  18
ATOM     18  C   UNL     1       1.368   8.538  20.100  0.00  0.00    +0.000 A 
ATOM     19  C   UNL     1       1.090   9.603  19.233  0.00  0.00    +0.000 A 
ATOM     20  C   UNL     1       0.349  10.707  19.675  0.00  0.00    +0.000 A 
ATOM     21 CL   UNL     1       0.014  12.004  18.590  0.00  0.00    +0.000 Cl
ATOM     22  C   UNL     1      -0.121  10.776  20.980  0.00  0.00    +0.000 A 
ATOM     23  C   UNL     1       0.151   9.724  21.844  0.00  0.00    +0.000 A 
ATOM     24 CL   UNL     1      -0.415   9.796  23.471  0.00  0.00    +0.000 Cl
ATOM     25  C   UNL     1       0.882   8.611  21.413  0.00  0.00    +0.000 A 
ENDBRANCH  16  18
ENDBRANCH   1  15
TORSDOF 4
ENDMDL
MODEL 3
REMARK VINA RESULT:      -8.0      0.549      1.914
REMARK  Name = 
REMARK  4 active torsions:
REMARK  status: ('A' for Active; 'I' for Inactive)
REMARK    1  A    between atoms: C_2  and  C_12
REMARK    2  A    between atoms: N_3  and  C_4
REMARK    3  A    between atoms: C_12  and  C_13
REMARK    4  A    between atoms: C_12  and  N_19
REMARK                            x       y       z     vdW  Elec       q    Type
REMARK                         _______ _______ _______ _____ _____    ______ ____
ROOT
ATOM      1  C   UNL     1       3.824   5.766  18.584  0.00  0.00    +0.000 C 
ENDROOT
BRANCH   1   2
ATOM      2  C   UNL     1       3.038   4.476  18.840  0.00  0.00    +0.000 A 
ATOM      3  C   UNL     1       3.373   3.558  19.848  0.00  0.00    +0.000 A 
ATOM      4  C   UNL     1       2.543   2.469  20.121  0.00  0.00    +0.000 A 
ATOM      5  C   UNL     1       1.365   2.278  19.399  0.00  0.00    +0.000 A 
ATOM      6  C   UNL     1       1.028   3.166  18.382  0.00  0.00    +0.000 A 
ATOM      7  C   UNL     1       1.862   4.247  18.097  0.00  0.00    +0.000 A 
ENDBRANCH   1   2
BRANCH   1   8
ATOM      8  N   UNL     1       4.670   5.753  17.323  0.00  0.00    +0.000 NA
ATOM      9  C   UNL     1       6.063   6.119  17.698  0.00  0.00    +0.000 C 
ATOM     10  C   UNL     1       7.069   5.989  16.548  0.00  0.00    +0.000 C 
ATOM     11  C   UNL     1       7.058   4.587  15.958  0.00  0.00    +0.000 C 
ATOM     12  C   UNL     1       5.640   4.234  15.546  0.00  0.00    +0.000 C 
ATOM     13  C   UNL     1       4.675   4.393  16.722  0.00  0.00    +0.000 C 
ENDBRANCH   1   8
BRANCH   1  15
ATOM     14  O   UNL     1       2.831   7.799  17.715  0.00  0.00    +0.000 OA
ATOM     15  C   UNL     1       2.908   7.025  18.674  0.00  0.00    +0.000 C 
ATOM     16  N   UNL     1       2.254   7.205  19.886  0.00  0.00    +0.000 N 
ATOM     17  H   UNL     1       2.354   6.428  20.533  0.00  0.00    +0.000 HD
BRANCH  16  18
ATOM     18  C   UNL     1       1.496   8.327  20.300  0.00  0.00    +0.000 A 
ATOM     19  C   UNL     1       0.971   8.494  21.589  0.00  0.00    +0.000 A 
ATOM     20  C   UNL     1       0.208   9.624  21.907  0.00  0.00    +0.000 A 
ATOM     21 CL   UNL     1      -0.424   9.812  23.500  0.00  0.00    +0.000 Cl
ATOM     22  C   UNL     1      -0.053  10.601  20.955  0.00  0.00    +0.000 A 
ATOM     23  C   UNL     1       0.464  10.442  19.677  0.00  0.00    +0.000 A 
ATOM     24 CL   UNL     1       0.143  11.639  18.478  0.00  0.00    +0.000 Cl
ATOM     25  C   UNL     1       1.236   9.322  19.348  0.00  0.00    +0.000 A 
ENDBRANCH  16  18
ENDBRANCH   1  15
TORSDOF 4
ENDMDL
MODEL 4
REMARK VINA RESULT:      -7.9      2.288      4.330
REMARK  Name = 
REMARK  4 active torsions:
REMARK  status: ('A' for Active; 'I' for Inactive)
REMARK    1  A    between atoms: C_2  and  C_12
REMARK    2  A    between atoms: N_3  and  C_4
REMARK    3  A    between atoms: C_12  and  C_13
REMARK    4  A    between atoms: C_12  and  N_19
REMARK                            x       y       z     vdW  Elec       q    Type
REMARK                         _______ _______ _______ _____ _____    ______ ____
ROOT
ATOM      1  C   UNL     1       3.433   5.849  18.118  0.00  0.00    +0.000 C 
ENDROOT
BRANCH   1   2
ATOM      2  C   UNL     1       4.955   6.016  18.069  0.00  0.00    +0.000 A 
ATOM      3  C   UNL     1       5.610   6.831  17.132  0.00  0.00    +0.000 A 
ATOM      4  C   UNL     1       6.987   7.049  17.221  0.00  0.00    +0.000 A 
ATOM      5  C   UNL     1       7.732   6.463  18.245  0.00  0.00    +0.000 A 
ATOM      6  C   UNL     1       7.103   5.635  19.168  0.00  0.00    +0.000 A 
ATOM      7  C   UNL     1       5.731   5.404  19.075  0.00  0.00    +0.000 A 
ENDBRANCH   1   2
BRANCH   1   8
ATOM      8  N   UNL     1       2.957   4.556  18.757  0.00  0.00    +0.000 NA
ATOM      9  C   UNL     1       1.556   4.756  19.217  0.00  0.00    +0.000 C 
ATOM     10  C   UNL     1       0.887   3.479  19.739  0.00  0.00    +0.000 C 
ATOM     11  C   UNL     1       0.923   2.369  18.700  0.00  0.00    +0.000 C 
ATOM     12  C   UNL     1       2.359   2.147  18.262  0.00  0.00    +0.000 C 
ATOM     13  C   UNL     1       2.985   3.451  17.763  0.00  0.00    +0.000 C 
ENDBRANCH   1   8
BRANCH   1  15
ATOM     14  O   UNL     1       2.506   7.157  19.935  0.00  0.00    +0.000 OA
ATOM     15  C   UNL     1       2.735   7.105  18.723  0.00  0.00    +0.000 C 
ATOM     16  N   UNL     1       2.378   8.089  17.811  0.00  0.00    +0.000 N 
ATOM     17  H   UNL     1       2.723   7.930  16.868  0.00  0.00    +0.000 HD
BRANCH  16  18
ATOM     18  C   UNL     1       1.602   9.249  18.050  0.00  0.00    +0.000 A 
ATOM     19  C   UNL     1       2.129  10.487  18.440  0.00  0.00    +0.000 A 
ATOM     20  C   UNL     1       1.284  11.578  18.683  0.00  0.00    +0.000 A 
ATOM     21 CL   UNL     1       1.955  13.094  19.157  0.00  0.00    +0.000 Cl
ATOM     22  C   UNL     1      -0.093  11.458  18.550  0.00  0.00    +0.000 A 
ATOM     23  C   UNL     1      -0.622  10.234  18.164  0.00  0.00    +0.000 A 
ATOM     24 CL   UNL     1      -2.330  10.063  18.003  0.00  0.00    +0.000 Cl
ATOM     25  C   UNL     1       0.211   9.139  17.909  0.00  0.00    +0.000 A 
ENDBRANCH  16  18
ENDBRANCH   1  15
TORSDOF 4
ENDMDL
MODEL 5
REMARK VINA RESULT:      -7.9      1.251      2.456
REMARK  Name = 
REMARK  4 active torsions:
REMARK  status: ('A' for Active; 'I' for Inactive)
REMARK    1  A    between atoms: C_2  and  C_12
REMARK    2  A    between atoms: N_3  and  C_4
REMARK    3  A    between atoms: C_12  and  C_13
REMARK    4  A    between atoms: C_12  and  N_19
REMARK                            x       y       z     vdW  Elec       q    Type
REMARK                         _______ _______ _______ _____ _____    ______ ____
ROOT
ATOM      1  C   UNL     1       3.003   6.091  18.962  0.00  0.00    +0.000 C 
ENDROOT
BRANCH   1   2
ATOM      2  C   UNL     1       2.288   4.934  19.668  0.00  0.00    +0.000 A 
ATOM      3  C   UNL     1       1.327   4.126  19.039  0.00  0.00    +0.000 A 
ATOM      4  C   UNL     1       0.807   3.004  19.689  0.00  0.00    +0.000 A 
ATOM      5  C   UNL     1       1.239   2.667  20.972  0.00  0.00    +0.000 A 
ATOM      6  C   UNL     1       2.175   3.468  21.618  0.00  0.00    +0.000 A 
ATOM      7  C   UNL     1       2.685   4.596  20.977  0.00  0.00    +0.000 A 
ENDBRANCH   1   2
BRANCH   1   8
ATOM      8  N   UNL     1       3.560   5.749  17.591  0.00  0.00    +0.000 NA
ATOM      9  C   UNL     1       4.590   6.766  17.244  0.00  0.00    +0.000 C 
ATOM     10  C   UNL     1       5.357   6.456  15.953  0.00  0.00    +0.000 C 
ATOM     11  C   UNL     1       6.005   5.081  16.009  0.00  0.00    +0.000 C 
ATOM     12  C   UNL     1       4.942   4.045  16.329  0.00  0.00    +0.000 C 
ATOM     13  C   UNL     1       4.198   4.407  17.616  0.00  0.00    +0.000 C 
ENDBRANCH   1   8
BRANCH   1  15
ATOM     14  O   UNL     1       1.876   7.939  17.874  0.00  0.00    +0.000 OA
ATOM     15  C   UNL     1       2.131   7.383  18.946  0.00  0.00    +0.000 C 
ATOM     16  N   UNL     1       1.724   7.846  20.191  0.00  0.00    +0.000 N 
ATOM     17  H   UNL     1       1.942   7.219  20.961  0.00  0.00    +0.000 HD
BRANCH  16  18
ATOM     18  C   UNL     1       1.068   9.065  20.487  0.00  0.00    +0.000 A 
ATOM     19  C   UNL     1       0.290   9.287  21.631  0.00  0.00    +0.000 A 
ATOM     20  C   UNL     1      -0.348  10.518  21.833  0.00  0.00    +0.000 A 
ATOM     21 CL   UNL     1      -1.296  10.770  23.250  0.00  0.00    +0.000 Cl
ATOM     22  C   UNL     1      -0.231  11.543  20.904  0.00  0.00    +0.000 A 
ATOM     23  C   UNL     1       0.539  11.331  19.768  0.00  0.00    +0.000 A 
ATOM     24 CL   UNL     1       0.689  12.588  18.599  0.00  0.00    +0.000 Cl
ATOM     25  C   UNL     1       1.189  10.109  19.559  0.00  0.00    +0.000 A 
ENDBRANCH  16  18
ENDBRANCH   1  15
TORSDOF 4
ENDMDL
MODEL 6
REMARK VINA RESULT:      -7.9      2.306      4.389
REMARK  Name = 
REMARK  4 active torsions:
REMARK  status: ('A' for Active; 'I' for Inactive)
REMARK    1  A    between atoms: C_2  and  C_12
REMARK    2  A    between atoms: N_3  and  C_4
REMARK    3  A    between atoms: C_12  and  C_13
REMARK    4  A    between atoms: C_12  and  N_19
REMARK                            x       y       z     vdW  Elec       q    Type
REMARK                         _______ _______ _______ _____ _____    ______ ____
ROOT
ATOM      1  C   UNL     1       3.489   5.865  18.061  0.00  0.00    +0.000 C 
ENDROOT
BRANCH   1   2
ATOM      2  C   UNL     1       5.010   6.047  18.060  0.00  0.00    +0.000 A 
ATOM      3  C   UNL     1       5.681   6.904  17.173  0.00  0.00    +0.000 A 
ATOM      4  C   UNL     1       7.053   7.131  17.308  0.00  0.00    +0.000 A 
ATOM      5  C   UNL     1       7.776   6.513  18.327  0.00  0.00    +0.000 A 
ATOM      6  C   UNL     1       7.132   5.644  19.202  0.00  0.00    +0.000 A 
ATOM      7  C   UNL     1       5.765   5.404  19.062  0.00  0.00    +0.000 A 
ENDBRANCH   1   2
BRANCH   1   8
ATOM      8  N   UNL     1       3.009   4.549  18.648  0.00  0.00    +0.000 NA
ATOM      9  C   UNL     1       1.678   4.779  19.274  0.00  0.00    +0.000 C 
ATOM     10  C   UNL     1       0.995   3.498  19.767  0.00  0.00    +0.000 C 
ATOM     11  C   UNL     1       0.855   2.478  18.647  0.00  0.00    +0.000 C 
ATOM     12  C   UNL     1       2.221   2.222  18.037  0.00  0.00    +0.000 C 
ATOM     13  C   UNL     1       2.865   3.530  17.574  0.00  0.00    +0.000 C 
ENDBRANCH   1   8
BRANCH   1  15
ATOM     14  O   UNL     1       2.567   7.142  19.903  0.00  0.00    +0.000 OA
ATOM     15  C   UNL     1       2.762   7.095  18.684  0.00  0.00    +0.000 C 
ATOM     16  N   UNL     1       2.341   8.063  17.781  0.00  0.00    +0.000 N 
ATOM     17  H   UNL     1       2.664   7.914  16.830  0.00  0.00    +0.000 HD
BRANCH  16  18
ATOM     18  C   UNL     1       1.529   9.193  18.042  0.00  0.00    +0.000 A 
ATOM     19  C   UNL     1       0.129   9.192  17.977  0.00  0.00    +0.000 A 
ATOM     20  C   UNL     1      -0.597  10.364  18.224  0.00  0.00    +0.000 A 
ATOM     21 CL   UNL     1      -2.319  10.339  18.143  0.00  0.00    +0.000 Cl
ATOM     22  C   UNL     1       0.049  11.554  18.533  0.00  0.00    +0.000 A 
ATOM     23  C   UNL     1       1.436  11.561  18.600  0.00  0.00    +0.000 A 
ATOM     24 CL   UNL     1       2.258  13.030  18.973  0.00  0.00    +0.000 Cl
ATOM     25  C   UNL     1       2.173  10.395  18.364  0.00  0.00    +0.000 A 
ENDBRANCH  16  18
ENDBRANCH   1  15
TORSDOF 4
ENDMDL
MODEL 7
REMARK VINA RESULT:      -7.9      1.281      4.187
REMARK  Name = 
REMARK  4 active torsions:
REMARK  status: ('A' for Active; 'I' for Inactive)
REMARK    1  A    between atoms: C_2  and  C_12
REMARK    2  A    between atoms: N_3  and  C_4
REMARK    3  A    between atoms: C_12  and  C_13
REMARK    4  A    between atoms: C_12  and  N_19
REMARK                            x       y       z     vdW  Elec       q    Type
REMARK                         _______ _______ _______ _____ _____    ______ ____
ROOT
ATOM      1  C   UNL     1       3.557   5.545  18.058  0.00  0.00    +0.000 C 
ENDROOT
BRANCH   1   2
ATOM      2  C   UNL     1       5.024   5.942  18.250  0.00  0.00    +0.000 A 
ATOM      3  C   UNL     1       5.845   5.396  19.250  0.00  0.00    +0.000 A 
ATOM      4  C   UNL     1       7.208   5.696  19.291  0.00  0.00    +0.000 A 
ATOM      5  C   UNL     1       7.777   6.540  18.338  0.00  0.00    +0.000 A 
ATOM      6  C   UNL     1       6.975   7.108  17.353  0.00  0.00    +0.000 A 
ATOM      7  C   UNL     1       5.610   6.821  17.317  0.00  0.00    +0.000 A 
ENDBRANCH   1   2
BRANCH   1   8
ATOM      8  N   UNL     1       3.140   4.283  18.794  0.00  0.00    +0.000 NA
ATOM      9  C   UNL     1       1.662   4.312  18.962  0.00  0.00    +0.000 C 
ATOM     10  C   UNL     1       1.079   3.020  19.547  0.00  0.00    +0.000 C 
ATOM     11  C   UNL     1       1.469   1.809  18.713  0.00  0.00    +0.000 C 
ATOM     12  C   UNL     1       2.980   1.767  18.576  0.00  0.00    +0.000 C 
ATOM     13  C   UNL     1       3.512   3.081  18.002  0.00  0.00    +0.000 C 
ENDBRANCH   1   8
BRANCH   1  15
ATOM     14  O   UNL     1       2.077   7.345  17.392  0.00  0.00    +0.000 OA
ATOM     15  C   UNL     1       2.596   6.741  18.336  0.00  0.00    +0.000 C 
ATOM     16  N   UNL     1       2.423   7.072  19.674  0.00  0.00    +0.000 N 
ATOM     17  H   UNL     1       2.848   6.417  20.324  0.00  0.00    +0.000 HD
BRANCH  16  18
ATOM     18  C   UNL     1       1.744   8.195  20.205  0.00  0.00    +0.000 A 
ATOM     19  C   UNL     1       1.255   8.277  21.516  0.00  0.00    +0.000 A 
ATOM     20  C   UNL     1       0.570   9.418  21.952  0.00  0.00    +0.000 A 
ATOM     21 CL   UNL     1      -0.018   9.499  23.571  0.00  0.00    +0.000 Cl
ATOM     22  C   UNL     1       0.353  10.491  21.098  0.00  0.00    +0.000 A 
ATOM     23  C   UNL     1       0.835  10.417  19.798  0.00  0.00    +0.000 A 
ATOM     24 CL   UNL     1       0.567  11.735  18.719  0.00  0.00    +0.000 Cl
ATOM     25  C   UNL     1       1.529   9.287  19.352  0.00  0.00    +0.000 A 
ENDBRANCH  16  18
ENDBRANCH   1  15
TORSDOF 4
ENDMDL
MODEL 8
REMARK VINA RESULT:      -7.8      1.229      3.835
REMARK  Name = 
REMARK  4 active torsions:
REMARK  status: ('A' for Active; 'I' for Inactive)
REMARK    1  A    between atoms: C_2  and  C_12
REMARK    2  A    between atoms: N_3  and  C_4
REMARK    3  A    between atoms: C_12  and  C_13
REMARK    4  A    between atoms: C_12  and  N_19
REMARK                            x       y       z     vdW  Elec       q    Type
REMARK                         _______ _______ _______ _____ _____    ______ ____
ROOT
ATOM      1  C   UNL     1       3.706   5.832  17.740  0.00  0.00    +0.000 C 
ENDROOT
BRANCH   1   2
ATOM      2  C   UNL     1       5.213   6.026  17.943  0.00  0.00    +0.000 A 
ATOM      3  C   UNL     1       6.004   6.827  17.104  0.00  0.00    +0.000 A 
ATOM      4  C   UNL     1       7.343   7.073  17.416  0.00  0.00    +0.000 A 
ATOM      5  C   UNL     1       7.913   6.532  18.567  0.00  0.00    +0.000 A 
ATOM      6  C   UNL     1       7.150   5.719  19.398  0.00  0.00    +0.000 A 
ATOM      7  C   UNL     1       5.816   5.459  19.083  0.00  0.00    +0.000 A 
ENDBRANCH   1   2
BRANCH   1   8
ATOM      8  N   UNL     1       3.111   4.658  18.499  0.00  0.00    +0.000 NA
ATOM      9  C   UNL     1       1.728   4.436  17.996  0.00  0.00    +0.000 C 
ATOM     10  C   UNL     1       1.060   3.176  18.559  0.00  0.00    +0.000 C 
ATOM     11  C   UNL     1       1.899   1.936  18.291  0.00  0.00    +0.000 C 
ATOM     12  C   UNL     1       3.298   2.157  18.838  0.00  0.00    +0.000 C 
ATOM     13  C   UNL     1       3.915   3.431  18.258  0.00  0.00    +0.000 C 
ENDBRANCH   1   8
BRANCH   1  15
ATOM     14  O   UNL     1       2.915   8.034  17.109  0.00  0.00    +0.000 OA
ATOM     15  C   UNL     1       2.918   7.156  17.977  0.00  0.00    +0.000 C 
ATOM     16  N   UNL     1       2.288   7.265  19.210  0.00  0.00    +0.000 N 
ATOM     17  H   UNL     1       2.313   6.416  19.768  0.00  0.00    +0.000 HD
BRANCH  16  18
ATOM     18  C   UNL     1       1.644   8.403  19.753  0.00  0.00    +0.000 A 
ATOM     19  C   UNL     1       1.370   9.575  19.035  0.00  0.00    +0.000 A 
ATOM     20  C   UNL     1       0.752  10.666  19.659  0.00  0.00    +0.000 A 
ATOM     21 CL   UNL     1       0.420  12.096  18.756  0.00  0.00    +0.000 Cl
ATOM     22  C   UNL     1       0.402  10.617  21.003  0.00  0.00    +0.000 A 
ATOM     23  C   UNL     1       0.670   9.458  21.720  0.00  0.00    +0.000 A 
ATOM     24 CL   UNL     1       0.251   9.381  23.390  0.00  0.00    +0.000 Cl
ATOM     25  C   UNL     1       1.278   8.358  21.106  0.00  0.00    +0.000 A 
ENDBRANCH  16  18
ENDBRANCH   1  15
TORSDOF 4
ENDMDL
MODEL 9
REMARK VINA RESULT:      -7.8      1.324      3.860
REMARK  Name = 
REMARK  4 active torsions:
REMARK  status: ('A' for Active; 'I' for Inactive)
REMARK    1  A    between atoms: C_2  and  C_12
REMARK    2  A    between atoms: N_3  and  C_4
REMARK    3  A    between atoms: C_12  and  C_13
REMARK    4  A    between atoms: C_12  and  N_19
REMARK                            x       y       z     vdW  Elec       q    Type
REMARK                         _______ _______ _______ _____ _____    ______ ____
ROOT
ATOM      1  C   UNL     1       3.548   5.228  18.273  0.00  0.00    +0.000 C 
ENDROOT
BRANCH   1   2
ATOM      2  C   UNL     1       4.981   5.767  18.348  0.00  0.00    +0.000 A 
ATOM      3  C   UNL     1       5.941   5.277  19.248  0.00  0.00    +0.000 A 
ATOM      4  C   UNL     1       7.266   5.713  19.179  0.00  0.00    +0.000 A 
ATOM      5  C   UNL     1       7.657   6.639  18.213  0.00  0.00    +0.000 A 
ATOM      6  C   UNL     1       6.715   7.151  17.327  0.00  0.00    +0.000 A 
ATOM      7  C   UNL     1       5.388   6.729  17.401  0.00  0.00    +0.000 A 
ENDBRANCH   1   2
BRANCH   1   8
ATOM      8  N   UNL     1       3.272   4.036  19.172  0.00  0.00    +0.000 NA
ATOM      9  C   UNL     1       2.783   4.548  20.481  0.00  0.00    +0.000 C 
ATOM     10  C   UNL     1       2.308   3.448  21.438  0.00  0.00    +0.000 C 
ATOM     11  C   UNL     1       1.230   2.585  20.800  0.00  0.00    +0.000 C 
ATOM     12  C   UNL     1       1.749   2.038  19.483  0.00  0.00    +0.000 C 
ATOM     13  C   UNL     1       2.222   3.172  18.571  0.00  0.00    +0.000 C 
ENDBRANCH   1   8
BRANCH   1  15
ATOM     14  O   UNL     1       1.728   6.641  17.523  0.00  0.00    +0.000 OA
ATOM     15  C   UNL     1       2.496   6.365  18.450  0.00  0.00    +0.000 C 
ATOM     16  N   UNL     1       2.532   7.030  19.668  0.00  0.00    +0.000 N 
ATOM     17  H   UNL     1       3.162   6.616  20.350  0.00  0.00    +0.000 HD
BRANCH  16  18
ATOM     18  C   UNL     1       1.812   8.191  20.041  0.00  0.00    +0.000 A 
ATOM     19  C   UNL     1       1.594   9.290  19.199  0.00  0.00    +0.000 A 
ATOM     20  C   UNL     1       0.892  10.412  19.658  0.00  0.00    +0.000 A 
ATOM     21 CL   UNL     1       0.630  11.750  18.604  0.00  0.00    +0.000 Cl
ATOM     22  C   UNL     1       0.402  10.466  20.957  0.00  0.00    +0.000 A 
ATOM     23  C   UNL     1       0.615   9.380  21.796  0.00  0.00    +0.000 A 
ATOM     24 CL   UNL     1       0.023   9.432  23.414  0.00  0.00    +0.000 Cl
ATOM     25  C   UNL     1       1.307   8.250  21.347  0.00  0.00    +0.000 A 
ENDBRANCH  16  18
ENDBRANCH   1  15
TORSDOF 4
ENDMDL
