MODEL 1
REMARK VINA RESULT:      -7.6      0.000      0.000
REMARK  Name = 
REMARK  4 active torsions:
REMARK  status: ('A' for Active; 'I' for Inactive)
REMARK    1  A    between atoms: C_1  and  C_2
REMARK    2  A    between atoms: C_5  and  C_6
REMARK    3  A    between atoms: C_6  and  C_8
REMARK    4  A    between atoms: C_8  and  N_9
REMARK                            x       y       z     vdW  Elec       q    Type
REMARK                         _______ _______ _______ _____ _____    ______ ____
ROOT
ATOM      1  N   UNL     1       4.317   3.989  18.595  0.00  0.00    +0.000 N 
ATOM      2  C   UNL     1       5.508   4.662  18.401  0.00  0.00    +0.000 A 
ATOM      3  C   UNL     1       5.969   4.607  17.060  0.00  0.00    +0.000 A 
ATOM      4  S   UNL     1       4.877   3.714  16.147  0.00  0.00    +0.000 S 
ATOM      5  C   UNL     1       3.880   3.399  17.449  0.00  0.00    +0.000 A 
ATOM      6  N   UNL     1       2.830   2.667  17.379  0.00  0.00    +0.000 NA
ATOM      7  C   UNL     1       7.162   5.280  16.429  0.00  0.00    +0.000 C 
ATOM      8  C   UNL     1       7.202   6.742  16.867  0.00  0.00    +0.000 C 
ATOM      9  C   UNL     1       7.889   6.918  18.232  0.00  0.00    +0.000 C 
ATOM     10  C   UNL     1       7.683   5.785  19.252  0.00  0.00    +0.000 C 
ATOM     11  C   UNL     1       6.240   5.376  19.538  0.00  0.00    +0.000 C 
ATOM     12  H   UNL     1       2.546   2.227  16.492  0.00  0.00    +0.000 HD
ENDROOT
BRANCH   1  13
ATOM     13  C   UNL     1       3.605   3.831  19.880  0.00  0.00    +0.000 C 
BRANCH  13  14
ATOM     14  C   UNL     1       2.295   4.608  19.964  0.00  0.00    +0.000 C 
ATOM     15  O   UNL     1       1.372   4.098  20.584  0.00  0.00    +0.000 OA
BRANCH  14  20
ATOM     16  C   UNL     1       1.557  10.174  18.452  0.00  0.00    +0.000 C 
ATOM     17  C   UNL     1       1.826   8.752  18.845  0.00  0.00    +0.000 A 
ATOM     18  C   UNL     1       2.283   7.813  17.908  0.00  0.00    +0.000 A 
ATOM     19  C   UNL     1       2.471   6.478  18.282  0.00  0.00    +0.000 A 
ATOM     20  C   UNL     1       2.194   6.054  19.599  0.00  0.00    +0.000 A 
ATOM     21  C   UNL     1       1.774   7.013  20.530  0.00  0.00    +0.000 A 
ATOM     22  C   UNL     1       1.593   8.346  20.163  0.00  0.00    +0.000 A 
ENDBRANCH  14  20
ENDBRANCH  13  14
ENDBRANCH   1  13
TORSDOF 3
ENDMDL
MODEL 2
REMARK VINA RESULT:      -7.5      2.520      4.620
REMARK  Name = 
REMARK  4 active torsions:
REMARK  status: ('A' for Active; 'I' for Inactive)
REMARK    1  A    between atoms: C_1  and  C_2
REMARK    2  A    between atoms: C_5  and  C_6
REMARK    3  A    between atoms: C_6  and  C_8
REMARK    4  A    between atoms: C_8  and  N_9
REMARK                            x       y       z     vdW  Elec       q    Type
REMARK                         _______ _______ _______ _____ _____    ______ ____
ROOT
ATOM      1  N   UNL     1       2.958   5.744  18.232  0.00  0.00    +0.000 N 
ATOM      2  C   UNL     1       2.585   4.643  18.979  0.00  0.00    +0.000 A 
ATOM      3  C   UNL     1       3.685   3.836  19.373  0.00  0.00    +0.000 A 
ATOM      4  S   UNL     1       5.100   4.519  18.776  0.00  0.00    +0.000 S 
ATOM      5  C   UNL     1       4.303   5.778  18.022  0.00  0.00    +0.000 A 
ATOM      6  N   UNL     1       4.891   6.666  17.308  0.00  0.00    +0.000 NA
ATOM      7  C   UNL     1       3.709   2.617  20.260  0.00  0.00    +0.000 C 
ATOM      8  C   UNL     1       2.869   2.887  21.506  0.00  0.00    +0.000 C 
ATOM      9  C   UNL     1       1.375   2.619  21.265  0.00  0.00    +0.000 C 
ATOM     10  C   UNL     1       0.840   2.941  19.858  0.00  0.00    +0.000 C 
ATOM     11  C   UNL     1       1.126   4.341  19.322  0.00  0.00    +0.000 C 
ATOM     12  H   UNL     1       5.910   6.642  17.164  0.00  0.00    +0.000 HD
ENDROOT
BRANCH   1  13
ATOM     13  C   UNL     1       2.046   6.747  17.644  0.00  0.00    +0.000 C 
BRANCH  13  14
ATOM     14  C   UNL     1       2.249   8.160  18.180  0.00  0.00    +0.000 C 
ATOM     15  O   UNL     1       2.768   8.980  17.434  0.00  0.00    +0.000 OA
BRANCH  14  20
ATOM     16  C   UNL     1      -0.645   9.872  22.924  0.00  0.00    +0.000 C 
ATOM     17  C   UNL     1       0.155   9.488  21.714  0.00  0.00    +0.000 A 
ATOM     18  C   UNL     1       0.068  10.222  20.522  0.00  0.00    +0.000 A 
ATOM     19  C   UNL     1       0.778   9.813  19.388  0.00  0.00    +0.000 A 
ATOM     20  C   UNL     1       1.580   8.652  19.422  0.00  0.00    +0.000 A 
ATOM     21  C   UNL     1       1.683   7.952  20.631  0.00  0.00    +0.000 A 
ATOM     22  C   UNL     1       0.983   8.362  21.766  0.00  0.00    +0.000 A 
ENDBRANCH  14  20
ENDBRANCH  13  14
ENDBRANCH   1  13
TORSDOF 3
ENDMDL
MODEL 3
REMARK VINA RESULT:      -7.4      2.506      4.672
REMARK  Name = 
REMARK  4 active torsions:
REMARK  status: ('A' for Active; 'I' for Inactive)
REMARK    1  A    between atoms: C_1  and  C_2
REMARK    2  A    between atoms: C_5  and  C_6
REMARK    3  A    between atoms: C_6  and  C_8
REMARK    4  A    between atoms: C_8  and  N_9
REMARK                            x       y       z     vdW  Elec       q    Type
REMARK                         _______ _______ _______ _____ _____    ______ ____
ROOT
ATOM      1  N   UNL     1       2.997   5.764  18.333  0.00  0.00    +0.000 N 
ATOM      2  C   UNL     1       2.598   4.662  19.064  0.00  0.00    +0.000 A 
ATOM      3  C   UNL     1       3.673   3.805  19.416  0.00  0.00    +0.000 A 
ATOM      4  S   UNL     1       5.100   4.445  18.801  0.00  0.00    +0.000 S 
ATOM      5  C   UNL     1       4.337   5.750  18.093  0.00  0.00    +0.000 A 
ATOM      6  N   UNL     1       4.944   6.631  17.386  0.00  0.00    +0.000 NA
ATOM      7  C   UNL     1       3.669   2.566  20.276  0.00  0.00    +0.000 C 
ATOM      8  C   UNL     1       2.868   2.841  21.546  0.00  0.00    +0.000 C 
ATOM      9  C   UNL     1       1.359   2.636  21.333  0.00  0.00    +0.000 C 
ATOM     10  C   UNL     1       0.807   3.009  19.946  0.00  0.00    +0.000 C 
ATOM     11  C   UNL     1       1.136   4.409  19.434  0.00  0.00    +0.000 C 
ATOM     12  H   UNL     1       5.958   6.571  17.218  0.00  0.00    +0.000 HD
ENDROOT
BRANCH   1  13
ATOM     13  C   UNL     1       2.112   6.814  17.787  0.00  0.00    +0.000 C 
BRANCH  13  14
ATOM     14  C   UNL     1       2.294   8.181  18.441  0.00  0.00    +0.000 C 
ATOM     15  O   UNL     1       2.975   9.006  17.848  0.00  0.00    +0.000 OA
BRANCH  14  20
ATOM     16  C   UNL     1      -0.722  10.200  22.983  0.00  0.00    +0.000 C 
ATOM     17  C   UNL     1       0.002   9.622  21.803  0.00  0.00    +0.000 A 
ATOM     18  C   UNL     1       0.805   8.479  21.932  0.00  0.00    +0.000 A 
ATOM     19  C   UNL     1       1.518   7.990  20.831  0.00  0.00    +0.000 A 
ATOM     20  C   UNL     1       1.449   8.644  19.583  0.00  0.00    +0.000 A 
ATOM     21  C   UNL     1       0.612   9.761  19.464  0.00  0.00    +0.000 A 
ATOM     22  C   UNL     1      -0.106  10.247  20.556  0.00  0.00    +0.000 A 
ENDBRANCH  14  20
ENDBRANCH  13  14
ENDBRANCH   1  13
TORSDOF 3
ENDMDL
MODEL 4
REMARK VINA RESULT:      -7.4      0.227      1.076
REMARK  Name = 
REMARK  4 active torsions:
REMARK  status: ('A' for Active; 'I' for Inactive)
REMARK    1  A    between atoms: C_1  and  C_2
REMARK    2  A    between atoms: C_5  and  C_6
REMARK    3  A    between atoms: C_6  and  C_8
REMARK    4  A    between atoms: C_8  and  N_9
REMARK                            x       y       z     vdW  Elec       q    Type
REMARK                         _______ _______ _______ _____ _____    ______ ____
ROOT
ATOM      1  N   UNL     1       4.439   3.906  18.615  0.00  0.00    +0.000 N 
ATOM      2  C   UNL     1       5.597   4.628  18.400  0.00  0.00    +0.000 A 
ATOM      3  C   UNL     1       6.033   4.596  17.049  0.00  0.00    +0.000 A 
ATOM      4  S   UNL     1       4.960   3.662  16.155  0.00  0.00    +0.000 S 
ATOM      5  C   UNL     1       4.003   3.301  17.475  0.00  0.00    +0.000 A 
ATOM      6  N   UNL     1       2.983   2.526  17.424  0.00  0.00    +0.000 NA
ATOM      7  C   UNL     1       7.183   5.320  16.397  0.00  0.00    +0.000 C 
ATOM      8  C   UNL     1       7.171   6.781  16.839  0.00  0.00    +0.000 C 
ATOM      9  C   UNL     1       7.878   6.982  18.190  0.00  0.00    +0.000 C 
ATOM     10  C   UNL     1       7.740   5.838  19.210  0.00  0.00    +0.000 C 
ATOM     11  C   UNL     1       6.321   5.369  19.524  0.00  0.00    +0.000 C 
ATOM     12  H   UNL     1       2.700   2.078  16.541  0.00  0.00    +0.000 HD
ENDROOT
BRANCH   1  13
ATOM     13  C   UNL     1       3.760   3.715  19.914  0.00  0.00    +0.000 C 
BRANCH  13  14
ATOM     14  C   UNL     1       2.408   4.413  20.016  0.00  0.00    +0.000 C 
ATOM     15  O   UNL     1       1.558   3.901  20.732  0.00  0.00    +0.000 OA
BRANCH  14  20
ATOM     16  C   UNL     1       1.911   9.926  18.237  0.00  0.00    +0.000 C 
ATOM     17  C   UNL     1       1.960   8.499  18.697  0.00  0.00    +0.000 A 
ATOM     18  C   UNL     1       1.738   8.161  20.040  0.00  0.00    +0.000 A 
ATOM     19  C   UNL     1       1.846   6.830  20.459  0.00  0.00    +0.000 A 
ATOM     20  C   UNL     1       2.189   5.813  19.543  0.00  0.00    +0.000 A 
ATOM     21  C   UNL     1       2.370   6.165  18.198  0.00  0.00    +0.000 A 
ATOM     22  C   UNL     1       2.256   7.489  17.776  0.00  0.00    +0.000 A 
ENDBRANCH  14  20
ENDBRANCH  13  14
ENDBRANCH   1  13
TORSDOF 3
ENDMDL
MODEL 5
REMARK VINA RESULT:      -7.2      2.543      5.584
REMARK  Name = 
REMARK  4 active torsions:
REMARK  status: ('A' for Active; 'I' for Inactive)
REMARK    1  A    between atoms: C_1  and  C_2
REMARK    2  A    between atoms: C_5  and  C_6
REMARK    3  A    between atoms: C_6  and  C_8
REMARK    4  A    between atoms: C_8  and  N_9
REMARK                            x       y       z     vdW  Elec       q    Type
REMARK                         _______ _______ _______ _____ _____    ______ ____
ROOT
ATOM      1  N   UNL     1       3.781   5.498  17.835  0.00  0.00    +0.000 N 
ATOM      2  C   UNL     1       3.364   4.665  18.855  0.00  0.00    +0.000 A 
ATOM      3  C   UNL     1       2.573   5.327  19.830  0.00  0.00    +0.000 A 
ATOM      4  S   UNL     1       2.415   6.942  19.395  0.00  0.00    +0.000 S 
ATOM      5  C   UNL     1       3.357   6.778  18.026  0.00  0.00    +0.000 A 
ATOM      6  N   UNL     1       3.662   7.753  17.252  0.00  0.00    +0.000 NA
ATOM      7  C   UNL     1       1.859   4.759  21.031  0.00  0.00    +0.000 C 
ATOM      8  C   UNL     1       1.112   3.493  20.618  0.00  0.00    +0.000 C 
ATOM      9  C   UNL     1       2.022   2.254  20.637  0.00  0.00    +0.000 C 
ATOM     10  C   UNL     1       3.492   2.478  20.239  0.00  0.00    +0.000 C 
ATOM     11  C   UNL     1       3.740   3.184  18.909  0.00  0.00    +0.000 C 
ATOM     12  H   UNL     1       3.331   8.709  17.444  0.00  0.00    +0.000 HD
ENDROOT
BRANCH   1  13
ATOM     13  C   UNL     1       4.646   5.119  16.699  0.00  0.00    +0.000 C 
BRANCH  13  14
ATOM     14  C   UNL     1       6.120   4.973  17.062  0.00  0.00    +0.000 C 
ATOM     15  O   UNL     1       6.689   3.946  16.719  0.00  0.00    +0.000 OA
BRANCH  14  20
ATOM     16  C   UNL     1       9.067   9.564  19.076  0.00  0.00    +0.000 C 
ATOM     17  C   UNL     1       8.364   8.369  18.502  0.00  0.00    +0.000 A 
ATOM     18  C   UNL     1       7.618   8.464  17.318  0.00  0.00    +0.000 A 
ATOM     19  C   UNL     1       6.922   7.352  16.831  0.00  0.00    +0.000 A 
ATOM     20  C   UNL     1       6.950   6.125  17.528  0.00  0.00    +0.000 A 
ATOM     21  C   UNL     1       7.730   6.039  18.688  0.00  0.00    +0.000 A 
ATOM     22  C   UNL     1       8.431   7.143  19.172  0.00  0.00    +0.000 A 
ENDBRANCH  14  20
ENDBRANCH  13  14
ENDBRANCH   1  13
TORSDOF 3
ENDMDL
MODEL 6
REMARK VINA RESULT:      -7.1      2.908      5.958
REMARK  Name = 
REMARK  4 active torsions:
REMARK  status: ('A' for Active; 'I' for Inactive)
REMARK    1  A    between atoms: C_1  and  C_2
REMARK    2  A    between atoms: C_5  and  C_6
REMARK    3  A    between atoms: C_6  and  C_8
REMARK    4  A    between atoms: C_8  and  N_9
REMARK                            x       y       z     vdW  Elec       q    Type
REMARK                         _______ _______ _______ _____ _____    ______ ____
ROOT
ATOM      1  N   UNL     1       5.017   5.515  18.503  0.00  0.00    +0.000 N 
ATOM      2  C   UNL     1       4.094   4.566  18.898  0.00  0.00    +0.000 A 
ATOM      3  C   UNL     1       2.763   4.892  18.527  0.00  0.00    +0.000 A 
ATOM      4  S   UNL     1       2.771   6.363  17.715  0.00  0.00    +0.000 S 
ATOM      5  C   UNL     1       4.421   6.565  17.873  0.00  0.00    +0.000 A 
ATOM      6  N   UNL     1       5.052   7.603  17.463  0.00  0.00    +0.000 NA
ATOM      7  C   UNL     1       1.499   4.085  18.689  0.00  0.00    +0.000 C 
ATOM      8  C   UNL     1       1.760   2.649  18.243  0.00  0.00    +0.000 C 
ATOM      9  C   UNL     1       2.384   1.800  19.362  0.00  0.00    +0.000 C 
ATOM     10  C   UNL     1       3.350   2.527  20.314  0.00  0.00    +0.000 C 
ATOM     11  C   UNL     1       4.493   3.306  19.666  0.00  0.00    +0.000 C 
ATOM     12  H   UNL     1       4.557   8.381  17.006  0.00  0.00    +0.000 HD
ENDROOT
BRANCH   1  13
ATOM     13  C   UNL     1       6.469   5.484  18.773  0.00  0.00    +0.000 C 
BRANCH  13  14
ATOM     14  C   UNL     1       7.280   4.731  17.723  0.00  0.00    +0.000 C 
ATOM     15  O   UNL     1       8.245   4.085  18.108  0.00  0.00    +0.000 OA
BRANCH  14  20
ATOM     16  C   UNL     1       5.572   3.571  12.288  0.00  0.00    +0.000 C 
ATOM     17  C   UNL     1       5.971   3.938  13.686  0.00  0.00    +0.000 A 
ATOM     18  C   UNL     1       6.986   4.875  13.930  0.00  0.00    +0.000 A 
ATOM     19  C   UNL     1       7.383   5.160  15.241  0.00  0.00    +0.000 A 
ATOM     20  C   UNL     1       6.779   4.502  16.334  0.00  0.00    +0.000 A 
ATOM     21  C   UNL     1       5.742   3.597  16.073  0.00  0.00    +0.000 A 
ATOM     22  C   UNL     1       5.338   3.317  14.768  0.00  0.00    +0.000 A 
ENDBRANCH  14  20
ENDBRANCH  13  14
ENDBRANCH   1  13
TORSDOF 3
ENDMDL
MODEL 7
REMARK VINA RESULT:      -7.1      3.152      6.341
REMARK  Name = 
REMARK  4 active torsions:
REMARK  status: ('A' for Active; 'I' for Inactive)
REMARK    1  A    between atoms: C_1  and  C_2
REMARK    2  A    between atoms: C_5  and  C_6
REMARK    3  A    between atoms: C_6  and  C_8
REMARK    4  A    between atoms: C_8  and  N_9
REMARK                            x       y       z     vdW  Elec       q    Type
REMARK                         _______ _______ _______ _____ _____    ______ ____
ROOT
ATOM      1  N   UNL     1       4.830   5.473  18.086  0.00  0.00    +0.000 N 
ATOM      2  C   UNL     1       3.952   4.563  18.645  0.00  0.00    +0.000 A 
ATOM      3  C   UNL     1       2.633   5.069  18.777  0.00  0.00    +0.000 A 
ATOM      4  S   UNL     1       2.595   6.645  18.195  0.00  0.00    +0.000 S 
ATOM      5  C   UNL     1       4.222   6.662  17.823  0.00  0.00    +0.000 A 
ATOM      6  N   UNL     1       4.834   7.689  17.359  0.00  0.00    +0.000 NA
ATOM      7  C   UNL     1       1.382   4.370  19.247  0.00  0.00    +0.000 C 
ATOM      8  C   UNL     1       1.284   3.007  18.566  0.00  0.00    +0.000 C 
ATOM      9  C   UNL     1       2.100   1.932  19.304  0.00  0.00    +0.000 C 
ATOM     10  C   UNL     1       3.408   2.401  19.965  0.00  0.00    +0.000 C 
ATOM     11  C   UNL     1       4.388   3.163  19.077  0.00  0.00    +0.000 C 
ATOM     12  H   UNL     1       4.336   8.574  17.190  0.00  0.00    +0.000 HD
ENDROOT
BRANCH   1  13
ATOM     13  C   UNL     1       6.274   5.261  17.856  0.00  0.00    +0.000 C 
BRANCH  13  14
ATOM     14  C   UNL     1       6.768   5.769  16.505  0.00  0.00    +0.000 C 
ATOM     15  O   UNL     1       7.636   6.630  16.506  0.00  0.00    +0.000 OA
BRANCH  14  20
ATOM     16  C   UNL     1       5.794   2.726  11.647  0.00  0.00    +0.000 C 
ATOM     17  C   UNL     1       6.019   3.576  12.862  0.00  0.00    +0.000 A 
ATOM     18  C   UNL     1       7.146   4.404  12.971  0.00  0.00    +0.000 A 
ATOM     19  C   UNL     1       7.367   5.145  14.137  0.00  0.00    +0.000 A 
ATOM     20  C   UNL     1       6.470   5.060  15.223  0.00  0.00    +0.000 A 
ATOM     21  C   UNL     1       5.331   4.257  15.082  0.00  0.00    +0.000 A 
ATOM     22  C   UNL     1       5.103   3.524  13.918  0.00  0.00    +0.000 A 
ENDBRANCH  14  20
ENDBRANCH  13  14
ENDBRANCH   1  13
TORSDOF 3
ENDMDL
MODEL 8
REMARK VINA RESULT:      -7.0      2.129      2.985
REMARK  Name = 
REMARK  4 active torsions:
REMARK  status: ('A' for Active; 'I' for Inactive)
REMARK    1  A    between atoms: C_1  and  C_2
REMARK    2  A    between atoms: C_5  and  C_6
REMARK    3  A    between atoms: C_6  and  C_8
REMARK    4  A    between atoms: C_8  and  N_9
REMARK                            x       y       z     vdW  Elec       q    Type
REMARK                         _______ _______ _______ _____ _____    ______ ____
ROOT
ATOM      1  N   UNL     1       3.233   5.271  18.639  0.00  0.00    +0.000 N 
ATOM      2  C   UNL     1       4.371   5.148  17.866  0.00  0.00    +0.000 A 
ATOM      3  C   UNL     1       4.349   4.014  17.014  0.00  0.00    +0.000 A 
ATOM      4  S   UNL     1       2.905   3.187  17.249  0.00  0.00    +0.000 S 
ATOM      5  C   UNL     1       2.364   4.245  18.422  0.00  0.00    +0.000 A 
ATOM      6  N   UNL     1       1.262   4.096  19.060  0.00  0.00    +0.000 NA
ATOM      7  C   UNL     1       5.344   3.584  15.965  0.00  0.00    +0.000 C 
ATOM      8  C   UNL     1       5.724   4.791  15.111  0.00  0.00    +0.000 C 
ATOM      9  C   UNL     1       6.842   5.626  15.756  0.00  0.00    +0.000 C 
ATOM     10  C   UNL     1       6.836   5.707  17.292  0.00  0.00    +0.000 C 
ATOM     11  C   UNL     1       5.528   6.144  17.949  0.00  0.00    +0.000 C 
ATOM     12  H   UNL     1       0.643   3.295  18.872  0.00  0.00    +0.000 HD
ENDROOT
BRANCH   1  13
ATOM     13  C   UNL     1       2.973   6.318  19.649  0.00  0.00    +0.000 C 
BRANCH  13  14
ATOM     14  C   UNL     1       2.290   7.562  19.090  0.00  0.00    +0.000 C 
ATOM     15  O   UNL     1       2.232   7.679  17.874  0.00  0.00    +0.000 OA
BRANCH  14  20
ATOM     16  C   UNL     1      -0.712  11.234  22.455  0.00  0.00    +0.000 C 
ATOM     17  C   UNL     1      -0.002  10.240  21.584  0.00  0.00    +0.000 A 
ATOM     18  C   UNL     1       0.514   9.048  22.113  0.00  0.00    +0.000 A 
ATOM     19  C   UNL     1       1.224   8.162  21.294  0.00  0.00    +0.000 A 
ATOM     20  C   UNL     1       1.441   8.459  19.932  0.00  0.00    +0.000 A 
ATOM     21  C   UNL     1       0.886   9.636  19.413  0.00  0.00    +0.000 A 
ATOM     22  C   UNL     1       0.172  10.517  20.224  0.00  0.00    +0.000 A 
ENDBRANCH  14  20
ENDBRANCH  13  14
ENDBRANCH   1  13
TORSDOF 3
ENDMDL
MODEL 9
REMARK VINA RESULT:      -7.0      2.159      2.908
REMARK  Name = 
REMARK  4 active torsions:
REMARK  status: ('A' for Active; 'I' for Inactive)
REMARK    1  A    between atoms: C_1  and  C_2
REMARK    2  A    between atoms: C_5  and  C_6
REMARK    3  A    between atoms: C_6  and  C_8
REMARK    4  A    between atoms: C_8  and  N_9
REMARK                            x       y       z     vdW  Elec       q    Type
REMARK                         _______ _______ _______ _____ _____    ______ ____
ROOT
ATOM      1  N   UNL     1       3.133   5.245  18.728  0.00  0.00    +0.000 N 
ATOM      2  C   UNL     1       4.275   5.157  17.956  0.00  0.00    +0.000 A 
ATOM      3  C   UNL     1       4.272   4.042  17.078  0.00  0.00    +0.000 A 
ATOM      4  S   UNL     1       2.839   3.189  17.289  0.00  0.00    +0.000 S 
ATOM      5  C   UNL     1       2.280   4.212  18.484  0.00  0.00    +0.000 A 
ATOM      6  N   UNL     1       1.177   4.033  19.114  0.00  0.00    +0.000 NA
ATOM      7  C   UNL     1       5.276   3.651  16.023  0.00  0.00    +0.000 C 
ATOM      8  C   UNL     1       5.642   4.882  15.198  0.00  0.00    +0.000 C 
ATOM      9  C   UNL     1       6.746   5.718  15.866  0.00  0.00    +0.000 C 
ATOM     10  C   UNL     1       6.733   5.764  17.404  0.00  0.00    +0.000 C 
ATOM     11  C   UNL     1       5.418   6.167  18.066  0.00  0.00    +0.000 C 
ATOM     12  H   UNL     1       0.570   3.228  18.906  0.00  0.00    +0.000 HD
ENDROOT
BRANCH   1  13
ATOM     13  C   UNL     1       2.855   6.265  19.760  0.00  0.00    +0.000 C 
BRANCH  13  14
ATOM     14  C   UNL     1       2.227   7.544  19.215  0.00  0.00    +0.000 C 
ATOM     15  O   UNL     1       2.115   7.648  18.002  0.00  0.00    +0.000 OA
BRANCH  14  20
ATOM     16  C   UNL     1      -0.970  11.090  22.534  0.00  0.00    +0.000 C 
ATOM     17  C   UNL     1      -0.087  10.230  21.680  0.00  0.00    +0.000 A 
ATOM     18  C   UNL     1       0.070  10.485  20.309  0.00  0.00    +0.000 A 
ATOM     19  C   UNL     1       0.852   9.635  19.519  0.00  0.00    +0.000 A 
ATOM     20  C   UNL     1       1.482   8.506  20.084  0.00  0.00    +0.000 A 
ATOM     21  C   UNL     1       1.344   8.288  21.461  0.00  0.00    +0.000 A 
ATOM     22  C   UNL     1       0.572   9.137  22.253  0.00  0.00    +0.000 A 
ENDBRANCH  14  20
ENDBRANCH  13  14
ENDBRANCH   1  13
TORSDOF 3
ENDMDL
