MODEL 1
REMARK VINA RESULT:      -8.8      0.000      0.000
REMARK  Name = 
REMARK  5 active torsions:
REMARK  status: ('A' for Active; 'I' for Inactive)
REMARK    1  A    between atoms: C_1  and  O_2
REMARK    2  A    between atoms: O_2  and  C_3
REMARK    3  A    between atoms: C_6  and  C_7
REMARK    4  A    between atoms: C_10  and  C_11
REMARK    5  A    between atoms: N_17  and  C_18
REMARK                            x       y       z     vdW  Elec       q    Type
REMARK                         _______ _______ _______ _____ _____    ______ ____
ROOT
ATOM      1  C   UNL     1       3.925   5.865  17.785  0.00  0.00    +0.000 A 
ATOM      2  C   UNL     1       2.944   6.749  17.542  0.00  0.00    +0.000 A 
ATOM      3  C   UNL     1       2.274   7.352  18.690  0.00  0.00    +0.000 A 
ATOM      4  C   UNL     1       1.875   8.673  18.755  0.00  0.00    +0.000 A 
ATOM      5  C   UNL     1       2.398   9.692  17.788  0.00  0.00    +0.000 C 
ATOM      6  N   UNL     1       1.235   9.157  19.839  0.00  0.00    +0.000 NA
ATOM      7  C   UNL     1       1.022   8.326  20.867  0.00  0.00    +0.000 A 
ATOM      8  N   UNL     1       0.394   8.847  21.977  0.00  0.00    +0.000 N 
ATOM      9  N   UNL     1       1.462   7.069  20.933  0.00  0.00    +0.000 NA
ATOM     10  C   UNL     1       2.125   6.614  19.858  0.00  0.00    +0.000 A 
ATOM     11  N   UNL     1       2.958   5.445  20.005  0.00  0.00    +0.000 N 
ATOM     12  C   UNL     1       4.135   5.541  19.240  0.00  0.00    +0.000 A 
ATOM     13  O   UNL     1       5.256   5.376  19.709  0.00  0.00    +0.000 OA
ATOM     14  H   UNL     1       0.541   9.849  21.992  0.00  0.00    +0.000 HD
ATOM     15  H   UNL     1       0.694   8.337  22.797  0.00  0.00    +0.000 HD
ENDROOT
BRANCH   1  19
ATOM     16  C   UNL     1       6.319   4.628  14.587  0.00  0.00    +0.000 A 
ATOM     17  N   UNL     1       6.039   5.930  14.690  0.00  0.00    +0.000 NA
ATOM     18  C   UNL     1       5.310   6.301  15.764  0.00  0.00    +0.000 A 
ATOM     19  C   UNL     1       4.826   5.424  16.717  0.00  0.00    +0.000 A 
ATOM     20  C   UNL     1       5.206   4.107  16.508  0.00  0.00    +0.000 A 
ATOM     21  N   UNL     1       5.951   3.680  15.463  0.00  0.00    +0.000 NA
BRANCH  16  23
ATOM     22  C   UNL     1       6.107   3.528  12.546  0.00  0.00    +0.000 C 
ATOM     23  O   UNL     1       6.942   4.280  13.411  0.00  0.00    +0.000 OA
ENDBRANCH  16  23
ENDBRANCH   1  19
BRANCH  11  24
ATOM     24  C   UNL     1       2.236   4.166  19.850  0.00  0.00    +0.000 C 
ATOM     25  C   UNL     1       3.162   2.931  19.771  0.00  0.00    +0.000 C 
ATOM     26  C   UNL     1       3.132   2.249  21.133  0.00  0.00    +0.000 C 
ATOM     27  C   UNL     1       2.092   2.978  21.964  0.00  0.00    +0.000 C 
ATOM     28  C   UNL     1       1.272   3.799  20.982  0.00  0.00    +0.000 C 
ENDBRANCH  11  24
TORSDOF 3
ENDMDL
MODEL 2
REMARK VINA RESULT:      -8.5      0.870      1.082
REMARK  Name = 
REMARK  5 active torsions:
REMARK  status: ('A' for Active; 'I' for Inactive)
REMARK    1  A    between atoms: C_1  and  O_2
REMARK    2  A    between atoms: O_2  and  C_3
REMARK    3  A    between atoms: C_6  and  C_7
REMARK    4  A    between atoms: C_10  and  C_11
REMARK    5  A    between atoms: N_17  and  C_18
REMARK                            x       y       z     vdW  Elec       q    Type
REMARK                         _______ _______ _______ _____ _____    ______ ____
ROOT
ATOM      1  C   UNL     1       4.429   5.623  17.636  0.00  0.00    +0.000 A 
ATOM      2  C   UNL     1       3.351   6.394  17.422  0.00  0.00    +0.000 A 
ATOM      3  C   UNL     1       2.641   6.908  18.590  0.00  0.00    +0.000 A 
ATOM      4  C   UNL     1       2.098   8.175  18.677  0.00  0.00    +0.000 A 
ATOM      5  C   UNL     1       2.485   9.256  17.712  0.00  0.00    +0.000 C 
ATOM      6  N   UNL     1       1.429   8.574  19.778  0.00  0.00    +0.000 NA
ATOM      7  C   UNL     1       1.331   7.715  20.801  0.00  0.00    +0.000 A 
ATOM      8  N   UNL     1       0.671   8.152  21.928  0.00  0.00    +0.000 N 
ATOM      9  N   UNL     1       1.909   6.514  20.843  0.00  0.00    +0.000 NA
ATOM     10  C   UNL     1       2.597   6.146  19.751  0.00  0.00    +0.000 A 
ATOM     11  N   UNL     1       3.558   5.076  19.869  0.00  0.00    +0.000 N 
ATOM     12  C   UNL     1       4.702   5.310  19.083  0.00  0.00    +0.000 A 
ATOM     13  O   UNL     1       5.844   5.266  19.530  0.00  0.00    +0.000 OA
ATOM     14  H   UNL     1       0.705   9.164  21.952  0.00  0.00    +0.000 HD
ATOM     15  H   UNL     1       1.041   7.670  22.736  0.00  0.00    +0.000 HD
ENDROOT
BRANCH   1  19
ATOM     16  C   UNL     1       7.008   4.893  14.427  0.00  0.00    +0.000 A 
ATOM     17  N   UNL     1       7.403   5.765  15.359  0.00  0.00    +0.000 NA
ATOM     18  C   UNL     1       6.570   5.935  16.407  0.00  0.00    +0.000 A 
ATOM     19  C   UNL     1       5.352   5.295  16.546  0.00  0.00    +0.000 A 
ATOM     20  C   UNL     1       5.072   4.400  15.525  0.00  0.00    +0.000 A 
ATOM     21  N   UNL     1       5.876   4.174  14.462  0.00  0.00    +0.000 NA
BRANCH  16  23
ATOM     22  C   UNL     1       7.190   4.254  12.195  0.00  0.00    +0.000 C 
ATOM     23  O   UNL     1       7.818   4.855  13.316  0.00  0.00    +0.000 OA
ENDBRANCH  16  23
ENDBRANCH   1  19
BRANCH  11  24
ATOM     24  C   UNL     1       2.980   3.726  19.712  0.00  0.00    +0.000 C 
ATOM     25  C   UNL     1       2.871   2.936  21.035  0.00  0.00    +0.000 C 
ATOM     26  C   UNL     1       1.417   2.999  21.487  0.00  0.00    +0.000 C 
ATOM     27  C   UNL     1       0.644   3.689  20.377  0.00  0.00    +0.000 C 
ATOM     28  C   UNL     1       1.554   3.668  19.159  0.00  0.00    +0.000 C 
ENDBRANCH  11  24
TORSDOF 3
ENDMDL
MODEL 3
REMARK VINA RESULT:      -8.4      0.507      1.044
REMARK  Name = 
REMARK  5 active torsions:
REMARK  status: ('A' for Active; 'I' for Inactive)
REMARK    1  A    between atoms: C_1  and  O_2
REMARK    2  A    between atoms: O_2  and  C_3
REMARK    3  A    between atoms: C_6  and  C_7
REMARK    4  A    between atoms: C_10  and  C_11
REMARK    5  A    between atoms: N_17  and  C_18
REMARK                            x       y       z     vdW  Elec       q    Type
REMARK                         _______ _______ _______ _____ _____    ______ ____
ROOT
ATOM      1  C   UNL     1       3.551   6.081  17.902  0.00  0.00    +0.000 A 
ATOM      2  C   UNL     1       2.593   7.004  17.724  0.00  0.00    +0.000 A 
ATOM      3  C   UNL     1       1.997   7.603  18.914  0.00  0.00    +0.000 A 
ATOM      4  C   UNL     1       1.648   8.935  19.026  0.00  0.00    +0.000 A 
ATOM      5  C   UNL     1       2.164   9.958  18.059  0.00  0.00    +0.000 C 
ATOM      6  N   UNL     1       1.075   9.415  20.148  0.00  0.00    +0.000 NA
ATOM      7  C   UNL     1       0.878   8.568  21.166  0.00  0.00    +0.000 A 
ATOM      8  N   UNL     1       0.319   9.084  22.314  0.00  0.00    +0.000 N 
ATOM      9  N   UNL     1       1.275   7.295  21.184  0.00  0.00    +0.000 NA
ATOM     10  C   UNL     1       1.873   6.843  20.070  0.00  0.00    +0.000 A 
ATOM     11  N   UNL     1       2.669   5.642  20.153  0.00  0.00    +0.000 N 
ATOM     12  C   UNL     1       3.814   5.715  19.338  0.00  0.00    +0.000 A 
ATOM     13  O   UNL     1       4.948   5.500  19.753  0.00  0.00    +0.000 OA
ATOM     14  H   UNL     1       0.503  10.079  22.345  0.00  0.00    +0.000 HD
ATOM     15  H   UNL     1       0.636   8.544  23.108  0.00  0.00    +0.000 HD
ENDROOT
BRANCH   1  19
ATOM     16  C   UNL     1       6.095   4.731  14.870  0.00  0.00    +0.000 A 
ATOM     17  N   UNL     1       5.380   3.820  15.537  0.00  0.00    +0.000 NA
ATOM     18  C   UNL     1       4.530   4.296  16.470  0.00  0.00    +0.000 A 
ATOM     19  C   UNL     1       4.388   5.635  16.784  0.00  0.00    +0.000 A 
ATOM     20  C   UNL     1       5.167   6.476  16.005  0.00  0.00    +0.000 A 
ATOM     21  N   UNL     1       6.021   6.059  15.043  0.00  0.00    +0.000 NA
BRANCH  16  23
ATOM     22  C   UNL     1       6.492   3.699  12.821  0.00  0.00    +0.000 C 
ATOM     23  O   UNL     1       7.043   4.194  14.030  0.00  0.00    +0.000 OA
ENDBRANCH  16  23
ENDBRANCH   1  19
BRANCH  11  24
ATOM     24  C   UNL     1       1.896   4.394  20.002  0.00  0.00    +0.000 C 
ATOM     25  C   UNL     1       2.627   3.300  19.191  0.00  0.00    +0.000 C 
ATOM     26  C   UNL     1       3.183   2.288  20.185  0.00  0.00    +0.000 C 
ATOM     27  C   UNL     1       2.666   2.691  21.555  0.00  0.00    +0.000 C 
ATOM     28  C   UNL     1       1.530   3.670  21.302  0.00  0.00    +0.000 C 
ENDBRANCH  11  24
TORSDOF 3
ENDMDL
MODEL 4
REMARK VINA RESULT:      -8.0      0.716      1.347
REMARK  Name = 
REMARK  5 active torsions:
REMARK  status: ('A' for Active; 'I' for Inactive)
REMARK    1  A    between atoms: C_1  and  O_2
REMARK    2  A    between atoms: O_2  and  C_3
REMARK    3  A    between atoms: C_6  and  C_7
REMARK    4  A    between atoms: C_10  and  C_11
REMARK    5  A    between atoms: N_17  and  C_18
REMARK                            x       y       z     vdW  Elec       q    Type
REMARK                         _______ _______ _______ _____ _____    ______ ____
ROOT
ATOM      1  C   UNL     1       4.101   5.673  17.798  0.00  0.00    +0.000 A 
ATOM      2  C   UNL     1       3.025   6.450  17.593  0.00  0.00    +0.000 A 
ATOM      3  C   UNL     1       2.393   7.057  18.760  0.00  0.00    +0.000 A 
ATOM      4  C   UNL     1       1.876   8.337  18.789  0.00  0.00    +0.000 A 
ATOM      5  C   UNL     1       2.224   9.341  17.730  0.00  0.00    +0.000 C 
ATOM      6  N   UNL     1       1.280   8.825  19.896  0.00  0.00    +0.000 NA
ATOM      7  C   UNL     1       1.227   8.041  20.980  0.00  0.00    +0.000 A 
ATOM      8  N   UNL     1       0.641   8.567  22.109  0.00  0.00    +0.000 N 
ATOM      9  N   UNL     1       1.788   6.834  21.074  0.00  0.00    +0.000 NA
ATOM     10  C   UNL     1       2.405   6.378  19.972  0.00  0.00    +0.000 A 
ATOM     11  N   UNL     1       3.353   5.300  20.109  0.00  0.00    +0.000 N 
ATOM     12  C   UNL     1       4.453   5.456  19.245  0.00  0.00    +0.000 A 
ATOM     13  O   UNL     1       5.618   5.420  19.628  0.00  0.00    +0.000 OA
ATOM     14  H   UNL     1       0.693   9.578  22.061  0.00  0.00    +0.000 HD
ATOM     15  H   UNL     1       1.050   8.135  22.926  0.00  0.00    +0.000 HD
ENDROOT
BRANCH   1  19
ATOM     16  C   UNL     1       6.350   4.494  14.476  0.00  0.00    +0.000 A 
ATOM     17  N   UNL     1       6.054   5.791  14.601  0.00  0.00    +0.000 NA
ATOM     18  C   UNL     1       5.375   6.143  15.712  0.00  0.00    +0.000 A 
ATOM     19  C   UNL     1       4.954   5.253  16.683  0.00  0.00    +0.000 A 
ATOM     20  C   UNL     1       5.345   3.944  16.447  0.00  0.00    +0.000 A 
ATOM     21  N   UNL     1       6.043   3.535  15.363  0.00  0.00    +0.000 NA
BRANCH  16  23
ATOM     22  C   UNL     1       6.061   3.383  12.449  0.00  0.00    +0.000 C 
ATOM     23  O   UNL     1       6.918   4.163  13.267  0.00  0.00    +0.000 OA
ENDBRANCH  16  23
ENDBRANCH   1  19
BRANCH  11  24
ATOM     24  C   UNL     1       2.746   3.954  20.081  0.00  0.00    +0.000 C 
ATOM     25  C   UNL     1       1.210   3.965  19.905  0.00  0.00    +0.000 C 
ATOM     26  C   UNL     1       0.914   3.622  18.451  0.00  0.00    +0.000 C 
ATOM     27  C   UNL     1       2.242   3.267  17.806  0.00  0.00    +0.000 C 
ATOM     28  C   UNL     1       3.213   3.032  18.951  0.00  0.00    +0.000 C 
ENDBRANCH  11  24
TORSDOF 3
ENDMDL
MODEL 5
REMARK VINA RESULT:      -7.6      2.548      6.683
REMARK  Name = 
REMARK  5 active torsions:
REMARK  status: ('A' for Active; 'I' for Inactive)
REMARK    1  A    between atoms: C_1  and  O_2
REMARK    2  A    between atoms: O_2  and  C_3
REMARK    3  A    between atoms: C_6  and  C_7
REMARK    4  A    between atoms: C_10  and  C_11
REMARK    5  A    between atoms: N_17  and  C_18
REMARK                            x       y       z     vdW  Elec       q    Type
REMARK                         _______ _______ _______ _____ _____    ______ ____
ROOT
ATOM      1  C   UNL     1       2.705   6.449  18.463  0.00  0.00    +0.000 A 
ATOM      2  C   UNL     1       1.848   5.422  18.350  0.00  0.00    +0.000 A 
ATOM      3  C   UNL     1       2.395   4.070  18.428  0.00  0.00    +0.000 A 
ATOM      4  C   UNL     1       1.775   3.014  19.067  0.00  0.00    +0.000 A 
ATOM      5  C   UNL     1       0.650   3.241  20.032  0.00  0.00    +0.000 C 
ATOM      6  N   UNL     1       2.325   1.783  19.075  0.00  0.00    +0.000 NA
ATOM      7  C   UNL     1       3.508   1.618  18.469  0.00  0.00    +0.000 A 
ATOM      8  N   UNL     1       4.068   0.361  18.515  0.00  0.00    +0.000 N 
ATOM      9  N   UNL     1       4.224   2.599  17.918  0.00  0.00    +0.000 NA
ATOM     10  C   UNL     1       3.674   3.824  17.947  0.00  0.00    +0.000 A 
ATOM     11  N   UNL     1       4.530   4.968  17.745  0.00  0.00    +0.000 N 
ATOM     12  C   UNL     1       4.154   6.053  18.559  0.00  0.00    +0.000 A 
ATOM     13  O   UNL     1       4.937   6.643  19.296  0.00  0.00    +0.000 OA
ATOM     14  H   UNL     1       3.692  -0.133  19.316  0.00  0.00    +0.000 HD
ATOM     15  H   UNL     1       5.074   0.445  18.471  0.00  0.00    +0.000 HD
ENDROOT
BRANCH   1  19
ATOM     16  C   UNL     1       1.108  10.271  19.040  0.00  0.00    +0.000 A 
ATOM     17  N   UNL     1       1.050   9.409  20.060  0.00  0.00    +0.000 NA
ATOM     18  C   UNL     1       1.624   8.205  19.856  0.00  0.00    +0.000 A 
ATOM     19  C   UNL     1       2.222   7.817  18.672  0.00  0.00    +0.000 A 
ATOM     20  C   UNL     1       2.237   8.809  17.703  0.00  0.00    +0.000 A 
ATOM     21  N   UNL     1       1.697  10.039  17.857  0.00  0.00    +0.000 NA
BRANCH  16  23
ATOM     22  C   UNL     1      -0.996  11.268  19.006  0.00  0.00    +0.000 C 
ATOM     23  O   UNL     1       0.393  11.429  19.243  0.00  0.00    +0.000 OA
ENDBRANCH  16  23
ENDBRANCH   1  19
BRANCH  11  24
ATOM     24  C   UNL     1       4.746   5.318  16.327  0.00  0.00    +0.000 C 
ATOM     25  C   UNL     1       5.934   6.279  16.094  0.00  0.00    +0.000 C 
ATOM     26  C   UNL     1       7.102   5.445  15.584  0.00  0.00    +0.000 C 
ATOM     27  C   UNL     1       6.576   4.036  15.375  0.00  0.00    +0.000 C 
ATOM     28  C   UNL     1       5.060   4.150  15.388  0.00  0.00    +0.000 C 
ENDBRANCH  11  24
TORSDOF 3
ENDMDL
MODEL 6
REMARK VINA RESULT:      -7.6      2.485      6.540
REMARK  Name = 
REMARK  5 active torsions:
REMARK  status: ('A' for Active; 'I' for Inactive)
REMARK    1  A    between atoms: C_1  and  O_2
REMARK    2  A    between atoms: O_2  and  C_3
REMARK    3  A    between atoms: C_6  and  C_7
REMARK    4  A    between atoms: C_10  and  C_11
REMARK    5  A    between atoms: N_17  and  C_18
REMARK                            x       y       z     vdW  Elec       q    Type
REMARK                         _______ _______ _______ _____ _____    ______ ____
ROOT
ATOM      1  C   UNL     1       2.637   6.441  18.365  0.00  0.00    +0.000 A 
ATOM      2  C   UNL     1       1.795   5.399  18.268  0.00  0.00    +0.000 A 
ATOM      3  C   UNL     1       2.358   4.058  18.388  0.00  0.00    +0.000 A 
ATOM      4  C   UNL     1       1.744   3.011  19.046  0.00  0.00    +0.000 A 
ATOM      5  C   UNL     1       0.603   3.246  19.990  0.00  0.00    +0.000 C 
ATOM      6  N   UNL     1       2.310   1.788  19.094  0.00  0.00    +0.000 NA
ATOM      7  C   UNL     1       3.503   1.623  18.508  0.00  0.00    +0.000 A 
ATOM      8  N   UNL     1       4.079   0.375  18.594  0.00  0.00    +0.000 N 
ATOM      9  N   UNL     1       4.213   2.599  17.940  0.00  0.00    +0.000 NA
ATOM     10  C   UNL     1       3.647   3.816  17.930  0.00  0.00    +0.000 A 
ATOM     11  N   UNL     1       4.491   4.966  17.710  0.00  0.00    +0.000 N 
ATOM     12  C   UNL     1       4.090   6.067  18.490  0.00  0.00    +0.000 A 
ATOM     13  O   UNL     1       4.855   6.686  19.222  0.00  0.00    +0.000 OA
ATOM     14  H   UNL     1       3.699  -0.103  19.402  0.00  0.00    +0.000 HD
ATOM     15  H   UNL     1       5.085   0.471  18.560  0.00  0.00    +0.000 HD
ENDROOT
BRANCH   1  19
ATOM     16  C   UNL     1       1.420  10.409  18.872  0.00  0.00    +0.000 A 
ATOM     17  N   UNL     1       1.972  10.070  17.703  0.00  0.00    +0.000 NA
ATOM     18  C   UNL     1       2.302   8.770  17.554  0.00  0.00    +0.000 A 
ATOM     19  C   UNL     1       2.133   7.807  18.532  0.00  0.00    +0.000 A 
ATOM     20  C   UNL     1       1.529   8.282  19.685  0.00  0.00    +0.000 A 
ATOM     21  N   UNL     1       1.158   9.568  19.883  0.00  0.00    +0.000 NA
BRANCH  16  23
ATOM     22  C   UNL     1       2.227  12.539  18.389  0.00  0.00    +0.000 C 
ATOM     23  O   UNL     1       1.228  11.763  19.029  0.00  0.00    +0.000 OA
ENDBRANCH  16  23
ENDBRANCH   1  19
BRANCH  11  24
ATOM     24  C   UNL     1       4.721   5.283  16.287  0.00  0.00    +0.000 C 
ATOM     25  C   UNL     1       5.852   6.310  16.049  0.00  0.00    +0.000 C 
ATOM     26  C   UNL     1       7.084   5.536  15.596  0.00  0.00    +0.000 C 
ATOM     27  C   UNL     1       6.653   4.090  15.423  0.00  0.00    +0.000 C 
ATOM     28  C   UNL     1       5.133   4.107  15.396  0.00  0.00    +0.000 C 
ENDBRANCH  11  24
TORSDOF 3
ENDMDL
MODEL 7
REMARK VINA RESULT:      -7.1      0.911      1.479
REMARK  Name = 
REMARK  5 active torsions:
REMARK  status: ('A' for Active; 'I' for Inactive)
REMARK    1  A    between atoms: C_1  and  O_2
REMARK    2  A    between atoms: O_2  and  C_3
REMARK    3  A    between atoms: C_6  and  C_7
REMARK    4  A    between atoms: C_10  and  C_11
REMARK    5  A    between atoms: N_17  and  C_18
REMARK                            x       y       z     vdW  Elec       q    Type
REMARK                         _______ _______ _______ _____ _____    ______ ____
ROOT
ATOM      1  C   UNL     1       4.343   5.812  17.548  0.00  0.00    +0.000 A 
ATOM      2  C   UNL     1       3.207   6.513  17.410  0.00  0.00    +0.000 A 
ATOM      3  C   UNL     1       2.580   7.036  18.620  0.00  0.00    +0.000 A 
ATOM      4  C   UNL     1       1.974   8.274  18.711  0.00  0.00    +0.000 A 
ATOM      5  C   UNL     1       2.204   9.332  17.674  0.00  0.00    +0.000 C 
ATOM      6  N   UNL     1       1.390   8.682  19.856  0.00  0.00    +0.000 NA
ATOM      7  C   UNL     1       1.439   7.865  20.915  0.00  0.00    +0.000 A 
ATOM      8  N   UNL     1       0.863   8.312  22.083  0.00  0.00    +0.000 N 
ATOM      9  N   UNL     1       2.089   6.700  20.947  0.00  0.00    +0.000 NA
ATOM     10  C   UNL     1       2.691   6.324  19.808  0.00  0.00    +0.000 A 
ATOM     11  N   UNL     1       3.720   5.315  19.873  0.00  0.00    +0.000 N 
ATOM     12  C   UNL     1       4.770   5.578  18.972  0.00  0.00    +0.000 A 
ATOM     13  O   UNL     1       5.949   5.617  19.308  0.00  0.00    +0.000 OA
ATOM     14  H   UNL     1       0.840   9.325  22.066  0.00  0.00    +0.000 HD
ATOM     15  H   UNL     1       1.336   7.887  22.869  0.00  0.00    +0.000 HD
ENDROOT
BRANCH   1  19
ATOM     16  C   UNL     1       6.756   4.678  14.326  0.00  0.00    +0.000 A 
ATOM     17  N   UNL     1       5.500   4.221  14.357  0.00  0.00    +0.000 NA
ATOM     18  C   UNL     1       4.735   4.651  15.381  0.00  0.00    +0.000 A 
ATOM     19  C   UNL     1       5.178   5.489  16.387  0.00  0.00    +0.000 A 
ATOM     20  C   UNL     1       6.489   5.910  16.225  0.00  0.00    +0.000 A 
ATOM     21  N   UNL     1       7.297   5.530  15.210  0.00  0.00    +0.000 NA
BRANCH  16  23
ATOM     22  C   UNL     1       6.779   3.628  12.248  0.00  0.00    +0.000 C 
ATOM     23  O   UNL     1       7.536   4.107  13.347  0.00  0.00    +0.000 OA
ENDBRANCH  16  23
ENDBRANCH   1  19
BRANCH  11  24
ATOM     24  C   UNL     1       3.211   3.930  19.823  0.00  0.00    +0.000 C 
ATOM     25  C   UNL     1       2.068   3.648  20.825  0.00  0.00    +0.000 C 
ATOM     26  C   UNL     1       0.761   3.663  20.042  0.00  0.00    +0.000 C 
ATOM     27  C   UNL     1       1.130   3.804  18.576  0.00  0.00    +0.000 C 
ATOM     28  C   UNL     1       2.613   3.483  18.486  0.00  0.00    +0.000 C 
ENDBRANCH  11  24
TORSDOF 3
ENDMDL
MODEL 8
REMARK VINA RESULT:      -6.9      2.491      6.514
REMARK  Name = 
REMARK  5 active torsions:
REMARK  status: ('A' for Active; 'I' for Inactive)
REMARK    1  A    between atoms: C_1  and  O_2
REMARK    2  A    between atoms: O_2  and  C_3
REMARK    3  A    between atoms: C_6  and  C_7
REMARK    4  A    between atoms: C_10  and  C_11
REMARK    5  A    between atoms: N_17  and  C_18
REMARK                            x       y       z     vdW  Elec       q    Type
REMARK                         _______ _______ _______ _____ _____    ______ ____
ROOT
ATOM      1  C   UNL     1       2.954   6.331  18.792  0.00  0.00    +0.000 A 
ATOM      2  C   UNL     1       2.298   5.254  19.251  0.00  0.00    +0.000 A 
ATOM      3  C   UNL     1       3.080   4.058  19.549  0.00  0.00    +0.000 A 
ATOM      4  C   UNL     1       2.850   3.224  20.626  0.00  0.00    +0.000 A 
ATOM      5  C   UNL     1       1.993   3.658  21.777  0.00  0.00    +0.000 C 
ATOM      6  N   UNL     1       3.596   2.118  20.825  0.00  0.00    +0.000 NA
ATOM      7  C   UNL     1       4.590   1.866  19.963  0.00  0.00    +0.000 A 
ATOM      8  N   UNL     1       5.359   0.749  20.201  0.00  0.00    +0.000 N 
ATOM      9  N   UNL     1       4.948   2.667  18.959  0.00  0.00    +0.000 NA
ATOM     10  C   UNL     1       4.213   3.779  18.795  0.00  0.00    +0.000 A 
ATOM     11  N   UNL     1       4.766   4.862  18.018  0.00  0.00    +0.000 N 
ATOM     12  C   UNL     1       4.425   6.118  18.553  0.00  0.00    +0.000 A 
ATOM     13  O   UNL     1       5.254   6.985  18.811  0.00  0.00    +0.000 OA
ATOM     14  H   UNL     1       5.301   0.518  21.185  0.00  0.00    +0.000 HD
ATOM     15  H   UNL     1       6.287   0.901  19.829  0.00  0.00    +0.000 HD
ENDROOT
BRANCH   1  19
ATOM     16  C   UNL     1       1.309  10.172  18.640  0.00  0.00    +0.000 A 
ATOM     17  N   UNL     1       1.946   9.723  17.555  0.00  0.00    +0.000 NA
ATOM     18  C   UNL     1       2.416   8.460  17.620  0.00  0.00    +0.000 A 
ATOM     19  C   UNL     1       2.304   7.643  18.730  0.00  0.00    +0.000 A 
ATOM     20  C   UNL     1       1.601   8.219  19.778  0.00  0.00    +0.000 A 
ATOM     21  N   UNL     1       1.090   9.470  19.762  0.00  0.00    +0.000 NA
BRANCH  16  23
ATOM     22  C   UNL     1      -0.389  11.744  18.911  0.00  0.00    +0.000 C 
ATOM     23  O   UNL     1       0.970  11.504  18.579  0.00  0.00    +0.000 OA
ENDBRANCH  16  23
ENDBRANCH   1  19
BRANCH  11  24
ATOM     24  C   UNL     1       4.537   4.740  16.564  0.00  0.00    +0.000 C 
ATOM     25  C   UNL     1       5.138   5.899  15.737  0.00  0.00    +0.000 C 
ATOM     26  C   UNL     1       6.428   5.391  15.107  0.00  0.00    +0.000 C 
ATOM     27  C   UNL     1       6.520   3.910  15.431  0.00  0.00    +0.000 C 
ATOM     28  C   UNL     1       5.132   3.498  15.894  0.00  0.00    +0.000 C 
ENDBRANCH  11  24
TORSDOF 3
ENDMDL
MODEL 9
REMARK VINA RESULT:      -6.9      2.266      6.601
REMARK  Name = 
REMARK  5 active torsions:
REMARK  status: ('A' for Active; 'I' for Inactive)
REMARK    1  A    between atoms: C_1  and  O_2
REMARK    2  A    between atoms: O_2  and  C_3
REMARK    3  A    between atoms: C_6  and  C_7
REMARK    4  A    between atoms: C_10  and  C_11
REMARK    5  A    between atoms: N_17  and  C_18
REMARK                            x       y       z     vdW  Elec       q    Type
REMARK                         _______ _______ _______ _____ _____    ______ ____
ROOT
ATOM      1  C   UNL     1       2.866   6.563  18.914  0.00  0.00    +0.000 A 
ATOM      2  C   UNL     1       4.204   6.635  18.830  0.00  0.00    +0.000 A 
ATOM      3  C   UNL     1       4.870   5.780  17.852  0.00  0.00    +0.000 A 
ATOM      4  C   UNL     1       5.956   6.167  17.091  0.00  0.00    +0.000 A 
ATOM      5  C   UNL     1       6.335   7.611  16.952  0.00  0.00    +0.000 C 
ATOM      6  N   UNL     1       6.540   5.314  16.225  0.00  0.00    +0.000 NA
ATOM      7  C   UNL     1       6.019   4.087  16.101  0.00  0.00    +0.000 A 
ATOM      8  N   UNL     1       6.611   3.241  15.190  0.00  0.00    +0.000 N 
ATOM      9  N   UNL     1       4.915   3.663  16.718  0.00  0.00    +0.000 NA
ATOM     10  C   UNL     1       4.329   4.537  17.553  0.00  0.00    +0.000 A 
ATOM     11  N   UNL     1       2.955   4.312  17.932  0.00  0.00    +0.000 N 
ATOM     12  C   UNL     1       2.235   5.517  18.034  0.00  0.00    +0.000 A 
ATOM     13  O   UNL     1       1.172   5.716  17.454  0.00  0.00    +0.000 OA
ATOM     14  H   UNL     1       7.090   3.799  14.493  0.00  0.00    +0.000 HD
ATOM     15  H   UNL     1       5.920   2.589  14.846  0.00  0.00    +0.000 HD
ENDROOT
BRANCH   1  19
ATOM     16  C   UNL     1       0.489   9.294  21.006  0.00  0.00    +0.000 A 
ATOM     17  N   UNL     1       0.837   8.164  21.628  0.00  0.00    +0.000 NA
ATOM     18  C   UNL     1       1.649   7.332  20.944  0.00  0.00    +0.000 A 
ATOM     19  C   UNL     1       2.100   7.566  19.658  0.00  0.00    +0.000 A 
ATOM     20  C   UNL     1       1.688   8.783  19.136  0.00  0.00    +0.000 A 
ATOM     21  N   UNL     1       0.892   9.665  19.781  0.00  0.00    +0.000 NA
BRANCH  16  23
ATOM     22  C   UNL     1      -0.398   9.844  23.088  0.00  0.00    +0.000 C 
ATOM     23  O   UNL     1      -0.445  10.043  21.684  0.00  0.00    +0.000 OA
ENDBRANCH  16  23
ENDBRANCH   1  19
BRANCH  11  24
ATOM     24  C   UNL     1       2.788   3.406  19.086  0.00  0.00    +0.000 C 
ATOM     25  C   UNL     1       1.815   3.939  20.163  0.00  0.00    +0.000 C 
ATOM     26  C   UNL     1       0.492   3.204  19.987  0.00  0.00    +0.000 C 
ATOM     27  C   UNL     1       0.717   2.147  18.920  0.00  0.00    +0.000 C 
ATOM     28  C   UNL     1       2.224   2.017  18.772  0.00  0.00    +0.000 C 
ENDBRANCH  11  24
TORSDOF 3
ENDMDL
