MODEL 1
REMARK VINA RESULT:      -7.8      0.000      0.000
REMARK  Name = 
REMARK  7 active torsions:
REMARK  status: ('A' for Active; 'I' for Inactive)
REMARK    1  A    between atoms: C_1  and  O_2
REMARK    2  A    between atoms: O_2  and  C_3
REMARK    3  A    between atoms: C_12  and  O_13
REMARK    4  A    between atoms: O_13  and  C_14
REMARK    5  A    between atoms: C_15  and  O_16
REMARK    6  A    between atoms: O_16  and  C_17
REMARK    7  A    between atoms: C_24  and  O_25
REMARK                            x       y       z     vdW  Elec       q    Type
REMARK                         _______ _______ _______ _____ _____    ______ ____
ROOT
ATOM      1  C   UNL     1      -0.581  11.802  21.158  0.00  0.00    +0.000 A 
ATOM      2  C   UNL     1       0.081  11.345  20.010  0.00  0.00    +0.000 A 
ATOM      3  C   UNL     1       0.717  10.089  19.981  0.00  0.00    +0.000 A 
ATOM      4  C   UNL     1       1.397   9.635  18.852  0.00  0.00    +0.000 A 
ATOM      5  N   UNL     1       2.003   8.420  18.802  0.00  0.00    +0.000 N 
ATOM      6  C   UNL     1       2.709   8.086  17.694  0.00  0.00    +0.000 A 
ATOM      7  C   UNL     1       3.356   6.871  17.571  0.00  0.00    +0.000 A 
ATOM      8  C   UNL     1       3.243   5.921  18.575  0.00  0.00    +0.000 A 
ATOM      9  C   UNL     1       3.884   4.678  18.432  0.00  0.00    +0.000 A 
ATOM     10  C   UNL     1       3.754   3.664  19.388  0.00  0.00    +0.000 A 
ATOM     11  C   UNL     1       2.938   3.901  20.499  0.00  0.00    +0.000 A 
ATOM     12  C   UNL     1       2.335   5.164  20.657  0.00  0.00    +0.000 A 
ATOM     13  C   UNL     1       2.484   6.218  19.719  0.00  0.00    +0.000 A 
ATOM     14  C   UNL     1       1.906   7.534  19.861  0.00  0.00    +0.000 A 
ATOM     15  C   UNL     1       1.250   8.001  21.034  0.00  0.00    +0.000 A 
ATOM     16  C   UNL     1       0.671   9.271  21.108  0.00  0.00    +0.000 A 
ATOM     17  C   UNL     1       0.041   9.741  22.274  0.00  0.00    +0.000 A 
ATOM     18  C   UNL     1      -0.580  10.992  22.296  0.00  0.00    +0.000 A 
ENDROOT
BRANCH   1  20
ATOM     19  C   UNL     1      -0.318  14.116  20.611  0.00  0.00    +0.000 C 
ATOM     20  O   UNL     1      -1.158  13.030  20.987  0.00  0.00    +0.000 OA
ENDBRANCH   1  20
BRANCH  10  21
ATOM     21  O   UNL     1       4.384   2.458  19.287  0.00  0.00    +0.000 OA
ATOM     22  C   UNL     1       3.748   1.398  18.585  0.00  0.00    +0.000 C 
ENDBRANCH  10  21
BRANCH  11  23
ATOM     23  O   UNL     1       2.612   3.045  21.518  0.00  0.00    +0.000 OA
ATOM     24  C   UNL     1       1.287   2.529  21.590  0.00  0.00    +0.000 C 
ENDBRANCH  11  23
BRANCH  18  25
ATOM     25  O   UNL     1      -1.186  11.397  23.450  0.00  0.00    +0.000 OA
ATOM     26  H   UNL     1      -1.631  12.249  23.329  0.00  0.00    +0.000 HD
ENDBRANCH  18  25
TORSDOF 4
ENDMDL
MODEL 2
REMARK VINA RESULT:      -7.7      0.882      7.756
REMARK  Name = 
REMARK  7 active torsions:
REMARK  status: ('A' for Active; 'I' for Inactive)
REMARK    1  A    between atoms: C_1  and  O_2
REMARK    2  A    between atoms: O_2  and  C_3
REMARK    3  A    between atoms: C_12  and  O_13
REMARK    4  A    between atoms: O_13  and  C_14
REMARK    5  A    between atoms: C_15  and  O_16
REMARK    6  A    between atoms: O_16  and  C_17
REMARK    7  A    between atoms: C_24  and  O_25
REMARK                            x       y       z     vdW  Elec       q    Type
REMARK                         _______ _______ _______ _____ _____    ______ ____
ROOT
ATOM      1  C   UNL     1       3.392   3.181  19.839  0.00  0.00    +0.000 A 
ATOM      2  C   UNL     1       3.441   4.249  18.934  0.00  0.00    +0.000 A 
ATOM      3  C   UNL     1       2.818   5.479  19.217  0.00  0.00    +0.000 A 
ATOM      4  C   UNL     1       2.841   6.541  18.314  0.00  0.00    +0.000 A 
ATOM      5  N   UNL     1       2.258   7.740  18.578  0.00  0.00    +0.000 N 
ATOM      6  C   UNL     1       2.260   8.694  17.616  0.00  0.00    +0.000 A 
ATOM      7  C   UNL     1       1.684   9.935  17.807  0.00  0.00    +0.000 A 
ATOM      8  C   UNL     1       1.134  10.261  19.039  0.00  0.00    +0.000 A 
ATOM      9  C   UNL     1       0.571  11.534  19.235  0.00  0.00    +0.000 A 
ATOM     10  C   UNL     1       0.056  11.934  20.473  0.00  0.00    +0.000 A 
ATOM     11  C   UNL     1       0.136  11.037  21.543  0.00  0.00    +0.000 A 
ATOM     12  C   UNL     1       0.661   9.748  21.328  0.00  0.00    +0.000 A 
ATOM     13  C   UNL     1       1.153   9.310  20.072  0.00  0.00    +0.000 A 
ATOM     14  C   UNL     1       1.671   7.988  19.806  0.00  0.00    +0.000 A 
ATOM     15  C   UNL     1       1.604   6.901  20.721  0.00  0.00    +0.000 A 
ATOM     16  C   UNL     1       2.157   5.650  20.432  0.00  0.00    +0.000 A 
ATOM     17  C   UNL     1       2.073   4.568  21.327  0.00  0.00    +0.000 A 
ATOM     18  C   UNL     1       2.687   3.348  21.033  0.00  0.00    +0.000 A 
ENDROOT
BRANCH   1  20
ATOM     19  C   UNL     1       3.622   1.442  18.212  0.00  0.00    +0.000 C 
ATOM     20  O   UNL     1       4.075   2.079  19.401  0.00  0.00    +0.000 OA
ENDBRANCH   1  20
BRANCH  10  21
ATOM     21  O   UNL     1      -0.518  13.154  20.685  0.00  0.00    +0.000 OA
ATOM     22  C   UNL     1      -0.261  14.210  19.769  0.00  0.00    +0.000 C 
ENDBRANCH  10  21
BRANCH  11  23
ATOM     23  O   UNL     1      -0.237  11.229  22.848  0.00  0.00    +0.000 OA
ATOM     24  C   UNL     1      -1.623  11.272  23.172  0.00  0.00    +0.000 C 
ENDBRANCH  11  23
BRANCH  18  25
ATOM     25  O   UNL     1       2.584   2.333  21.941  0.00  0.00    +0.000 OA
ATOM     26  H   UNL     1       2.994   2.578  22.784  0.00  0.00    +0.000 HD
ENDBRANCH  18  25
TORSDOF 4
ENDMDL
MODEL 3
REMARK VINA RESULT:      -7.3      1.228      1.523
REMARK  Name = 
REMARK  7 active torsions:
REMARK  status: ('A' for Active; 'I' for Inactive)
REMARK    1  A    between atoms: C_1  and  O_2
REMARK    2  A    between atoms: O_2  and  C_3
REMARK    3  A    between atoms: C_12  and  O_13
REMARK    4  A    between atoms: O_13  and  C_14
REMARK    5  A    between atoms: C_15  and  O_16
REMARK    6  A    between atoms: O_16  and  C_17
REMARK    7  A    between atoms: C_24  and  O_25
REMARK                            x       y       z     vdW  Elec       q    Type
REMARK                         _______ _______ _______ _____ _____    ______ ____
ROOT
ATOM      1  C   UNL     1      -1.711  12.546  21.534  0.00  0.00    +0.000 A 
ATOM      2  C   UNL     1      -0.987  12.205  20.384  0.00  0.00    +0.000 A 
ATOM      3  C   UNL     1      -0.245  11.011  20.311  0.00  0.00    +0.000 A 
ATOM      4  C   UNL     1       0.496  10.673  19.180  0.00  0.00    +0.000 A 
ATOM      5  N   UNL     1       1.205   9.517  19.087  0.00  0.00    +0.000 N 
ATOM      6  C   UNL     1       1.960   9.300  17.984  0.00  0.00    +0.000 A 
ATOM      7  C   UNL     1       2.711   8.152  17.820  0.00  0.00    +0.000 A 
ATOM      8  C   UNL     1       2.658   7.146  18.774  0.00  0.00    +0.000 A 
ATOM      9  C   UNL     1       3.406   5.970  18.588  0.00  0.00    +0.000 A 
ATOM     10  C   UNL     1       3.343   4.902  19.490  0.00  0.00    +0.000 A 
ATOM     11  C   UNL     1       2.485   5.014  20.589  0.00  0.00    +0.000 A 
ATOM     12  C   UNL     1       1.772   6.212  20.791  0.00  0.00    +0.000 A 
ATOM     13  C   UNL     1       1.852   7.320  19.910  0.00  0.00    +0.000 A 
ATOM     14  C   UNL     1       1.160   8.575  20.100  0.00  0.00    +0.000 A 
ATOM     15  C   UNL     1       0.441   8.925  21.276  0.00  0.00    +0.000 A 
ATOM     16  C   UNL     1      -0.247  10.136  21.395  0.00  0.00    +0.000 A 
ATOM     17  C   UNL     1      -0.941  10.492  22.567  0.00  0.00    +0.000 A 
ATOM     18  C   UNL     1      -1.666  11.684  22.632  0.00  0.00    +0.000 A 
ENDROOT
BRANCH   1  20
ATOM     19  C   UNL     1      -3.641  13.713  20.734  0.00  0.00    +0.000 C 
ATOM     20  O   UNL     1      -2.387  13.729  21.408  0.00  0.00    +0.000 OA
ENDBRANCH   1  20
BRANCH  10  21
ATOM     21  O   UNL     1       4.076   3.760  19.348  0.00  0.00    +0.000 OA
ATOM     22  C   UNL     1       5.066   3.693  18.331  0.00  0.00    +0.000 C 
ENDBRANCH  10  21
BRANCH  11  23
ATOM     23  O   UNL     1       2.210   4.083  21.557  0.00  0.00    +0.000 OA
ATOM     24  C   UNL     1       1.384   2.971  21.231  0.00  0.00    +0.000 C 
ENDBRANCH  11  23
BRANCH  18  25
ATOM     25  O   UNL     1      -2.330  11.977  23.788  0.00  0.00    +0.000 OA
ATOM     26  H   UNL     1      -1.843  12.630  24.313  0.00  0.00    +0.000 HD
ENDBRANCH  18  25
TORSDOF 4
ENDMDL
MODEL 4
REMARK VINA RESULT:      -6.6      2.322      8.278
REMARK  Name = 
REMARK  7 active torsions:
REMARK  status: ('A' for Active; 'I' for Inactive)
REMARK    1  A    between atoms: C_1  and  O_2
REMARK    2  A    between atoms: O_2  and  C_3
REMARK    3  A    between atoms: C_12  and  O_13
REMARK    4  A    between atoms: O_13  and  C_14
REMARK    5  A    between atoms: C_15  and  O_16
REMARK    6  A    between atoms: O_16  and  C_17
REMARK    7  A    between atoms: C_24  and  O_25
REMARK                            x       y       z     vdW  Elec       q    Type
REMARK                         _______ _______ _______ _____ _____    ______ ____
ROOT
ATOM      1  C   UNL     1       5.072   5.400  17.461  0.00  0.00    +0.000 A 
ATOM      2  C   UNL     1       4.364   5.558  18.660  0.00  0.00    +0.000 A 
ATOM      3  C   UNL     1       3.436   6.602  18.833  0.00  0.00    +0.000 A 
ATOM      4  C   UNL     1       2.743   6.781  20.030  0.00  0.00    +0.000 A 
ATOM      5  N   UNL     1       1.834   7.774  20.208  0.00  0.00    +0.000 N 
ATOM      6  C   UNL     1       1.260   7.926  21.426  0.00  0.00    +0.000 A 
ATOM      7  C   UNL     1       0.331   8.914  21.686  0.00  0.00    +0.000 A 
ATOM      8  C   UNL     1      -0.092   9.753  20.664  0.00  0.00    +0.000 A 
ATOM      9  C   UNL     1      -1.056  10.741  20.930  0.00  0.00    +0.000 A 
ATOM     10  C   UNL     1      -1.559  11.574  19.924  0.00  0.00    +0.000 A 
ATOM     11  C   UNL     1      -1.098  11.387  18.617  0.00  0.00    +0.000 A 
ATOM     12  C   UNL     1      -0.100  10.424  18.367  0.00  0.00    +0.000 A 
ATOM     13  C   UNL     1       0.451   9.597  19.379  0.00  0.00    +0.000 A 
ATOM     14  C   UNL     1       1.494   8.621  19.167  0.00  0.00    +0.000 A 
ATOM     15  C   UNL     1       2.223   8.475  17.953  0.00  0.00    +0.000 A 
ATOM     16  C   UNL     1       3.197   7.487  17.784  0.00  0.00    +0.000 A 
ATOM     17  C   UNL     1       3.933   7.357  16.592  0.00  0.00    +0.000 A 
ATOM     18  C   UNL     1       4.858   6.322  16.433  0.00  0.00    +0.000 A 
ENDROOT
BRANCH   1  20
ATOM     19  C   UNL     1       7.303   4.551  17.623  0.00  0.00    +0.000 C 
ATOM     20  O   UNL     1       5.907   4.317  17.473  0.00  0.00    +0.000 OA
ENDBRANCH   1  20
BRANCH  10  21
ATOM     21  O   UNL     1      -2.477  12.557  20.158  0.00  0.00    +0.000 OA
ATOM     22  C   UNL     1      -2.721  12.976  21.494  0.00  0.00    +0.000 C 
ENDBRANCH  10  21
BRANCH  11  23
ATOM     23  O   UNL     1      -1.490  12.029  17.472  0.00  0.00    +0.000 OA
ATOM     24  C   UNL     1      -2.436  11.399  16.615  0.00  0.00    +0.000 C 
ENDBRANCH  11  23
BRANCH  18  25
ATOM     25  O   UNL     1       5.538   6.234  15.253  0.00  0.00    +0.000 OA
ATOM     26  H   UNL     1       5.695   7.112  14.875  0.00  0.00    +0.000 HD
ENDBRANCH  18  25
TORSDOF 4
ENDMDL
MODEL 5
REMARK VINA RESULT:      -6.5      1.962      8.296
REMARK  Name = 
REMARK  7 active torsions:
REMARK  status: ('A' for Active; 'I' for Inactive)
REMARK    1  A    between atoms: C_1  and  O_2
REMARK    2  A    between atoms: O_2  and  C_3
REMARK    3  A    between atoms: C_12  and  O_13
REMARK    4  A    between atoms: O_13  and  C_14
REMARK    5  A    between atoms: C_15  and  O_16
REMARK    6  A    between atoms: O_16  and  C_17
REMARK    7  A    between atoms: C_24  and  O_25
REMARK                            x       y       z     vdW  Elec       q    Type
REMARK                         _______ _______ _______ _____ _____    ______ ____
ROOT
ATOM      1  C   UNL     1       4.262   5.034  18.544  0.00  0.00    +0.000 A 
ATOM      2  C   UNL     1       3.604   5.464  19.704  0.00  0.00    +0.000 A 
ATOM      3  C   UNL     1       2.790   6.612  19.703  0.00  0.00    +0.000 A 
ATOM      4  C   UNL     1       2.149   7.062  20.857  0.00  0.00    +0.000 A 
ATOM      5  N   UNL     1       1.347   8.158  20.870  0.00  0.00    +0.000 N 
ATOM      6  C   UNL     1       0.824   8.572  22.049  0.00  0.00    +0.000 A 
ATOM      7  C   UNL     1       0.004   9.680  22.143  0.00  0.00    +0.000 A 
ATOM      8  C   UNL     1      -0.360  10.372  20.997  0.00  0.00    +0.000 A 
ATOM      9  C   UNL     1      -1.215  11.484  21.097  0.00  0.00    +0.000 A 
ATOM     10  C   UNL     1      -1.659  12.181  19.968  0.00  0.00    +0.000 A 
ATOM     11  C   UNL     1      -1.252  11.728  18.708  0.00  0.00    +0.000 A 
ATOM     12  C   UNL     1      -0.362  10.640  18.618  0.00  0.00    +0.000 A 
ATOM     13  C   UNL     1       0.130   9.945  19.752  0.00  0.00    +0.000 A 
ATOM     14  C   UNL     1       1.067   8.846  19.702  0.00  0.00    +0.000 A 
ATOM     15  C   UNL     1       1.745   8.423  18.525  0.00  0.00    +0.000 A 
ATOM     16  C   UNL     1       2.612   7.326  18.520  0.00  0.00    +0.000 A 
ATOM     17  C   UNL     1       3.300   6.920  17.361  0.00  0.00    +0.000 A 
ATOM     18  C   UNL     1       4.114   5.785  17.375  0.00  0.00    +0.000 A 
ENDROOT
BRANCH   1  20
ATOM     19  C   UNL     1       4.340   2.790  19.369  0.00  0.00    +0.000 C 
ATOM     20  O   UNL     1       4.985   3.889  18.735  0.00  0.00    +0.000 OA
ENDBRANCH   1  20
BRANCH  10  21
ATOM     21  O   UNL     1      -2.468  13.277  20.037  0.00  0.00    +0.000 OA
ATOM     22  C   UNL     1      -3.791  13.134  20.534  0.00  0.00    +0.000 C 
ENDBRANCH  10  21
BRANCH  11  23
ATOM     23  O   UNL     1      -1.609  12.203  17.473  0.00  0.00    +0.000 OA
ATOM     24  C   UNL     1      -2.472  11.421  16.654  0.00  0.00    +0.000 C 
ENDBRANCH  11  23
BRANCH  18  25
ATOM     25  O   UNL     1       4.751   5.428  16.222  0.00  0.00    +0.000 OA
ATOM     26  H   UNL     1       5.273   4.621  16.348  0.00  0.00    +0.000 HD
ENDBRANCH  18  25
TORSDOF 4
ENDMDL
MODEL 6
REMARK VINA RESULT:      -6.4      1.517      7.622
REMARK  Name = 
REMARK  7 active torsions:
REMARK  status: ('A' for Active; 'I' for Inactive)
REMARK    1  A    between atoms: C_1  and  O_2
REMARK    2  A    between atoms: O_2  and  C_3
REMARK    3  A    between atoms: C_12  and  O_13
REMARK    4  A    between atoms: O_13  and  C_14
REMARK    5  A    between atoms: C_15  and  O_16
REMARK    6  A    between atoms: O_16  and  C_17
REMARK    7  A    between atoms: C_24  and  O_25
REMARK                            x       y       z     vdW  Elec       q    Type
REMARK                         _______ _______ _______ _____ _____    ______ ____
ROOT
ATOM      1  C   UNL     1       4.824   4.531  17.686  0.00  0.00    +0.000 A 
ATOM      2  C   UNL     1       4.324   5.750  17.211  0.00  0.00    +0.000 A 
ATOM      3  C   UNL     1       3.456   6.540  17.989  0.00  0.00    +0.000 A 
ATOM      4  C   UNL     1       2.935   7.744  17.516  0.00  0.00    +0.000 A 
ATOM      5  N   UNL     1       2.109   8.526  18.259  0.00  0.00    +0.000 N 
ATOM      6  C   UNL     1       1.585   9.643  17.698  0.00  0.00    +0.000 A 
ATOM      7  C   UNL     1       0.735  10.485  18.388  0.00  0.00    +0.000 A 
ATOM      8  C   UNL     1       0.442  10.233  19.721  0.00  0.00    +0.000 A 
ATOM      9  C   UNL     1      -0.406  11.108  20.424  0.00  0.00    +0.000 A 
ATOM     10  C   UNL     1      -0.687  10.933  21.783  0.00  0.00    +0.000 A 
ATOM     11  C   UNL     1      -0.078   9.867  22.454  0.00  0.00    +0.000 A 
ATOM     12  C   UNL     1       0.734   8.970  21.732  0.00  0.00    +0.000 A 
ATOM     13  C   UNL     1       1.001   9.107  20.346  0.00  0.00    +0.000 A 
ATOM     14  C   UNL     1       1.803   8.193  19.567  0.00  0.00    +0.000 A 
ATOM     15  C   UNL     1       2.295   6.947  20.048  0.00  0.00    +0.000 A 
ATOM     16  C   UNL     1       3.103   6.115  19.267  0.00  0.00    +0.000 A 
ATOM     17  C   UNL     1       3.571   4.873  19.734  0.00  0.00    +0.000 A 
ATOM     18  C   UNL     1       4.425   4.092  18.951  0.00  0.00    +0.000 A 
ENDROOT
BRANCH   1  20
ATOM     19  C   UNL     1       6.888   4.581  16.476  0.00  0.00    +0.000 C 
ATOM     20  O   UNL     1       5.669   3.920  16.801  0.00  0.00    +0.000 OA
ENDBRANCH   1  20
BRANCH  10  21
ATOM     21  O   UNL     1      -1.524  11.751  22.485  0.00  0.00    +0.000 OA
ATOM     22  C   UNL     1      -1.110  13.078  22.782  0.00  0.00    +0.000 C 
ENDBRANCH  10  21
BRANCH  11  23
ATOM     23  O   UNL     1      -0.151   9.540  23.782  0.00  0.00    +0.000 OA
ATOM     24  C   UNL     1       1.037   9.152  24.465  0.00  0.00    +0.000 C 
ENDBRANCH  11  23
BRANCH  18  25
ATOM     25  O   UNL     1       4.859   2.900  19.454  0.00  0.00    +0.000 OA
ATOM     26  H   UNL     1       5.820   2.907  19.583  0.00  0.00    +0.000 HD
ENDBRANCH  18  25
TORSDOF 4
ENDMDL
MODEL 7
REMARK VINA RESULT:      -6.4      1.691      8.375
REMARK  Name = 
REMARK  7 active torsions:
REMARK  status: ('A' for Active; 'I' for Inactive)
REMARK    1  A    between atoms: C_1  and  O_2
REMARK    2  A    between atoms: O_2  and  C_3
REMARK    3  A    between atoms: C_12  and  O_13
REMARK    4  A    between atoms: O_13  and  C_14
REMARK    5  A    between atoms: C_15  and  O_16
REMARK    6  A    between atoms: O_16  and  C_17
REMARK    7  A    between atoms: C_24  and  O_25
REMARK                            x       y       z     vdW  Elec       q    Type
REMARK                         _______ _______ _______ _____ _____    ______ ____
ROOT
ATOM      1  C   UNL     1       3.930   4.220  17.788  0.00  0.00    +0.000 A 
ATOM      2  C   UNL     1       3.104   4.530  18.877  0.00  0.00    +0.000 A 
ATOM      3  C   UNL     1       2.683   5.851  19.126  0.00  0.00    +0.000 A 
ATOM      4  C   UNL     1       1.880   6.173  20.219  0.00  0.00    +0.000 A 
ATOM      5  N   UNL     1       1.453   7.440  20.465  0.00  0.00    +0.000 N 
ATOM      6  C   UNL     1       0.739   7.682  21.591  0.00  0.00    +0.000 A 
ATOM      7  C   UNL     1       0.275   8.943  21.912  0.00  0.00    +0.000 A 
ATOM      8  C   UNL     1       0.480  10.000  21.038  0.00  0.00    +0.000 A 
ATOM      9  C   UNL     1      -0.017  11.276  21.360  0.00  0.00    +0.000 A 
ATOM     10  C   UNL     1       0.112  12.362  20.487  0.00  0.00    +0.000 A 
ATOM     11  C   UNL     1       0.733  12.149  19.252  0.00  0.00    +0.000 A 
ATOM     12  C   UNL     1       1.266  10.879  18.955  0.00  0.00    +0.000 A 
ATOM     13  C   UNL     1       1.180   9.776  19.841  0.00  0.00    +0.000 A 
ATOM     14  C   UNL     1       1.740   8.469  19.586  0.00  0.00    +0.000 A 
ATOM     15  C   UNL     1       2.592   8.161  18.489  0.00  0.00    +0.000 A 
ATOM     16  C   UNL     1       3.076   6.870  18.261  0.00  0.00    +0.000 A 
ATOM     17  C   UNL     1       3.937   6.570  17.189  0.00  0.00    +0.000 A 
ATOM     18  C   UNL     1       4.356   5.258  16.956  0.00  0.00    +0.000 A 
ENDROOT
BRANCH   1  20
ATOM     19  C   UNL     1       3.312   1.969  18.313  0.00  0.00    +0.000 C 
ATOM     20  O   UNL     1       4.210   2.884  17.696  0.00  0.00    +0.000 OA
ENDBRANCH   1  20
BRANCH  10  21
ATOM     21  O   UNL     1      -0.338  13.616  20.784  0.00  0.00    +0.000 OA
ATOM     22  C   UNL     1       0.237  14.320  21.876  0.00  0.00    +0.000 C 
ENDBRANCH  10  21
BRANCH  11  23
ATOM     23  O   UNL     1       0.911  13.035  18.222  0.00  0.00    +0.000 OA
ATOM     24  C   UNL     1       2.200  13.601  18.012  0.00  0.00    +0.000 C 
ENDBRANCH  11  23
BRANCH  18  25
ATOM     25  O   UNL     1       5.181   5.018  15.896  0.00  0.00    +0.000 OA
ATOM     26  H   UNL     1       5.522   5.847  15.526  0.00  0.00    +0.000 HD
ENDBRANCH  18  25
TORSDOF 4
ENDMDL
MODEL 8
REMARK VINA RESULT:      -6.4      1.742      3.341
REMARK  Name = 
REMARK  7 active torsions:
REMARK  status: ('A' for Active; 'I' for Inactive)
REMARK    1  A    between atoms: C_1  and  O_2
REMARK    2  A    between atoms: O_2  and  C_3
REMARK    3  A    between atoms: C_12  and  O_13
REMARK    4  A    between atoms: O_13  and  C_14
REMARK    5  A    between atoms: C_15  and  O_16
REMARK    6  A    between atoms: O_16  and  C_17
REMARK    7  A    between atoms: C_24  and  O_25
REMARK                            x       y       z     vdW  Elec       q    Type
REMARK                         _______ _______ _______ _____ _____    ______ ____
ROOT
ATOM      1  C   UNL     1       0.795  12.285  19.902  0.00  0.00    +0.000 A 
ATOM      2  C   UNL     1       0.694  11.100  20.643  0.00  0.00    +0.000 A 
ATOM      3  C   UNL     1       1.155   9.873  20.130  0.00  0.00    +0.000 A 
ATOM      4  C   UNL     1       1.038   8.684  20.849  0.00  0.00    +0.000 A 
ATOM      5  N   UNL     1       1.492   7.494  20.375  0.00  0.00    +0.000 N 
ATOM      6  C   UNL     1       1.272   6.373  21.103  0.00  0.00    +0.000 A 
ATOM      7  C   UNL     1       1.698   5.127  20.686  0.00  0.00    +0.000 A 
ATOM      8  C   UNL     1       2.433   5.003  19.515  0.00  0.00    +0.000 A 
ATOM      9  C   UNL     1       2.885   3.735  19.109  0.00  0.00    +0.000 A 
ATOM     10  C   UNL     1       3.678   3.562  17.969  0.00  0.00    +0.000 A 
ATOM     11  C   UNL     1       4.045   4.697  17.239  0.00  0.00    +0.000 A 
ATOM     12  C   UNL     1       3.552   5.959  17.628  0.00  0.00    +0.000 A 
ATOM     13  C   UNL     1       2.716   6.150  18.757  0.00  0.00    +0.000 A 
ATOM     14  C   UNL     1       2.168   7.422  19.169  0.00  0.00    +0.000 A 
ATOM     15  C   UNL     1       2.257   8.620  18.407  0.00  0.00    +0.000 A 
ATOM     16  C   UNL     1       1.745   9.836  18.868  0.00  0.00    +0.000 A 
ATOM     17  C   UNL     1       1.814  11.016  18.106  0.00  0.00    +0.000 A 
ATOM     18  C   UNL     1       1.345  12.227  18.620  0.00  0.00    +0.000 A 
ENDROOT
BRANCH   1  20
ATOM     19  C   UNL     1       1.242  14.154  21.328  0.00  0.00    +0.000 C 
ATOM     20  O   UNL     1       0.317  13.376  20.575  0.00  0.00    +0.000 OA
ENDBRANCH   1  20
BRANCH  10  21
ATOM     21  O   UNL     1       4.110   2.341  17.538  0.00  0.00    +0.000 OA
ATOM     22  C   UNL     1       3.780   1.182  18.291  0.00  0.00    +0.000 C 
ENDBRANCH  10  21
BRANCH  11  23
ATOM     23  O   UNL     1       4.860   4.780  16.141  0.00  0.00    +0.000 OA
ATOM     24  C   UNL     1       6.269   4.860  16.329  0.00  0.00    +0.000 C 
ENDBRANCH  11  23
BRANCH  18  25
ATOM     25  O   UNL     1       1.445  13.345  17.843  0.00  0.00    +0.000 OA
ATOM     26  H   UNL     1       1.968  13.169  17.046  0.00  0.00    +0.000 HD
ENDBRANCH  18  25
TORSDOF 4
ENDMDL
MODEL 9
REMARK VINA RESULT:      -6.4      2.012      3.612
REMARK  Name = 
REMARK  7 active torsions:
REMARK  status: ('A' for Active; 'I' for Inactive)
REMARK    1  A    between atoms: C_1  and  O_2
REMARK    2  A    between atoms: O_2  and  C_3
REMARK    3  A    between atoms: C_12  and  O_13
REMARK    4  A    between atoms: O_13  and  C_14
REMARK    5  A    between atoms: C_15  and  O_16
REMARK    6  A    between atoms: O_16  and  C_17
REMARK    7  A    between atoms: C_24  and  O_25
REMARK                            x       y       z     vdW  Elec       q    Type
REMARK                         _______ _______ _______ _____ _____    ______ ____
ROOT
ATOM      1  C   UNL     1      -0.717  11.267  20.868  0.00  0.00    +0.000 A 
ATOM      2  C   UNL     1      -0.457   9.955  21.285  0.00  0.00    +0.000 A 
ATOM      3  C   UNL     1       0.454   9.133  20.595  0.00  0.00    +0.000 A 
ATOM      4  C   UNL     1       0.704   7.818  20.989  0.00  0.00    +0.000 A 
ATOM      5  N   UNL     1       1.591   7.017  20.343  0.00  0.00    +0.000 N 
ATOM      6  C   UNL     1       1.718   5.728  20.742  0.00  0.00    +0.000 A 
ATOM      7  C   UNL     1       2.595   4.852  20.133  0.00  0.00    +0.000 A 
ATOM      8  C   UNL     1       3.428   5.299  19.117  0.00  0.00    +0.000 A 
ATOM      9  C   UNL     1       4.336   4.407  18.518  0.00  0.00    +0.000 A 
ATOM     10  C   UNL     1       5.238   4.820  17.532  0.00  0.00    +0.000 A 
ATOM     11  C   UNL     1       5.241   6.169  17.161  0.00  0.00    +0.000 A 
ATOM     12  C   UNL     1       4.300   7.047  17.734  0.00  0.00    +0.000 A 
ATOM     13  C   UNL     1       3.352   6.640  18.707  0.00  0.00    +0.000 A 
ATOM     14  C   UNL     1       2.354   7.502  19.295  0.00  0.00    +0.000 A 
ATOM     15  C   UNL     1       2.080   8.828  18.858  0.00  0.00    +0.000 A 
ATOM     16  C   UNL     1       1.130   9.638  19.487  0.00  0.00    +0.000 A 
ATOM     17  C   UNL     1       0.844  10.942  19.041  0.00  0.00    +0.000 A 
ATOM     18  C   UNL     1      -0.069  11.746  19.728  0.00  0.00    +0.000 A 
ENDROOT
BRANCH   1  20
ATOM     19  C   UNL     1      -1.627  11.578  23.059  0.00  0.00    +0.000 C 
ATOM     20  O   UNL     1      -1.609  11.916  21.677  0.00  0.00    +0.000 OA
ENDBRANCH   1  20
BRANCH  10  21
ATOM     21  O   UNL     1       6.111   3.972  16.916  0.00  0.00    +0.000 OA
ATOM     22  C   UNL     1       5.944   3.686  15.533  0.00  0.00    +0.000 C 
ENDBRANCH  10  21
BRANCH  11  23
ATOM     23  O   UNL     1       6.069   6.810  16.276  0.00  0.00    +0.000 OA
ATOM     24  C   UNL     1       7.346   7.253  16.721  0.00  0.00    +0.000 C 
ENDBRANCH  11  23
BRANCH  18  25
ATOM     25  O   UNL     1      -0.303  13.007  19.260  0.00  0.00    +0.000 OA
ATOM     26  H   UNL     1      -1.126  13.042  18.750  0.00  0.00    +0.000 HD
ENDBRANCH  18  25
TORSDOF 4
ENDMDL
