MODEL 1
REMARK VINA RESULT:      -5.6      0.000      0.000
REMARK  Name = 
REMARK  5 active torsions:
REMARK  status: ('A' for Active; 'I' for Inactive)
REMARK    1  A    between atoms: C_2  and  C_3
REMARK    2  A    between atoms: C_2  and  C_5
REMARK    3  A    between atoms: C_3  and  N_4
REMARK    4  A    between atoms: C_8  and  O_9
REMARK    5  A    between atoms: C_11  and  C_12
REMARK                            x       y       z     vdW  Elec       q    Type
REMARK                         _______ _______ _______ _____ _____    ______ ____
ROOT
ATOM      1  C   UNL     1       3.779   4.474  17.542  0.00  0.00    +0.000 A 
ATOM      2  C   UNL     1       3.771   3.079  17.366  0.00  0.00    +0.000 A 
ATOM      3  C   UNL     1       2.643   2.324  17.689  0.00  0.00    +0.000 A 
ATOM      4  C   UNL     1       1.520   2.964  18.196  0.00  0.00    +0.000 A 
ATOM      5  C   UNL     1       1.499   4.345  18.358  0.00  0.00    +0.000 A 
ATOM      6  C   UNL     1       2.623   5.120  18.028  0.00  0.00    +0.000 A 
ATOM      7  C   UNL     1       2.565   6.611  18.219  0.00  0.00    +0.000 C 
ENDROOT
BRANCH   1   9
ATOM      8  C   UNL     1       5.181   5.787  16.084  0.00  0.00    +0.000 C 
ATOM      9  C   UNL     1       5.045   5.192  17.283  0.00  0.00    +0.000 C 
BRANCH   9  10
ATOM     10  C   UNL     1       6.041   5.225  18.417  0.00  0.00    +0.000 C 
BRANCH  10  11
ATOM     11  N   UNL     1       7.181   4.328  18.236  0.00  0.00    +0.000 NA
ATOM     12  H   UNL     1       7.976   4.877  17.914  0.00  0.00    +0.000 HD
ATOM     13  H   UNL     1       6.970   3.673  17.486  0.00  0.00    +0.000 HD
ENDBRANCH  10  11
ENDBRANCH   9  10
ENDBRANCH   1   9
BRANCH   4  14
ATOM     14  O   UNL     1       0.408   2.265  18.560  0.00  0.00    +0.000 OA
ATOM     15  H   UNL     1      -0.247   2.330  17.845  0.00  0.00    +0.000 HD
ENDBRANCH   4  14
TORSDOF 4
ENDMDL
MODEL 2
REMARK VINA RESULT:      -5.5      3.112      4.568
REMARK  Name = 
REMARK  5 active torsions:
REMARK  status: ('A' for Active; 'I' for Inactive)
REMARK    1  A    between atoms: C_2  and  C_3
REMARK    2  A    between atoms: C_2  and  C_5
REMARK    3  A    between atoms: C_3  and  N_4
REMARK    4  A    between atoms: C_8  and  O_9
REMARK    5  A    between atoms: C_11  and  C_12
REMARK                            x       y       z     vdW  Elec       q    Type
REMARK                         _______ _______ _______ _____ _____    ______ ____
ROOT
ATOM      1  C   UNL     1       5.015   4.323  17.489  0.00  0.00    +0.000 A 
ATOM      2  C   UNL     1       4.801   3.975  16.143  0.00  0.00    +0.000 A 
ATOM      3  C   UNL     1       5.726   4.323  15.158  0.00  0.00    +0.000 A 
ATOM      4  C   UNL     1       6.868   5.027  15.518  0.00  0.00    +0.000 A 
ATOM      5  C   UNL     1       7.110   5.363  16.846  0.00  0.00    +0.000 A 
ATOM      6  C   UNL     1       6.193   5.010  17.850  0.00  0.00    +0.000 A 
ATOM      7  C   UNL     1       6.487   5.392  19.275  0.00  0.00    +0.000 C 
ENDROOT
BRANCH   1   9
ATOM      8  C   UNL     1       3.090   5.014  18.766  0.00  0.00    +0.000 C 
ATOM      9  C   UNL     1       3.940   4.018  18.457  0.00  0.00    +0.000 C 
BRANCH   9  10
ATOM     10  C   UNL     1       3.877   2.597  18.963  0.00  0.00    +0.000 C 
BRANCH  10  11
ATOM     11  N   UNL     1       4.977   2.232  19.854  0.00  0.00    +0.000 NA
ATOM     12  H   UNL     1       5.553   1.535  19.385  0.00  0.00    +0.000 HD
ATOM     13  H   UNL     1       4.595   1.772  20.678  0.00  0.00    +0.000 HD
ENDBRANCH  10  11
ENDBRANCH   9  10
ENDBRANCH   1   9
BRANCH   4  14
ATOM     14  O   UNL     1       7.782   5.420  14.586  0.00  0.00    +0.000 OA
ATOM     15  H   UNL     1       8.467   5.949  15.028  0.00  0.00    +0.000 HD
ENDBRANCH   4  14
TORSDOF 4
ENDMDL
MODEL 3
REMARK VINA RESULT:      -5.5      3.095      4.183
REMARK  Name = 
REMARK  5 active torsions:
REMARK  status: ('A' for Active; 'I' for Inactive)
REMARK    1  A    between atoms: C_2  and  C_3
REMARK    2  A    between atoms: C_2  and  C_5
REMARK    3  A    between atoms: C_3  and  N_4
REMARK    4  A    between atoms: C_8  and  O_9
REMARK    5  A    between atoms: C_11  and  C_12
REMARK                            x       y       z     vdW  Elec       q    Type
REMARK                         _______ _______ _______ _____ _____    ______ ____
ROOT
ATOM      1  C   UNL     1       3.928   4.830  17.403  0.00  0.00    +0.000 A 
ATOM      2  C   UNL     1       4.618   3.754  16.818  0.00  0.00    +0.000 A 
ATOM      3  C   UNL     1       5.617   3.975  15.869  0.00  0.00    +0.000 A 
ATOM      4  C   UNL     1       5.923   5.278  15.498  0.00  0.00    +0.000 A 
ATOM      5  C   UNL     1       5.267   6.358  16.079  0.00  0.00    +0.000 A 
ATOM      6  C   UNL     1       4.267   6.151  17.043  0.00  0.00    +0.000 A 
ATOM      7  C   UNL     1       3.578   7.343  17.648  0.00  0.00    +0.000 C 
ENDROOT
BRANCH   1   9
ATOM      8  C   UNL     1       1.599   4.316  17.763  0.00  0.00    +0.000 C 
ATOM      9  C   UNL     1       2.810   4.514  18.317  0.00  0.00    +0.000 C 
BRANCH   9  10
ATOM     10  C   UNL     1       3.154   4.395  19.782  0.00  0.00    +0.000 C 
BRANCH  10  11
ATOM     11  N   UNL     1       2.641   5.487  20.606  0.00  0.00    +0.000 NA
ATOM     12  H   UNL     1       2.719   5.217  21.585  0.00  0.00    +0.000 HD
ATOM     13  H   UNL     1       1.645   5.598  20.425  0.00  0.00    +0.000 HD
ENDBRANCH  10  11
ENDBRANCH   9  10
ENDBRANCH   1   9
BRANCH   4  14
ATOM     14  O   UNL     1       6.864   5.542  14.548  0.00  0.00    +0.000 OA
ATOM     15  H   UNL     1       6.598   5.111  13.719  0.00  0.00    +0.000 HD
ENDBRANCH   4  14
TORSDOF 4
ENDMDL
MODEL 4
REMARK VINA RESULT:      -5.4      1.185      1.565
REMARK  Name = 
REMARK  5 active torsions:
REMARK  status: ('A' for Active; 'I' for Inactive)
REMARK    1  A    between atoms: C_2  and  C_3
REMARK    2  A    between atoms: C_2  and  C_5
REMARK    3  A    between atoms: C_3  and  N_4
REMARK    4  A    between atoms: C_8  and  O_9
REMARK    5  A    between atoms: C_11  and  C_12
REMARK                            x       y       z     vdW  Elec       q    Type
REMARK                         _______ _______ _______ _____ _____    ______ ____
ROOT
ATOM      1  C   UNL     1       3.815   4.298  17.615  0.00  0.00    +0.000 A 
ATOM      2  C   UNL     1       3.789   2.894  17.531  0.00  0.00    +0.000 A 
ATOM      3  C   UNL     1       2.628   2.180  17.832  0.00  0.00    +0.000 A 
ATOM      4  C   UNL     1       1.490   2.871  18.224  0.00  0.00    +0.000 A 
ATOM      5  C   UNL     1       1.487   4.260  18.294  0.00  0.00    +0.000 A 
ATOM      6  C   UNL     1       2.645   4.993  17.984  0.00  0.00    +0.000 A 
ATOM      7  C   UNL     1       2.606   6.494  18.073  0.00  0.00    +0.000 C 
ENDROOT
BRANCH   1   9
ATOM      8  C   UNL     1       5.880   5.206  18.467  0.00  0.00    +0.000 C 
ATOM      9  C   UNL     1       5.109   4.976  17.389  0.00  0.00    +0.000 C 
BRANCH   9  10
ATOM     10  C   UNL     1       5.456   5.296  15.955  0.00  0.00    +0.000 C 
BRANCH  10  11
ATOM     11  N   UNL     1       5.284   6.703  15.600  0.00  0.00    +0.000 NA
ATOM     12  H   UNL     1       5.714   6.861  14.690  0.00  0.00    +0.000 HD
ATOM     13  H   UNL     1       5.807   7.277  16.259  0.00  0.00    +0.000 HD
ENDBRANCH  10  11
ENDBRANCH   9  10
ENDBRANCH   1   9
BRANCH   4  14
ATOM     14  O   UNL     1       0.344   2.216  18.564  0.00  0.00    +0.000 OA
ATOM     15  H   UNL     1      -0.168   2.780  19.167  0.00  0.00    +0.000 HD
ENDBRANCH   4  14
TORSDOF 4
ENDMDL
MODEL 5
REMARK VINA RESULT:      -5.4      2.712      3.850
REMARK  Name = 
REMARK  5 active torsions:
REMARK  status: ('A' for Active; 'I' for Inactive)
REMARK    1  A    between atoms: C_2  and  C_3
REMARK    2  A    between atoms: C_2  and  C_5
REMARK    3  A    between atoms: C_3  and  N_4
REMARK    4  A    between atoms: C_8  and  O_9
REMARK    5  A    between atoms: C_11  and  C_12
REMARK                            x       y       z     vdW  Elec       q    Type
REMARK                         _______ _______ _______ _____ _____    ______ ____
ROOT
ATOM      1  C   UNL     1       3.770   4.088  17.999  0.00  0.00    +0.000 A 
ATOM      2  C   UNL     1       4.541   3.654  16.905  0.00  0.00    +0.000 A 
ATOM      3  C   UNL     1       5.150   4.572  16.050  0.00  0.00    +0.000 A 
ATOM      4  C   UNL     1       4.985   5.931  16.284  0.00  0.00    +0.000 A 
ATOM      5  C   UNL     1       4.246   6.383  17.372  0.00  0.00    +0.000 A 
ATOM      6  C   UNL     1       3.634   5.470  18.248  0.00  0.00    +0.000 A 
ATOM      7  C   UNL     1       2.840   5.995  19.412  0.00  0.00    +0.000 C 
ENDROOT
BRANCH   1   9
ATOM      8  C   UNL     1       1.932   2.552  18.277  0.00  0.00    +0.000 C 
ATOM      9  C   UNL     1       3.065   3.061  18.794  0.00  0.00    +0.000 C 
BRANCH   9  10
ATOM     10  C   UNL     1       3.722   2.649  20.090  0.00  0.00    +0.000 C 
BRANCH  10  11
ATOM     11  N   UNL     1       4.963   1.896  19.917  0.00  0.00    +0.000 NA
ATOM     12  H   UNL     1       5.421   1.817  20.823  0.00  0.00    +0.000 HD
ATOM     13  H   UNL     1       5.596   2.433  19.328  0.00  0.00    +0.000 HD
ENDBRANCH  10  11
ENDBRANCH   9  10
ENDBRANCH   1   9
BRANCH   4  14
ATOM     14  O   UNL     1       5.531   6.865  15.455  0.00  0.00    +0.000 OA
ATOM     15  H   UNL     1       5.722   7.665  15.972  0.00  0.00    +0.000 HD
ENDBRANCH   4  14
TORSDOF 4
ENDMDL
MODEL 6
REMARK VINA RESULT:      -5.4      2.995      4.308
REMARK  Name = 
REMARK  5 active torsions:
REMARK  status: ('A' for Active; 'I' for Inactive)
REMARK    1  A    between atoms: C_2  and  C_3
REMARK    2  A    between atoms: C_2  and  C_5
REMARK    3  A    between atoms: C_3  and  N_4
REMARK    4  A    between atoms: C_8  and  O_9
REMARK    5  A    between atoms: C_11  and  C_12
REMARK                            x       y       z     vdW  Elec       q    Type
REMARK                         _______ _______ _______ _____ _____    ______ ____
ROOT
ATOM      1  C   UNL     1       4.511   4.072  17.487  0.00  0.00    +0.000 A 
ATOM      2  C   UNL     1       5.232   3.768  16.317  0.00  0.00    +0.000 A 
ATOM      3  C   UNL     1       6.277   4.587  15.888  0.00  0.00    +0.000 A 
ATOM      4  C   UNL     1       6.601   5.717  16.627  0.00  0.00    +0.000 A 
ATOM      5  C   UNL     1       5.916   6.025  17.797  0.00  0.00    +0.000 A 
ATOM      6  C   UNL     1       4.868   5.205  18.248  0.00  0.00    +0.000 A 
ATOM      7  C   UNL     1       4.148   5.570  19.516  0.00  0.00    +0.000 C 
ENDROOT
BRANCH   1   9
ATOM      8  C   UNL     1       2.135   3.663  17.437  0.00  0.00    +0.000 C 
ATOM      9  C   UNL     1       3.348   3.222  17.817  0.00  0.00    +0.000 C 
BRANCH   9  10
ATOM     10  C   UNL     1       3.649   1.913  18.508  0.00  0.00    +0.000 C 
BRANCH  10  11
ATOM     11  N   UNL     1       4.736   1.990  19.483  0.00  0.00    +0.000 NA
ATOM     12  H   UNL     1       5.421   1.270  19.259  0.00  0.00    +0.000 HD
ATOM     13  H   UNL     1       4.371   1.752  20.403  0.00  0.00    +0.000 HD
ENDBRANCH  10  11
ENDBRANCH   9  10
ENDBRANCH   1   9
BRANCH   4  14
ATOM     14  O   UNL     1       7.590   6.566  16.228  0.00  0.00    +0.000 OA
ATOM     15  H   UNL     1       8.042   6.908  17.017  0.00  0.00    +0.000 HD
ENDBRANCH   4  14
TORSDOF 4
ENDMDL
MODEL 7
REMARK VINA RESULT:      -5.3      1.639      2.800
REMARK  Name = 
REMARK  5 active torsions:
REMARK  status: ('A' for Active; 'I' for Inactive)
REMARK    1  A    between atoms: C_2  and  C_3
REMARK    2  A    between atoms: C_2  and  C_5
REMARK    3  A    between atoms: C_3  and  N_4
REMARK    4  A    between atoms: C_8  and  O_9
REMARK    5  A    between atoms: C_11  and  C_12
REMARK                            x       y       z     vdW  Elec       q    Type
REMARK                         _______ _______ _______ _____ _____    ______ ____
ROOT
ATOM      1  C   UNL     1       5.487   5.304  17.854  0.00  0.00    +0.000 A 
ATOM      2  C   UNL     1       4.491   5.634  18.791  0.00  0.00    +0.000 A 
ATOM      3  C   UNL     1       3.202   5.111  18.679  0.00  0.00    +0.000 A 
ATOM      4  C   UNL     1       2.905   4.260  17.623  0.00  0.00    +0.000 A 
ATOM      5  C   UNL     1       3.880   3.904  16.697  0.00  0.00    +0.000 A 
ATOM      6  C   UNL     1       5.184   4.414  16.803  0.00  0.00    +0.000 A 
ATOM      7  C   UNL     1       6.212   4.009  15.782  0.00  0.00    +0.000 C 
ENDROOT
BRANCH   1   9
ATOM      8  C   UNL     1       6.910   7.201  17.415  0.00  0.00    +0.000 C 
ATOM      9  C   UNL     1       6.795   5.983  17.975  0.00  0.00    +0.000 C 
BRANCH   9  10
ATOM     10  C   UNL     1       7.857   5.255  18.763  0.00  0.00    +0.000 C 
BRANCH  10  11
ATOM     11  N   UNL     1       7.845   5.551  20.195  0.00  0.00    +0.000 NA
ATOM     12  H   UNL     1       6.919   5.895  20.445  0.00  0.00    +0.000 HD
ATOM     13  H   UNL     1       8.488   6.317  20.379  0.00  0.00    +0.000 HD
ENDBRANCH  10  11
ENDBRANCH   9  10
ENDBRANCH   1   9
BRANCH   4  14
ATOM     14  O   UNL     1       1.651   3.753  17.451  0.00  0.00    +0.000 OA
ATOM     15  H   UNL     1       1.699   3.013  16.823  0.00  0.00    +0.000 HD
ENDBRANCH   4  14
TORSDOF 4
ENDMDL
MODEL 8
REMARK VINA RESULT:      -5.3      3.049      4.235
REMARK  Name = 
REMARK  5 active torsions:
REMARK  status: ('A' for Active; 'I' for Inactive)
REMARK    1  A    between atoms: C_2  and  C_3
REMARK    2  A    between atoms: C_2  and  C_5
REMARK    3  A    between atoms: C_3  and  N_4
REMARK    4  A    between atoms: C_8  and  O_9
REMARK    5  A    between atoms: C_11  and  C_12
REMARK                            x       y       z     vdW  Elec       q    Type
REMARK                         _______ _______ _______ _____ _____    ______ ____
ROOT
ATOM      1  C   UNL     1       4.578   4.374  16.997  0.00  0.00    +0.000 A 
ATOM      2  C   UNL     1       5.285   3.407  16.259  0.00  0.00    +0.000 A 
ATOM      3  C   UNL     1       6.171   3.785  15.250  0.00  0.00    +0.000 A 
ATOM      4  C   UNL     1       6.349   5.134  14.973  0.00  0.00    +0.000 A 
ATOM      5  C   UNL     1       5.676   6.107  15.704  0.00  0.00    +0.000 A 
ATOM      6  C   UNL     1       4.788   5.743  16.730  0.00  0.00    +0.000 A 
ATOM      7  C   UNL     1       4.077   6.822  17.498  0.00  0.00    +0.000 C 
ENDROOT
BRANCH   1   9
ATOM      8  C   UNL     1       2.354   3.588  17.500  0.00  0.00    +0.000 C 
ATOM      9  C   UNL     1       3.576   3.895  17.973  0.00  0.00    +0.000 C 
BRANCH   9  10
ATOM     10  C   UNL     1       4.045   3.752  19.401  0.00  0.00    +0.000 C 
BRANCH  10  11
ATOM     11  N   UNL     1       4.847   2.555  19.647  0.00  0.00    +0.000 NA
ATOM     12  H   UNL     1       5.542   2.774  20.359  0.00  0.00    +0.000 HD
ATOM     13  H   UNL     1       5.371   2.329  18.804  0.00  0.00    +0.000 HD
ENDBRANCH  10  11
ENDBRANCH   9  10
ENDBRANCH   1   9
BRANCH   4  14
ATOM     14  O   UNL     1       7.176   5.550  13.972  0.00  0.00    +0.000 OA
ATOM     15  H   UNL     1       8.093   5.356  14.228  0.00  0.00    +0.000 HD
ENDBRANCH   4  14
TORSDOF 4
ENDMDL
MODEL 9
REMARK VINA RESULT:      -5.3      1.719      2.205
REMARK  Name = 
REMARK  5 active torsions:
REMARK  status: ('A' for Active; 'I' for Inactive)
REMARK    1  A    between atoms: C_2  and  C_3
REMARK    2  A    between atoms: C_2  and  C_5
REMARK    3  A    between atoms: C_3  and  N_4
REMARK    4  A    between atoms: C_8  and  O_9
REMARK    5  A    between atoms: C_11  and  C_12
REMARK                            x       y       z     vdW  Elec       q    Type
REMARK                         _______ _______ _______ _____ _____    ______ ____
ROOT
ATOM      1  C   UNL     1       4.923   4.444  16.953  0.00  0.00    +0.000 A 
ATOM      2  C   UNL     1       4.390   3.155  17.128  0.00  0.00    +0.000 A 
ATOM      3  C   UNL     1       3.124   2.974  17.685  0.00  0.00    +0.000 A 
ATOM      4  C   UNL     1       2.389   4.085  18.075  0.00  0.00    +0.000 A 
ATOM      5  C   UNL     1       2.888   5.370  17.891  0.00  0.00    +0.000 A 
ATOM      6  C   UNL     1       4.157   5.569  17.322  0.00  0.00    +0.000 A 
ATOM      7  C   UNL     1       4.665   6.973  17.142  0.00  0.00    +0.000 C 
ENDROOT
BRANCH   1   9
ATOM      8  C   UNL     1       7.292   4.586  17.382  0.00  0.00    +0.000 C 
ATOM      9  C   UNL     1       6.313   4.552  16.460  0.00  0.00    +0.000 C 
BRANCH   9  10
ATOM     10  C   UNL     1       6.493   4.562  14.961  0.00  0.00    +0.000 C 
BRANCH  10  11
ATOM     11  N   UNL     1       7.589   5.412  14.498  0.00  0.00    +0.000 NA
ATOM     12  H   UNL     1       7.706   5.270  13.496  0.00  0.00    +0.000 HD
ATOM     13  H   UNL     1       8.456   5.096  14.928  0.00  0.00    +0.000 HD
ENDBRANCH  10  11
ENDBRANCH   9  10
ENDBRANCH   1   9
BRANCH   4  14
ATOM     14  O   UNL     1       1.163   3.957  18.657  0.00  0.00    +0.000 OA
ATOM     15  H   UNL     1       0.556   3.553  18.015  0.00  0.00    +0.000 HD
ENDBRANCH   4  14
TORSDOF 4
ENDMDL
