MODEL 1
REMARK VINA RESULT:      -7.4      0.000      0.000
REMARK  Name = 
REMARK  10 active torsions:
REMARK  status: ('A' for Active; 'I' for Inactive)
REMARK    1  A    between atoms: C_1  and  C_2
REMARK    2  A    between atoms: C_2  and  C_3
REMARK    3  A    between atoms: C_3  and  N_4
REMARK    4  A    between atoms: N_4  and  C_5
REMARK    5  A    between atoms: N_4  and  C_12
REMARK    6  A    between atoms: C_5  and  C_6
REMARK    7  A    between atoms: C_14  and  C_15
REMARK    8  A    between atoms: C_18  and  C_19
REMARK    9  A    between atoms: C_22  and  C_23
REMARK   10  A    between atoms: C_30  and  C_31
REMARK                            x       y       z     vdW  Elec       q    Type
REMARK                         _______ _______ _______ _____ _____    ______ ____
ROOT
ATOM      1  C   UNL     1       3.520   5.919  18.236  0.00  0.00    +0.000 A 
ATOM      2  C   UNL     1       3.231   5.000  19.173  0.00  0.00    +0.000 A 
ATOM      3  C   UNL     1       2.282   5.386  20.244  0.00  0.00    +0.000 A 
ATOM      4  C   UNL     1       1.750   4.275  21.111  0.00  0.00    +0.000 C 
ATOM      5  N   UNL     1       1.822   6.584  20.436  0.00  0.00    +0.000 NA
ATOM      6  C   UNL     1       2.157   7.531  19.501  0.00  0.00    +0.000 A 
ATOM      7  C   UNL     1       1.702   8.822  19.307  0.00  0.00    +0.000 A 
ATOM      8  C   UNL     1       2.480   9.309  18.220  0.00  0.00    +0.000 A 
ATOM      9  C   UNL     1       2.524  10.677  17.628  0.00  0.00    +0.000 C 
ATOM     10  N   UNL     1       3.230   8.351  17.660  0.00  0.00    +0.000 NA
ATOM     11  N   UNL     1       3.017   7.241  18.428  0.00  0.00    +0.000 N 
ENDROOT
BRANCH   7  12
ATOM     12  C   UNL     1       0.678   9.495  20.103  0.00  0.00    +0.000 A 
ATOM     13  N   UNL     1       1.007   9.615  21.421  0.00  0.00    +0.000 NA
ATOM     14  C   UNL     1       0.183  10.325  22.228  0.00  0.00    +0.000 A 
ATOM     15  C   UNL     1      -0.990  10.920  21.802  0.00  0.00    +0.000 A 
ATOM     16  C   UNL     1      -1.332  10.764  20.456  0.00  0.00    +0.000 A 
ATOM     17  C   UNL     1      -0.484  10.072  19.582  0.00  0.00    +0.000 A 
ATOM     18 CL   UNL     1      -0.915  10.136  17.910  0.00  0.00    +0.000 Cl
BRANCH  15  19
ATOM     19  C   UNL     1      -1.834  11.736  22.730  0.00  0.00    +0.000 C 
ATOM     20  F   UNL     1      -2.389  11.013  23.740  0.00  0.00    +0.000 F 
ATOM     21  F   UNL     1      -1.124  12.730  23.331  0.00  0.00    +0.000 F 
ATOM     22  F   UNL     1      -2.867  12.349  22.093  0.00  0.00    +0.000 F 
ENDBRANCH  15  19
ENDBRANCH   7  12
BRANCH   1  23
ATOM     23  N   UNL     1       4.227   5.561  17.068  0.00  0.00    +0.000 N 
BRANCH  23  24
ATOM     24  C   UNL     1       4.016   4.263  16.366  0.00  0.00    +0.000 C 
BRANCH  24  26
ATOM     25  C   UNL     1       5.609   3.966  14.360  0.00  0.00    +0.000 C 
ATOM     26  C   UNL     1       5.301   3.623  15.808  0.00  0.00    +0.000 C 
ENDBRANCH  24  26
ENDBRANCH  23  24
BRANCH  23  27
ATOM     27  C   UNL     1       5.093   6.532  16.368  0.00  0.00    +0.000 C 
BRANCH  27  28
ATOM     28  C   UNL     1       6.321   6.846  17.206  0.00  0.00    +0.000 A 
ATOM     29  C   UNL     1       6.846   5.901  18.101  0.00  0.00    +0.000 A 
ATOM     30  C   UNL     1       7.934   6.222  18.918  0.00  0.00    +0.000 A 
ATOM     31  C   UNL     1       8.513   7.488  18.847  0.00  0.00    +0.000 A 
ATOM     32  C   UNL     1       8.024   8.424  17.939  0.00  0.00    +0.000 A 
ATOM     33  C   UNL     1       6.938   8.104  17.120  0.00  0.00    +0.000 A 
ENDBRANCH  27  28
ENDBRANCH  23  27
ENDBRANCH   1  23
TORSDOF 7
ENDMDL
MODEL 2
REMARK VINA RESULT:      -7.3      0.737      1.271
REMARK  Name = 
REMARK  10 active torsions:
REMARK  status: ('A' for Active; 'I' for Inactive)
REMARK    1  A    between atoms: C_1  and  C_2
REMARK    2  A    between atoms: C_2  and  C_3
REMARK    3  A    between atoms: C_3  and  N_4
REMARK    4  A    between atoms: N_4  and  C_5
REMARK    5  A    between atoms: N_4  and  C_12
REMARK    6  A    between atoms: C_5  and  C_6
REMARK    7  A    between atoms: C_14  and  C_15
REMARK    8  A    between atoms: C_18  and  C_19
REMARK    9  A    between atoms: C_22  and  C_23
REMARK   10  A    between atoms: C_30  and  C_31
REMARK                            x       y       z     vdW  Elec       q    Type
REMARK                         _______ _______ _______ _____ _____    ______ ____
ROOT
ATOM      1  C   UNL     1       3.471   5.551  18.484  0.00  0.00    +0.000 A 
ATOM      2  C   UNL     1       3.198   4.712  19.500  0.00  0.00    +0.000 A 
ATOM      3  C   UNL     1       2.285   5.196  20.562  0.00  0.00    +0.000 A 
ATOM      4  C   UNL     1       1.766   4.165  21.529  0.00  0.00    +0.000 C 
ATOM      5  N   UNL     1       1.845   6.412  20.669  0.00  0.00    +0.000 NA
ATOM      6  C   UNL     1       2.164   7.276  19.653  0.00  0.00    +0.000 A 
ATOM      7  C   UNL     1       1.718   8.555  19.369  0.00  0.00    +0.000 A 
ATOM      8  C   UNL     1       2.471   8.943  18.225  0.00  0.00    +0.000 A 
ATOM      9  C   UNL     1       2.514  10.258  17.525  0.00  0.00    +0.000 C 
ATOM     10  N   UNL     1       3.193   7.932  17.724  0.00  0.00    +0.000 NA
ATOM     11  N   UNL     1       2.990   6.890  18.583  0.00  0.00    +0.000 N 
ENDROOT
BRANCH   7  12
ATOM     12  C   UNL     1       0.726   9.303  20.137  0.00  0.00    +0.000 A 
ATOM     13  N   UNL     1       1.052   9.444  21.453  0.00  0.00    +0.000 NA
ATOM     14  C   UNL     1       0.261  10.220  22.232  0.00  0.00    +0.000 A 
ATOM     15  C   UNL     1      -0.876  10.861  21.780  0.00  0.00    +0.000 A 
ATOM     16  C   UNL     1      -1.217  10.684  20.436  0.00  0.00    +0.000 A 
ATOM     17  C   UNL     1      -0.401   9.924  19.590  0.00  0.00    +0.000 A 
ATOM     18 CL   UNL     1      -0.817   9.960  17.913  0.00  0.00    +0.000 Cl
BRANCH  15  19
ATOM     19  C   UNL     1      -1.683  11.747  22.677  0.00  0.00    +0.000 C 
ATOM     20  F   UNL     1      -0.947  12.701  23.308  0.00  0.00    +0.000 F 
ATOM     21  F   UNL     1      -2.657  12.416  22.000  0.00  0.00    +0.000 F 
ATOM     22  F   UNL     1      -2.321  11.054  23.658  0.00  0.00    +0.000 F 
ENDBRANCH  15  19
ENDBRANCH   7  12
BRANCH   1  23
ATOM     23  N   UNL     1       4.141   5.090  17.329  0.00  0.00    +0.000 N 
BRANCH  23  24
ATOM     24  C   UNL     1       3.901   3.741  16.744  0.00  0.00    +0.000 C 
BRANCH  24  26
ATOM     25  C   UNL     1       2.424   1.920  17.815  0.00  0.00    +0.000 C 
ATOM     26  C   UNL     1       2.484   3.186  16.977  0.00  0.00    +0.000 C 
ENDBRANCH  24  26
ENDBRANCH  23  24
BRANCH  23  27
ATOM     27  C   UNL     1       4.990   5.993  16.525  0.00  0.00    +0.000 C 
BRANCH  27  28
ATOM     28  C   UNL     1       6.226   6.396  17.311  0.00  0.00    +0.000 A 
ATOM     29  C   UNL     1       6.774   5.545  18.283  0.00  0.00    +0.000 A 
ATOM     30  C   UNL     1       7.870   5.953  19.050  0.00  0.00    +0.000 A 
ATOM     31  C   UNL     1       8.433   7.212  18.853  0.00  0.00    +0.000 A 
ATOM     32  C   UNL     1       7.921   8.053  17.867  0.00  0.00    +0.000 A 
ATOM     33  C   UNL     1       6.828   7.647  17.098  0.00  0.00    +0.000 A 
ENDBRANCH  27  28
ENDBRANCH  23  27
ENDBRANCH   1  23
TORSDOF 7
ENDMDL
MODEL 3
REMARK VINA RESULT:      -7.3      0.708      1.440
REMARK  Name = 
REMARK  10 active torsions:
REMARK  status: ('A' for Active; 'I' for Inactive)
REMARK    1  A    between atoms: C_1  and  C_2
REMARK    2  A    between atoms: C_2  and  C_3
REMARK    3  A    between atoms: C_3  and  N_4
REMARK    4  A    between atoms: N_4  and  C_5
REMARK    5  A    between atoms: N_4  and  C_12
REMARK    6  A    between atoms: C_5  and  C_6
REMARK    7  A    between atoms: C_14  and  C_15
REMARK    8  A    between atoms: C_18  and  C_19
REMARK    9  A    between atoms: C_22  and  C_23
REMARK   10  A    between atoms: C_30  and  C_31
REMARK                            x       y       z     vdW  Elec       q    Type
REMARK                         _______ _______ _______ _____ _____    ______ ____
ROOT
ATOM      1  C   UNL     1       3.301   5.651  18.424  0.00  0.00    +0.000 A 
ATOM      2  C   UNL     1       3.009   4.798  19.423  0.00  0.00    +0.000 A 
ATOM      3  C   UNL     1       2.109   5.281  20.496  0.00  0.00    +0.000 A 
ATOM      4  C   UNL     1       1.565   4.244  21.442  0.00  0.00    +0.000 C 
ATOM      5  N   UNL     1       1.698   6.506  20.629  0.00  0.00    +0.000 NA
ATOM      6  C   UNL     1       2.037   7.383  19.631  0.00  0.00    +0.000 A 
ATOM      7  C   UNL     1       1.623   8.677  19.374  0.00  0.00    +0.000 A 
ATOM      8  C   UNL     1       2.383   9.071  18.238  0.00  0.00    +0.000 A 
ATOM      9  C   UNL     1       2.458  10.398  17.564  0.00  0.00    +0.000 C 
ATOM     10  N   UNL     1       3.081   8.054  17.714  0.00  0.00    +0.000 NA
ATOM     11  N   UNL     1       2.853   6.999  18.552  0.00  0.00    +0.000 N 
ENDROOT
BRANCH   7  12
ATOM     12  C   UNL     1       0.650   9.433  20.158  0.00  0.00    +0.000 A 
ATOM     13  N   UNL     1       1.007   9.585  21.465  0.00  0.00    +0.000 NA
ATOM     14  C   UNL     1       0.235  10.369  22.256  0.00  0.00    +0.000 A 
ATOM     15  C   UNL     1      -0.912  11.008  21.825  0.00  0.00    +0.000 A 
ATOM     16  C   UNL     1      -1.284  10.820  20.491  0.00  0.00    +0.000 A 
ATOM     17  C   UNL     1      -0.489  10.051  19.633  0.00  0.00    +0.000 A 
ATOM     18 CL   UNL     1      -0.944  10.074  17.966  0.00  0.00    +0.000 Cl
BRANCH  15  19
ATOM     19  C   UNL     1      -1.696  11.902  22.734  0.00  0.00    +0.000 C 
ATOM     20  F   UNL     1      -2.648  12.632  22.092  0.00  0.00    +0.000 F 
ATOM     21  F   UNL     1      -2.352  11.205  23.702  0.00  0.00    +0.000 F 
ATOM     22  F   UNL     1      -0.911  12.800  23.388  0.00  0.00    +0.000 F 
ENDBRANCH  15  19
ENDBRANCH   7  12
BRANCH   1  23
ATOM     23  N   UNL     1       3.959   5.198  17.259  0.00  0.00    +0.000 N 
BRANCH  23  24
ATOM     24  C   UNL     1       3.627   3.904  16.600  0.00  0.00    +0.000 C 
BRANCH  24  26
ATOM     25  C   UNL     1       3.457   1.738  17.987  0.00  0.00    +0.000 C 
ATOM     26  C   UNL     1       4.348   2.680  17.196  0.00  0.00    +0.000 C 
ENDBRANCH  24  26
ENDBRANCH  23  24
BRANCH  23  27
ATOM     27  C   UNL     1       4.895   6.070  16.520  0.00  0.00    +0.000 C 
BRANCH  27  28
ATOM     28  C   UNL     1       6.095   6.412  17.386  0.00  0.00    +0.000 A 
ATOM     29  C   UNL     1       6.781   7.625  17.224  0.00  0.00    +0.000 A 
ATOM     30  C   UNL     1       7.926   7.902  17.978  0.00  0.00    +0.000 A 
ATOM     31  C   UNL     1       8.396   6.972  18.904  0.00  0.00    +0.000 A 
ATOM     32  C   UNL     1       7.705   5.779  19.100  0.00  0.00    +0.000 A 
ATOM     33  C   UNL     1       6.559   5.502  18.349  0.00  0.00    +0.000 A 
ENDBRANCH  27  28
ENDBRANCH  23  27
ENDBRANCH   1  23
TORSDOF 7
ENDMDL
MODEL 4
REMARK VINA RESULT:      -7.2      4.816      9.965
REMARK  Name = 
REMARK  10 active torsions:
REMARK  status: ('A' for Active; 'I' for Inactive)
REMARK    1  A    between atoms: C_1  and  C_2
REMARK    2  A    between atoms: C_2  and  C_3
REMARK    3  A    between atoms: C_3  and  N_4
REMARK    4  A    between atoms: N_4  and  C_5
REMARK    5  A    between atoms: N_4  and  C_12
REMARK    6  A    between atoms: C_5  and  C_6
REMARK    7  A    between atoms: C_14  and  C_15
REMARK    8  A    between atoms: C_18  and  C_19
REMARK    9  A    between atoms: C_22  and  C_23
REMARK   10  A    between atoms: C_30  and  C_31
REMARK                            x       y       z     vdW  Elec       q    Type
REMARK                         _______ _______ _______ _____ _____    ______ ____
ROOT
ATOM      1  C   UNL     1      -2.870  11.635  18.768  0.00  0.00    +0.000 A 
ATOM      2  C   UNL     1      -3.226  11.332  17.507  0.00  0.00    +0.000 A 
ATOM      3  C   UNL     1      -2.344  10.416  16.747  0.00  0.00    +0.000 A 
ATOM      4  C   UNL     1      -2.892   9.863  15.458  0.00  0.00    +0.000 C 
ATOM      5  N   UNL     1      -1.181  10.000  17.146  0.00  0.00    +0.000 NA
ATOM      6  C   UNL     1      -0.802  10.349  18.416  0.00  0.00    +0.000 A 
ATOM      7  C   UNL     1       0.261   9.935  19.199  0.00  0.00    +0.000 A 
ATOM      8  C   UNL     1       0.146  10.709  20.387  0.00  0.00    +0.000 A 
ATOM      9  C   UNL     1       1.068  10.789  21.555  0.00  0.00    +0.000 C 
ATOM     10  N   UNL     1      -0.991  11.417  20.426  0.00  0.00    +0.000 NA
ATOM     11  N   UNL     1      -1.597  11.181  19.225  0.00  0.00    +0.000 N 
ENDROOT
BRANCH   7  12
ATOM     12  C   UNL     1       1.268   8.949  18.816  0.00  0.00    +0.000 A 
ATOM     13  N   UNL     1       1.921   9.260  17.660  0.00  0.00    +0.000 NA
ATOM     14  C   UNL     1       2.955   8.476  17.273  0.00  0.00    +0.000 A 
ATOM     15  C   UNL     1       3.378   7.358  17.969  0.00  0.00    +0.000 A 
ATOM     16  C   UNL     1       2.682   7.032  19.136  0.00  0.00    +0.000 A 
ATOM     17  C   UNL     1       1.634   7.843  19.589  0.00  0.00    +0.000 A 
ATOM     18 CL   UNL     1       1.001   7.450  21.148  0.00  0.00    +0.000 Cl
BRANCH  15  19
ATOM     19  C   UNL     1       4.561   6.559  17.518  0.00  0.00    +0.000 C 
ATOM     20  F   UNL     1       4.481   6.147  16.224  0.00  0.00    +0.000 F 
ATOM     21  F   UNL     1       5.723   7.261  17.614  0.00  0.00    +0.000 F 
ATOM     22  F   UNL     1       4.743   5.434  18.260  0.00  0.00    +0.000 F 
ENDBRANCH  15  19
ENDBRANCH   7  12
BRANCH   1  23
ATOM     23  N   UNL     1      -3.765  12.310  19.628  0.00  0.00    +0.000 N 
BRANCH  23  24
ATOM     24  C   UNL     1      -3.332  12.939  20.907  0.00  0.00    +0.000 C 
BRANCH  24  26
ATOM     25  C   UNL     1      -1.615  14.801  20.431  0.00  0.00    +0.000 C 
ATOM     26  C   UNL     1      -3.043  14.448  20.811  0.00  0.00    +0.000 C 
ENDBRANCH  24  26
ENDBRANCH  23  24
BRANCH  23  27
ATOM     27  C   UNL     1      -5.158  12.587  19.218  0.00  0.00    +0.000 C 
BRANCH  27  28
ATOM     28  C   UNL     1      -6.089  11.509  19.747  0.00  0.00    +0.000 A 
ATOM     29  C   UNL     1      -6.218  10.278  19.087  0.00  0.00    +0.000 A 
ATOM     30  C   UNL     1      -7.128   9.318  19.541  0.00  0.00    +0.000 A 
ATOM     31  C   UNL     1      -7.917   9.576  20.661  0.00  0.00    +0.000 A 
ATOM     32  C   UNL     1      -7.774  10.780  21.346  0.00  0.00    +0.000 A 
ATOM     33  C   UNL     1      -6.864  11.740  20.895  0.00  0.00    +0.000 A 
ENDBRANCH  27  28
ENDBRANCH  23  27
ENDBRANCH   1  23
TORSDOF 7
ENDMDL
MODEL 5
REMARK VINA RESULT:      -7.0      4.418      9.970
REMARK  Name = 
REMARK  10 active torsions:
REMARK  status: ('A' for Active; 'I' for Inactive)
REMARK    1  A    between atoms: C_1  and  C_2
REMARK    2  A    between atoms: C_2  and  C_3
REMARK    3  A    between atoms: C_3  and  N_4
REMARK    4  A    between atoms: N_4  and  C_5
REMARK    5  A    between atoms: N_4  and  C_12
REMARK    6  A    between atoms: C_5  and  C_6
REMARK    7  A    between atoms: C_14  and  C_15
REMARK    8  A    between atoms: C_18  and  C_19
REMARK    9  A    between atoms: C_22  and  C_23
REMARK   10  A    between atoms: C_30  and  C_31
REMARK                            x       y       z     vdW  Elec       q    Type
REMARK                         _______ _______ _______ _____ _____    ______ ____
ROOT
ATOM      1  C   UNL     1      -1.358  11.811  20.839  0.00  0.00    +0.000 A 
ATOM      2  C   UNL     1      -1.879  11.827  19.600  0.00  0.00    +0.000 A 
ATOM      3  C   UNL     1      -1.429  10.780  18.653  0.00  0.00    +0.000 A 
ATOM      4  C   UNL     1      -2.220  10.632  17.380  0.00  0.00    +0.000 C 
ATOM      5  N   UNL     1      -0.464   9.940  18.874  0.00  0.00    +0.000 NA
ATOM      6  C   UNL     1       0.096   9.959  20.126  0.00  0.00    +0.000 A 
ATOM      7  C   UNL     1       0.993   9.102  20.738  0.00  0.00    +0.000 A 
ATOM      8  C   UNL     1       1.236   9.695  22.008  0.00  0.00    +0.000 A 
ATOM      9  C   UNL     1       2.201   9.292  23.070  0.00  0.00    +0.000 C 
ATOM     10  N   UNL     1       0.427  10.736  22.248  0.00  0.00    +0.000 NA
ATOM     11  N   UNL     1      -0.300  10.890  21.102  0.00  0.00    +0.000 N 
ENDROOT
BRANCH   7  12
ATOM     12  C   UNL     1       1.561   7.894  20.143  0.00  0.00    +0.000 A 
ATOM     13  N   UNL     1       1.332   6.768  20.877  0.00  0.00    +0.000 NA
ATOM     14  C   UNL     1       1.714   5.576  20.361  0.00  0.00    +0.000 A 
ATOM     15  C   UNL     1       2.345   5.430  19.140  0.00  0.00    +0.000 A 
ATOM     16  C   UNL     1       2.601   6.594  18.411  0.00  0.00    +0.000 A 
ATOM     17  C   UNL     1       2.185   7.841  18.893  0.00  0.00    +0.000 A 
ATOM     18 CL   UNL     1       2.370   9.168  17.802  0.00  0.00    +0.000 Cl
BRANCH  15  19
ATOM     19  C   UNL     1       2.697   4.079  18.599  0.00  0.00    +0.000 C 
ATOM     20  F   UNL     1       1.766   3.124  18.866  0.00  0.00    +0.000 F 
ATOM     21  F   UNL     1       2.843   4.089  17.245  0.00  0.00    +0.000 F 
ATOM     22  F   UNL     1       3.872   3.607  19.096  0.00  0.00    +0.000 F 
ENDBRANCH  15  19
ENDBRANCH   7  12
BRANCH   1  23
ATOM     23  N   UNL     1      -1.900  12.624  21.860  0.00  0.00    +0.000 N 
BRANCH  23  24
ATOM     24  C   UNL     1      -1.686  14.097  21.914  0.00  0.00    +0.000 C 
BRANCH  24  26
ATOM     25  C   UNL     1      -1.397  15.258  24.197  0.00  0.00    +0.000 C 
ATOM     26  C   UNL     1      -0.726  14.563  23.024  0.00  0.00    +0.000 C 
ENDBRANCH  24  26
ENDBRANCH  23  24
BRANCH  23  27
ATOM     27  C   UNL     1      -2.865  12.082  22.839  0.00  0.00    +0.000 C 
BRANCH  27  28
ATOM     28  C   UNL     1      -4.209  12.776  22.695  0.00  0.00    +0.000 A 
ATOM     29  C   UNL     1      -4.947  12.683  21.505  0.00  0.00    +0.000 A 
ATOM     30  C   UNL     1      -6.150  13.380  21.356  0.00  0.00    +0.000 A 
ATOM     31  C   UNL     1      -6.632  14.174  22.395  0.00  0.00    +0.000 A 
ATOM     32  C   UNL     1      -5.927  14.248  23.594  0.00  0.00    +0.000 A 
ATOM     33  C   UNL     1      -4.726  13.550  23.746  0.00  0.00    +0.000 A 
ENDBRANCH  27  28
ENDBRANCH  23  27
ENDBRANCH   1  23
TORSDOF 7
ENDMDL
MODEL 6
REMARK VINA RESULT:      -7.0      4.468      9.283
REMARK  Name = 
REMARK  10 active torsions:
REMARK  status: ('A' for Active; 'I' for Inactive)
REMARK    1  A    between atoms: C_1  and  C_2
REMARK    2  A    between atoms: C_2  and  C_3
REMARK    3  A    between atoms: C_3  and  N_4
REMARK    4  A    between atoms: N_4  and  C_5
REMARK    5  A    between atoms: N_4  and  C_12
REMARK    6  A    between atoms: C_5  and  C_6
REMARK    7  A    between atoms: C_14  and  C_15
REMARK    8  A    between atoms: C_18  and  C_19
REMARK    9  A    between atoms: C_22  and  C_23
REMARK   10  A    between atoms: C_30  and  C_31
REMARK                            x       y       z     vdW  Elec       q    Type
REMARK                         _______ _______ _______ _____ _____    ______ ____
ROOT
ATOM      1  C   UNL     1      -1.289  11.866  20.414  0.00  0.00    +0.000 A 
ATOM      2  C   UNL     1      -1.764  11.805  19.157  0.00  0.00    +0.000 A 
ATOM      3  C   UNL     1      -1.310  10.681  18.306  0.00  0.00    +0.000 A 
ATOM      4  C   UNL     1      -2.058  10.462  17.017  0.00  0.00    +0.000 C 
ATOM      5  N   UNL     1      -0.379   9.834  18.624  0.00  0.00    +0.000 NA
ATOM      6  C   UNL     1       0.134   9.928  19.892  0.00  0.00    +0.000 A 
ATOM      7  C   UNL     1       0.982   9.094  20.598  0.00  0.00    +0.000 A 
ATOM      8  C   UNL     1       1.196   9.771  21.830  0.00  0.00    +0.000 A 
ATOM      9  C   UNL     1       2.109   9.420  22.955  0.00  0.00    +0.000 C 
ATOM     10  N   UNL     1       0.410  10.848  21.964  0.00  0.00    +0.000 NA
ATOM     11  N   UNL     1      -0.269  10.938  20.782  0.00  0.00    +0.000 N 
ENDROOT
BRANCH   7  12
ATOM     12  C   UNL     1       1.536   7.832  20.113  0.00  0.00    +0.000 A 
ATOM     13  N   UNL     1       1.199   6.759  20.885  0.00  0.00    +0.000 NA
ATOM     14  C   UNL     1       1.561   5.524  20.464  0.00  0.00    +0.000 A 
ATOM     15  C   UNL     1       2.276   5.283  19.306  0.00  0.00    +0.000 A 
ATOM     16  C   UNL     1       2.641   6.392  18.538  0.00  0.00    +0.000 A 
ATOM     17  C   UNL     1       2.249   7.681  18.920  0.00  0.00    +0.000 A 
ATOM     18 CL   UNL     1       2.580   8.935  17.779  0.00  0.00    +0.000 Cl
BRANCH  15  19
ATOM     19  C   UNL     1       2.603   3.890  18.866  0.00  0.00    +0.000 C 
ATOM     20  F   UNL     1       1.847   3.455  17.823  0.00  0.00    +0.000 F 
ATOM     21  F   UNL     1       3.898   3.769  18.463  0.00  0.00    +0.000 F 
ATOM     22  F   UNL     1       2.436   2.976  19.859  0.00  0.00    +0.000 F 
ENDBRANCH  15  19
ENDBRANCH   7  12
BRANCH   1  23
ATOM     23  N   UNL     1      -1.844  12.765  21.351  0.00  0.00    +0.000 N 
BRANCH  23  24
ATOM     24  C   UNL     1      -3.149  12.520  22.026  0.00  0.00    +0.000 C 
BRANCH  24  26
ATOM     25  C   UNL     1      -4.155  12.629  24.397  0.00  0.00    +0.000 C 
ATOM     26  C   UNL     1      -3.036  12.114  23.507  0.00  0.00    +0.000 C 
ENDBRANCH  24  26
ENDBRANCH  23  24
BRANCH  23  27
ATOM     27  C   UNL     1      -1.072  13.920  21.854  0.00  0.00    +0.000 C 
BRANCH  27  28
ATOM     28  C   UNL     1      -1.182  15.090  20.890  0.00  0.00    +0.000 A 
ATOM     29  C   UNL     1      -2.234  16.013  20.990  0.00  0.00    +0.000 A 
ATOM     30  C   UNL     1      -2.367  17.046  20.057  0.00  0.00    +0.000 A 
ATOM     31  C   UNL     1      -1.448  17.171  19.017  0.00  0.00    +0.000 A 
ATOM     32  C   UNL     1      -0.379  16.283  18.925  0.00  0.00    +0.000 A 
ATOM     33  C   UNL     1      -0.244  15.251  19.857  0.00  0.00    +0.000 A 
ENDBRANCH  27  28
ENDBRANCH  23  27
ENDBRANCH   1  23
TORSDOF 7
ENDMDL
MODEL 7
REMARK VINA RESULT:      -7.0      4.318      9.937
REMARK  Name = 
REMARK  10 active torsions:
REMARK  status: ('A' for Active; 'I' for Inactive)
REMARK    1  A    between atoms: C_1  and  C_2
REMARK    2  A    between atoms: C_2  and  C_3
REMARK    3  A    between atoms: C_3  and  N_4
REMARK    4  A    between atoms: N_4  and  C_5
REMARK    5  A    between atoms: N_4  and  C_12
REMARK    6  A    between atoms: C_5  and  C_6
REMARK    7  A    between atoms: C_14  and  C_15
REMARK    8  A    between atoms: C_18  and  C_19
REMARK    9  A    between atoms: C_22  and  C_23
REMARK   10  A    between atoms: C_30  and  C_31
REMARK                            x       y       z     vdW  Elec       q    Type
REMARK                         _______ _______ _______ _____ _____    ______ ____
ROOT
ATOM      1  C   UNL     1      -1.781  11.762  20.513  0.00  0.00    +0.000 A 
ATOM      2  C   UNL     1      -2.192  11.783  19.233  0.00  0.00    +0.000 A 
ATOM      3  C   UNL     1      -1.572  10.815  18.298  0.00  0.00    +0.000 A 
ATOM      4  C   UNL     1      -2.234  10.652  16.955  0.00  0.00    +0.000 C 
ATOM      5  N   UNL     1      -0.561  10.051  18.578  0.00  0.00    +0.000 NA
ATOM      6  C   UNL     1      -0.115  10.067  19.875  0.00  0.00    +0.000 A 
ATOM      7  C   UNL     1       0.796   9.265  20.537  0.00  0.00    +0.000 A 
ATOM      8  C   UNL     1       0.876   9.827  21.842  0.00  0.00    +0.000 A 
ATOM      9  C   UNL     1       1.777   9.464  22.973  0.00  0.00    +0.000 C 
ATOM     10  N   UNL     1      -0.038  10.786  22.041  0.00  0.00    +0.000 NA
ATOM     11  N   UNL     1      -0.674  10.924  20.840  0.00  0.00    +0.000 N 
ENDROOT
BRANCH   7  12
ATOM     12  C   UNL     1       1.516   8.134  19.958  0.00  0.00    +0.000 A 
ATOM     13  N   UNL     1       1.374   6.978  20.667  0.00  0.00    +0.000 NA
ATOM     14  C   UNL     1       1.903   5.841  20.158  0.00  0.00    +0.000 A 
ATOM     15  C   UNL     1       2.604   5.782  18.968  0.00  0.00    +0.000 A 
ATOM     16  C   UNL     1       2.770   6.978  18.264  0.00  0.00    +0.000 A 
ATOM     17  C   UNL     1       2.201   8.166  18.739  0.00  0.00    +0.000 A 
ATOM     18 CL   UNL     1       2.297   9.523  17.673  0.00  0.00    +0.000 Cl
BRANCH  15  19
ATOM     19  C   UNL     1       3.122   4.484  18.430  0.00  0.00    +0.000 C 
ATOM     20  F   UNL     1       3.991   3.855  19.266  0.00  0.00    +0.000 F 
ATOM     21  F   UNL     1       2.123   3.591  18.191  0.00  0.00    +0.000 F 
ATOM     22  F   UNL     1       3.779   4.634  17.248  0.00  0.00    +0.000 F 
ENDBRANCH  15  19
ENDBRANCH   7  12
BRANCH   1  23
ATOM     23  N   UNL     1      -2.478  12.486  21.505  0.00  0.00    +0.000 N 
BRANCH  23  24
ATOM     24  C   UNL     1      -2.104  12.440  22.947  0.00  0.00    +0.000 C 
BRANCH  24  26
ATOM     25  C   UNL     1      -0.601  14.534  22.981  0.00  0.00    +0.000 C 
ATOM     26  C   UNL     1      -1.801  13.814  23.573  0.00  0.00    +0.000 C 
ENDBRANCH  24  26
ENDBRANCH  23  24
BRANCH  23  27
ATOM     27  C   UNL     1      -3.513  13.478  21.146  0.00  0.00    +0.000 C 
BRANCH  27  28
ATOM     28  C   UNL     1      -4.897  12.937  21.462  0.00  0.00    +0.000 A 
ATOM     29  C   UNL     1      -5.616  12.193  20.515  0.00  0.00    +0.000 A 
ATOM     30  C   UNL     1      -6.916  11.758  20.790  0.00  0.00    +0.000 A 
ATOM     31  C   UNL     1      -7.511  12.057  22.014  0.00  0.00    +0.000 A 
ATOM     32  C   UNL     1      -6.795  12.765  22.977  0.00  0.00    +0.000 A 
ATOM     33  C   UNL     1      -5.495  13.199  22.705  0.00  0.00    +0.000 A 
ENDBRANCH  27  28
ENDBRANCH  23  27
ENDBRANCH   1  23
TORSDOF 7
ENDMDL
MODEL 8
REMARK VINA RESULT:      -7.0      4.644     10.069
REMARK  Name = 
REMARK  10 active torsions:
REMARK  status: ('A' for Active; 'I' for Inactive)
REMARK    1  A    between atoms: C_1  and  C_2
REMARK    2  A    between atoms: C_2  and  C_3
REMARK    3  A    between atoms: C_3  and  N_4
REMARK    4  A    between atoms: N_4  and  C_5
REMARK    5  A    between atoms: N_4  and  C_12
REMARK    6  A    between atoms: C_5  and  C_6
REMARK    7  A    between atoms: C_14  and  C_15
REMARK    8  A    between atoms: C_18  and  C_19
REMARK    9  A    between atoms: C_22  and  C_23
REMARK   10  A    between atoms: C_30  and  C_31
REMARK                            x       y       z     vdW  Elec       q    Type
REMARK                         _______ _______ _______ _____ _____    ______ ____
ROOT
ATOM      1  C   UNL     1      -2.663  11.924  19.120  0.00  0.00    +0.000 A 
ATOM      2  C   UNL     1      -3.213  11.497  17.970  0.00  0.00    +0.000 A 
ATOM      3  C   UNL     1      -2.485  10.455  17.207  0.00  0.00    +0.000 A 
ATOM      4  C   UNL     1      -3.238   9.786  16.087  0.00  0.00    +0.000 C 
ATOM      5  N   UNL     1      -1.290  10.029  17.481  0.00  0.00    +0.000 NA
ATOM      6  C   UNL     1      -0.714  10.502  18.632  0.00  0.00    +0.000 A 
ATOM      7  C   UNL     1       0.439  10.127  19.296  0.00  0.00    +0.000 A 
ATOM      8  C   UNL     1       0.529  11.038  20.386  0.00  0.00    +0.000 A 
ATOM      9  C   UNL     1       1.618  11.204  21.390  0.00  0.00    +0.000 C 
ATOM     10  N   UNL     1      -0.565  11.802  20.503  0.00  0.00    +0.000 NA
ATOM     11  N   UNL     1      -1.351  11.461  19.439  0.00  0.00    +0.000 N 
ENDROOT
BRANCH   7  12
ATOM     12  C   UNL     1       1.344   9.054  18.895  0.00  0.00    +0.000 A 
ATOM     13  N   UNL     1       1.970   9.287  17.706  0.00  0.00    +0.000 NA
ATOM     14  C   UNL     1       2.918   8.412  17.295  0.00  0.00    +0.000 A 
ATOM     15  C   UNL     1       3.277   7.277  17.997  0.00  0.00    +0.000 A 
ATOM     16  C   UNL     1       2.608   7.032  19.199  0.00  0.00    +0.000 A 
ATOM     17  C   UNL     1       1.651   7.936  19.677  0.00  0.00    +0.000 A 
ATOM     18 CL   UNL     1       1.056   7.627  21.270  0.00  0.00    +0.000 Cl
BRANCH  15  19
ATOM     19  C   UNL     1       4.370   6.374  17.516  0.00  0.00    +0.000 C 
ATOM     20  F   UNL     1       5.205   5.953  18.504  0.00  0.00    +0.000 F 
ATOM     21  F   UNL     1       3.883   5.243  16.934  0.00  0.00    +0.000 F 
ATOM     22  F   UNL     1       5.161   6.964  16.580  0.00  0.00    +0.000 F 
ENDBRANCH  15  19
ENDBRANCH   7  12
BRANCH   1  23
ATOM     23  N   UNL     1      -3.396  12.737  20.011  0.00  0.00    +0.000 N 
BRANCH  23  24
ATOM     24  C   UNL     1      -2.810  13.289  21.265  0.00  0.00    +0.000 C 
BRANCH  24  26
ATOM     25  C   UNL     1      -3.521  13.126  23.737  0.00  0.00    +0.000 C 
ATOM     26  C   UNL     1      -3.006  12.399  22.507  0.00  0.00    +0.000 C 
ENDBRANCH  24  26
ENDBRANCH  23  24
BRANCH  23  27
ATOM     27  C   UNL     1      -4.741  13.239  19.660  0.00  0.00    +0.000 C 
BRANCH  27  28
ATOM     28  C   UNL     1      -5.812  12.381  20.311  0.00  0.00    +0.000 A 
ATOM     29  C   UNL     1      -6.241  11.185  19.716  0.00  0.00    +0.000 A 
ATOM     30  C   UNL     1      -7.275  10.436  20.285  0.00  0.00    +0.000 A 
ATOM     31  C   UNL     1      -7.891  10.871  21.457  0.00  0.00    +0.000 A 
ATOM     32  C   UNL     1      -7.452  12.039  22.078  0.00  0.00    +0.000 A 
ATOM     33  C   UNL     1      -6.417  12.787  21.511  0.00  0.00    +0.000 A 
ENDBRANCH  27  28
ENDBRANCH  23  27
ENDBRANCH   1  23
TORSDOF 7
ENDMDL
MODEL 9
REMARK VINA RESULT:      -6.9      6.197      7.626
REMARK  Name = 
REMARK  10 active torsions:
REMARK  status: ('A' for Active; 'I' for Inactive)
REMARK    1  A    between atoms: C_1  and  C_2
REMARK    2  A    between atoms: C_2  and  C_3
REMARK    3  A    between atoms: C_3  and  N_4
REMARK    4  A    between atoms: N_4  and  C_5
REMARK    5  A    between atoms: N_4  and  C_12
REMARK    6  A    between atoms: C_5  and  C_6
REMARK    7  A    between atoms: C_14  and  C_15
REMARK    8  A    between atoms: C_18  and  C_19
REMARK    9  A    between atoms: C_22  and  C_23
REMARK   10  A    between atoms: C_30  and  C_31
REMARK                            x       y       z     vdW  Elec       q    Type
REMARK                         _______ _______ _______ _____ _____    ______ ____
ROOT
ATOM      1  C   UNL     1       6.818  14.661  20.660  0.00  0.00    +0.000 A 
ATOM      2  C   UNL     1       7.119  14.272  21.912  0.00  0.00    +0.000 A 
ATOM      3  C   UNL     1       5.998  13.867  22.792  0.00  0.00    +0.000 A 
ATOM      4  C   UNL     1       6.363  13.170  24.076  0.00  0.00    +0.000 C 
ATOM      5  N   UNL     1       4.739  13.998  22.504  0.00  0.00    +0.000 NA
ATOM      6  C   UNL     1       4.437  14.439  21.241  0.00  0.00    +0.000 A 
ATOM      7  C   UNL     1       3.234  14.514  20.564  0.00  0.00    +0.000 A 
ATOM      8  C   UNL     1       3.567  15.119  19.320  0.00  0.00    +0.000 A 
ATOM      9  C   UNL     1       2.671  15.562  18.215  0.00  0.00    +0.000 C 
ATOM     10  N   UNL     1       4.890  15.247  19.154  0.00  0.00    +0.000 NA
ATOM     11  N   UNL     1       5.438  14.805  20.324  0.00  0.00    +0.000 N 
ENDROOT
BRANCH   7  12
ATOM     12  C   UNL     1       1.935  14.091  21.083  0.00  0.00    +0.000 A 
ATOM     13  N   UNL     1       1.645  12.785  20.820  0.00  0.00    +0.000 NA
ATOM     14  C   UNL     1       0.519  12.256  21.355  0.00  0.00    +0.000 A 
ATOM     15  C   UNL     1      -0.372  12.967  22.135  0.00  0.00    +0.000 A 
ATOM     16  C   UNL     1      -0.081  14.313  22.372  0.00  0.00    +0.000 A 
ATOM     17  C   UNL     1       1.095  14.885  21.870  0.00  0.00    +0.000 A 
ATOM     18 CL   UNL     1       1.441  16.489  22.411  0.00  0.00    +0.000 Cl
BRANCH  15  19
ATOM     19  C   UNL     1      -1.575  12.313  22.741  0.00  0.00    +0.000 C 
ATOM     20  F   UNL     1      -2.197  13.077  23.680  0.00  0.00    +0.000 F 
ATOM     21  F   UNL     1      -2.525  12.020  21.811  0.00  0.00    +0.000 F 
ATOM     22  F   UNL     1      -1.276  11.135  23.353  0.00  0.00    +0.000 F 
ENDBRANCH  15  19
ENDBRANCH   7  12
BRANCH   1  23
ATOM     23  N   UNL     1       7.835  14.840  19.697  0.00  0.00    +0.000 N 
BRANCH  23  24
ATOM     24  C   UNL     1       8.823  15.952  19.767  0.00  0.00    +0.000 C 
BRANCH  24  26
ATOM     25  C   UNL     1      10.041  16.935  17.718  0.00  0.00    +0.000 C 
ATOM     26  C   UNL     1       8.783  16.919  18.569  0.00  0.00    +0.000 C 
ENDBRANCH  24  26
ENDBRANCH  23  24
BRANCH  23  27
ATOM     27  C   UNL     1       8.091  13.823  18.655  0.00  0.00    +0.000 C 
BRANCH  27  28
ATOM     28  C   UNL     1       9.436  13.156  18.886  0.00  0.00    +0.000 A 
ATOM     29  C   UNL     1      10.397  13.093  17.865  0.00  0.00    +0.000 A 
ATOM     30  C   UNL     1      11.604  12.418  18.064  0.00  0.00    +0.000 A 
ATOM     31  C   UNL     1      11.868  11.800  19.285  0.00  0.00    +0.000 A 
ATOM     32  C   UNL     1      10.938  11.884  20.319  0.00  0.00    +0.000 A 
ATOM     33  C   UNL     1       9.731  12.561  20.123  0.00  0.00    +0.000 A 
ENDBRANCH  27  28
ENDBRANCH  23  27
ENDBRANCH   1  23
TORSDOF 7
ENDMDL
