MODEL 1
REMARK VINA RESULT:      -8.2      0.000      0.000
REMARK  Name = 
REMARK  8 active torsions:
REMARK  status: ('A' for Active; 'I' for Inactive)
REMARK    1  A    between atoms: C_1  and  C_2
REMARK    2  A    between atoms: C_2  and  C_3
REMARK    3  A    between atoms: C_2  and  O_4
REMARK    4  A    between atoms: O_4  and  C_5
REMARK    5  A    between atoms: C_10  and  O_11
REMARK    6  A    between atoms: O_11  and  C_12
REMARK    7  A    between atoms: N_20  and  C_21
REMARK    8  A    between atoms: C_24  and  C_25
REMARK                            x       y       z     vdW  Elec       q    Type
REMARK                         _______ _______ _______ _____ _____    ______ ____
ROOT
ATOM      1  C   UNL     1       2.880   6.437  18.709  0.00  0.00    +0.000 A 
ATOM      2  N   UNL     1       2.755   5.623  19.767  0.00  0.00    +0.000 NA
ATOM      3  C   UNL     1       1.975   6.071  20.759  0.00  0.00    +0.000 A 
ATOM      4  N   UNL     1       1.323   7.239  20.789  0.00  0.00    +0.000 NA
ATOM      5  C   UNL     1       1.475   8.019  19.714  0.00  0.00    +0.000 A 
ATOM      6  C   UNL     1       2.261   7.656  18.643  0.00  0.00    +0.000 A 
ATOM      7  C   UNL     1       2.248   8.693  17.590  0.00  0.00    +0.000 C 
ATOM      8  C   UNL     1       1.486   9.835  18.292  0.00  0.00    +0.000 C 
ATOM      9  N   UNL     1       0.874   9.300  19.520  0.00  0.00    +0.000 N 
ENDROOT
BRANCH   9  10
ATOM     10  C   UNL     1       0.126  10.094  20.398  0.00  0.00    +0.000 A 
ATOM     11  C   UNL     1       0.257   9.959  21.792  0.00  0.00    +0.000 A 
ATOM     12  C   UNL     1      -0.438  10.776  22.695  0.00  0.00    +0.000 A 
ATOM     13  C   UNL     1      -1.308  11.755  22.222  0.00  0.00    +0.000 A 
ATOM     14  C   UNL     1      -1.495  11.894  20.851  0.00  0.00    +0.000 A 
ATOM     15  C   UNL     1      -0.794  11.071  19.965  0.00  0.00    +0.000 A 
ATOM     16  F   UNL     1      -1.024  11.263  18.656  0.00  0.00    +0.000 F 
BRANCH  13  17
ATOM     17  C   UNL     1      -2.001  12.606  23.136  0.00  0.00    +0.000 C 
ATOM     18  N   UNL     1      -2.566  13.297  23.877  0.00  0.00    +0.000 NA
ENDBRANCH  13  17
ENDBRANCH   9  10
BRANCH   1  19
ATOM     19  O   UNL     1       3.605   6.013  17.621  0.00  0.00    +0.000 OA
BRANCH  19  25
ATOM     20  C   UNL     1       6.759   4.649  14.207  0.00  0.00    +0.000 C 
ATOM     21  O   UNL     1       7.547   5.511  13.829  0.00  0.00    +0.000 OA
ATOM     22  N   UNL     1       5.905   4.846  15.279  0.00  0.00    +0.000 N 
ATOM     23  C   UNL     1       5.841   6.185  15.846  0.00  0.00    +0.000 C 
ATOM     24  C   UNL     1       5.968   6.116  17.359  0.00  0.00    +0.000 C 
ATOM     25  C   UNL     1       4.813   5.293  17.931  0.00  0.00    +0.000 C 
ATOM     26  C   UNL     1       4.845   3.884  17.304  0.00  0.00    +0.000 C 
ATOM     27  C   UNL     1       4.907   3.898  15.770  0.00  0.00    +0.000 C 
BRANCH  20  28
ATOM     28  O   UNL     1       6.655   3.429  13.605  0.00  0.00    +0.000 OA
BRANCH  28  30
ATOM     29  C   UNL     1       7.033   2.361  11.445  0.00  0.00    +0.000 C 
ATOM     30  C   UNL     1       6.358   3.510  12.191  0.00  0.00    +0.000 C 
ATOM     31  C   UNL     1       4.849   3.466  11.980  0.00  0.00    +0.000 C 
ENDBRANCH  28  30
ENDBRANCH  20  28
ENDBRANCH  19  25
ENDBRANCH   1  19
TORSDOF 6
ENDMDL
MODEL 2
REMARK VINA RESULT:      -8.2      0.969      1.093
REMARK  Name = 
REMARK  8 active torsions:
REMARK  status: ('A' for Active; 'I' for Inactive)
REMARK    1  A    between atoms: C_1  and  C_2
REMARK    2  A    between atoms: C_2  and  C_3
REMARK    3  A    between atoms: C_2  and  O_4
REMARK    4  A    between atoms: O_4  and  C_5
REMARK    5  A    between atoms: C_10  and  O_11
REMARK    6  A    between atoms: O_11  and  C_12
REMARK    7  A    between atoms: N_20  and  C_21
REMARK    8  A    between atoms: C_24  and  C_25
REMARK                            x       y       z     vdW  Elec       q    Type
REMARK                         _______ _______ _______ _____ _____    ______ ____
ROOT
ATOM      1  C   UNL     1       2.782   6.269  18.871  0.00  0.00    +0.000 A 
ATOM      2  N   UNL     1       2.575   5.530  19.970  0.00  0.00    +0.000 NA
ATOM      3  C   UNL     1       1.910   6.133  20.963  0.00  0.00    +0.000 A 
ATOM      4  N   UNL     1       1.443   7.388  20.957  0.00  0.00    +0.000 NA
ATOM      5  C   UNL     1       1.671   8.088  19.841  0.00  0.00    +0.000 A 
ATOM      6  C   UNL     1       2.352   7.565  18.765  0.00  0.00    +0.000 A 
ATOM      7  C   UNL     1       2.456   8.545  17.665  0.00  0.00    +0.000 C 
ATOM      8  C   UNL     1       1.903   9.819  18.334  0.00  0.00    +0.000 C 
ATOM      9  N   UNL     1       1.263   9.437  19.605  0.00  0.00    +0.000 N 
ENDROOT
BRANCH   9  10
ATOM     10  C   UNL     1       0.677  10.372  20.466  0.00  0.00    +0.000 A 
ATOM     11  C   UNL     1       1.123  11.705  20.506  0.00  0.00    +0.000 A 
ATOM     12  C   UNL     1       0.521  12.675  21.319  0.00  0.00    +0.000 A 
ATOM     13  C   UNL     1      -0.550  12.331  22.139  0.00  0.00    +0.000 A 
ATOM     14  C   UNL     1      -0.996  11.013  22.158  0.00  0.00    +0.000 A 
ATOM     15  C   UNL     1      -0.384  10.059  21.341  0.00  0.00    +0.000 A 
ATOM     16  F   UNL     1      -0.868   8.809  21.411  0.00  0.00    +0.000 F 
BRANCH  13  17
ATOM     17  C   UNL     1      -1.184  13.321  22.952  0.00  0.00    +0.000 C 
ATOM     18  N   UNL     1      -1.697  14.122  23.614  0.00  0.00    +0.000 NA
ENDBRANCH  13  17
ENDBRANCH   9  10
BRANCH   1  19
ATOM     19  O   UNL     1       3.394   5.693  17.783  0.00  0.00    +0.000 OA
BRANCH  19  25
ATOM     20  C   UNL     1       6.547   4.622  14.266  0.00  0.00    +0.000 C 
ATOM     21  O   UNL     1       7.251   5.548  13.876  0.00  0.00    +0.000 OA
ATOM     22  N   UNL     1       5.712   4.739  15.364  0.00  0.00    +0.000 N 
ATOM     23  C   UNL     1       5.555   6.063  15.948  0.00  0.00    +0.000 C 
ATOM     24  C   UNL     1       5.731   5.991  17.455  0.00  0.00    +0.000 C 
ATOM     25  C   UNL     1       4.664   5.071  18.051  0.00  0.00    +0.000 C 
ATOM     26  C   UNL     1       4.792   3.675  17.407  0.00  0.00    +0.000 C 
ATOM     27  C   UNL     1       4.809   3.708  15.872  0.00  0.00    +0.000 C 
BRANCH  20  28
ATOM     28  O   UNL     1       6.525   3.403  13.654  0.00  0.00    +0.000 OA
BRANCH  28  30
ATOM     29  C   UNL     1       6.790   2.261  11.515  0.00  0.00    +0.000 C 
ATOM     30  C   UNL     1       6.215   3.475  12.242  0.00  0.00    +0.000 C 
ATOM     31  C   UNL     1       4.705   3.541  12.050  0.00  0.00    +0.000 C 
ENDBRANCH  28  30
ENDBRANCH  20  28
ENDBRANCH  19  25
ENDBRANCH   1  19
TORSDOF 6
ENDMDL
MODEL 3
REMARK VINA RESULT:      -7.7      1.262      1.403
REMARK  Name = 
REMARK  8 active torsions:
REMARK  status: ('A' for Active; 'I' for Inactive)
REMARK    1  A    between atoms: C_1  and  C_2
REMARK    2  A    between atoms: C_2  and  C_3
REMARK    3  A    between atoms: C_2  and  O_4
REMARK    4  A    between atoms: O_4  and  C_5
REMARK    5  A    between atoms: C_10  and  O_11
REMARK    6  A    between atoms: O_11  and  C_12
REMARK    7  A    between atoms: N_20  and  C_21
REMARK    8  A    between atoms: C_24  and  C_25
REMARK                            x       y       z     vdW  Elec       q    Type
REMARK                         _______ _______ _______ _____ _____    ______ ____
ROOT
ATOM      1  C   UNL     1       2.572   7.128  18.941  0.00  0.00    +0.000 A 
ATOM      2  N   UNL     1       2.342   6.451  20.074  0.00  0.00    +0.000 NA
ATOM      3  C   UNL     1       1.604   7.085  20.994  0.00  0.00    +0.000 A 
ATOM      4  N   UNL     1       1.086   8.315  20.884  0.00  0.00    +0.000 NA
ATOM      5  C   UNL     1       1.339   8.953  19.737  0.00  0.00    +0.000 A 
ATOM      6  C   UNL     1       2.095   8.394  18.731  0.00  0.00    +0.000 A 
ATOM      7  C   UNL     1       2.212   9.307  17.575  0.00  0.00    +0.000 C 
ATOM      8  C   UNL     1       1.573  10.594  18.133  0.00  0.00    +0.000 C 
ATOM      9  N   UNL     1       0.888  10.265  19.395  0.00  0.00    +0.000 N 
ENDROOT
BRANCH   9  10
ATOM     10  C   UNL     1       0.222  11.225  20.166  0.00  0.00    +0.000 A 
ATOM     11  C   UNL     1      -1.174  11.186  20.333  0.00  0.00    +0.000 A 
ATOM     12  C   UNL     1      -1.860  12.101  21.142  0.00  0.00    +0.000 A 
ATOM     13  C   UNL     1      -1.162  13.106  21.804  0.00  0.00    +0.000 A 
ATOM     14  C   UNL     1       0.215  13.204  21.635  0.00  0.00    +0.000 A 
ATOM     15  C   UNL     1       0.884  12.282  20.824  0.00  0.00    +0.000 A 
ATOM     16  F   UNL     1       2.213  12.437  20.709  0.00  0.00    +0.000 F 
BRANCH  13  17
ATOM     17  C   UNL     1      -1.854  14.028  22.650  0.00  0.00    +0.000 C 
ATOM     18  N   UNL     1      -2.417  14.776  23.334  0.00  0.00    +0.000 NA
ENDBRANCH  13  17
ENDBRANCH   9  10
BRANCH   1  19
ATOM     19  O   UNL     1       3.260   6.513  17.922  0.00  0.00    +0.000 OA
BRANCH  19  25
ATOM     20  C   UNL     1       6.612   4.726  14.917  0.00  0.00    +0.000 C 
ATOM     21  O   UNL     1       7.615   5.416  14.760  0.00  0.00    +0.000 OA
ATOM     22  N   UNL     1       5.644   5.032  15.858  0.00  0.00    +0.000 N 
ATOM     23  C   UNL     1       5.758   6.309  16.545  0.00  0.00    +0.000 C 
ATOM     24  C   UNL     1       5.602   6.109  18.044  0.00  0.00    +0.000 C 
ATOM     25  C   UNL     1       4.220   5.524  18.339  0.00  0.00    +0.000 C 
ATOM     26  C   UNL     1       4.070   4.190  17.580  0.00  0.00    +0.000 C 
ATOM     27  C   UNL     1       4.402   4.295  16.085  0.00  0.00    +0.000 C 
BRANCH  20  28
ATOM     28  O   UNL     1       6.367   3.603  14.182  0.00  0.00    +0.000 OA
BRANCH  28  30
ATOM     29  C   UNL     1       7.223   3.135  11.947  0.00  0.00    +0.000 C 
ATOM     30  C   UNL     1       6.171   3.871  12.773  0.00  0.00    +0.000 C 
ATOM     31  C   UNL     1       4.771   3.437  12.357  0.00  0.00    +0.000 C 
ENDBRANCH  28  30
ENDBRANCH  20  28
ENDBRANCH  19  25
ENDBRANCH   1  19
TORSDOF 6
ENDMDL
MODEL 4
REMARK VINA RESULT:      -7.7      1.431      1.737
REMARK  Name = 
REMARK  8 active torsions:
REMARK  status: ('A' for Active; 'I' for Inactive)
REMARK    1  A    between atoms: C_1  and  C_2
REMARK    2  A    between atoms: C_2  and  C_3
REMARK    3  A    between atoms: C_2  and  O_4
REMARK    4  A    between atoms: O_4  and  C_5
REMARK    5  A    between atoms: C_10  and  O_11
REMARK    6  A    between atoms: O_11  and  C_12
REMARK    7  A    between atoms: N_20  and  C_21
REMARK    8  A    between atoms: C_24  and  C_25
REMARK                            x       y       z     vdW  Elec       q    Type
REMARK                         _______ _______ _______ _____ _____    ______ ____
ROOT
ATOM      1  C   UNL     1       2.361   7.293  19.374  0.00  0.00    +0.000 A 
ATOM      2  N   UNL     1       2.006   6.639  20.489  0.00  0.00    +0.000 NA
ATOM      3  C   UNL     1       1.125   7.267  21.279  0.00  0.00    +0.000 A 
ATOM      4  N   UNL     1       0.580   8.469  21.059  0.00  0.00    +0.000 NA
ATOM      5  C   UNL     1       0.961   9.085  19.935  0.00  0.00    +0.000 A 
ATOM      6  C   UNL     1       1.867   8.530  19.059  0.00  0.00    +0.000 A 
ATOM      7  C   UNL     1       2.104   9.414  17.899  0.00  0.00    +0.000 C 
ATOM      8  C   UNL     1       1.346  10.688  18.322  0.00  0.00    +0.000 C 
ATOM      9  N   UNL     1       0.510  10.365  19.491  0.00  0.00    +0.000 N 
ENDROOT
BRANCH   9  10
ATOM     10  C   UNL     1      -0.291  11.318  20.132  0.00  0.00    +0.000 A 
ATOM     11  C   UNL     1       0.121  11.930  21.329  0.00  0.00    +0.000 A 
ATOM     12  C   UNL     1      -0.635  12.925  21.964  0.00  0.00    +0.000 A 
ATOM     13  C   UNL     1      -1.850  13.331  21.420  0.00  0.00    +0.000 A 
ATOM     14  C   UNL     1      -2.313  12.722  20.257  0.00  0.00    +0.000 A 
ATOM     15  C   UNL     1      -1.545  11.732  19.637  0.00  0.00    +0.000 A 
ATOM     16  F   UNL     1      -2.054  11.191  18.519  0.00  0.00    +0.000 F 
BRANCH  13  17
ATOM     17  C   UNL     1      -2.614  14.361  22.050  0.00  0.00    +0.000 C 
ATOM     18  N   UNL     1      -3.231  15.198  22.563  0.00  0.00    +0.000 NA
ENDBRANCH  13  17
ENDBRANCH   9  10
BRANCH   1  19
ATOM     19  O   UNL     1       3.204   6.679  18.479  0.00  0.00    +0.000 OA
BRANCH  19  25
ATOM     20  C   UNL     1       6.786   4.331  16.217  0.00  0.00    +0.000 C 
ATOM     21  O   UNL     1       7.921   4.567  16.620  0.00  0.00    +0.000 OA
ATOM     22  N   UNL     1       5.658   4.807  16.863  0.00  0.00    +0.000 N 
ATOM     23  C   UNL     1       5.858   5.757  17.947  0.00  0.00    +0.000 C 
ATOM     24  C   UNL     1       5.047   5.339  19.162  0.00  0.00    +0.000 C 
ATOM     25  C   UNL     1       3.561   5.322  18.803  0.00  0.00    +0.000 C 
ATOM     26  C   UNL     1       3.342   4.351  17.625  0.00  0.00    +0.000 C 
ATOM     27  C   UNL     1       4.275   4.613  16.433  0.00  0.00    +0.000 C 
BRANCH  20  28
ATOM     28  O   UNL     1       6.540   3.582  15.104  0.00  0.00    +0.000 OA
BRANCH  28  30
ATOM     29  C   UNL     1       7.632   5.022  13.466  0.00  0.00    +0.000 C 
ATOM     30  C   UNL     1       6.322   4.377  13.914  0.00  0.00    +0.000 C 
ATOM     31  C   UNL     1       5.758   3.498  12.804  0.00  0.00    +0.000 C 
ENDBRANCH  28  30
ENDBRANCH  20  28
ENDBRANCH  19  25
ENDBRANCH   1  19
TORSDOF 6
ENDMDL
MODEL 5
REMARK VINA RESULT:      -7.7      1.640      1.865
REMARK  Name = 
REMARK  8 active torsions:
REMARK  status: ('A' for Active; 'I' for Inactive)
REMARK    1  A    between atoms: C_1  and  C_2
REMARK    2  A    between atoms: C_2  and  C_3
REMARK    3  A    between atoms: C_2  and  O_4
REMARK    4  A    between atoms: O_4  and  C_5
REMARK    5  A    between atoms: C_10  and  O_11
REMARK    6  A    between atoms: O_11  and  C_12
REMARK    7  A    between atoms: N_20  and  C_21
REMARK    8  A    between atoms: C_24  and  C_25
REMARK                            x       y       z     vdW  Elec       q    Type
REMARK                         _______ _______ _______ _____ _____    ______ ____
ROOT
ATOM      1  C   UNL     1       2.224   6.594  19.237  0.00  0.00    +0.000 A 
ATOM      2  N   UNL     1       1.859   6.136  20.443  0.00  0.00    +0.000 NA
ATOM      3  C   UNL     1       1.296   7.035  21.262  0.00  0.00    +0.000 A 
ATOM      4  N   UNL     1       1.073   8.326  20.989  0.00  0.00    +0.000 NA
ATOM      5  C   UNL     1       1.451   8.738  19.775  0.00  0.00    +0.000 A 
ATOM      6  C   UNL     1       2.046   7.898  18.861  0.00  0.00    +0.000 A 
ATOM      7  C   UNL     1       2.355   8.605  17.601  0.00  0.00    +0.000 C 
ATOM      8  C   UNL     1       2.035  10.065  17.981  0.00  0.00    +0.000 C 
ATOM      9  N   UNL     1       1.308  10.064  19.262  0.00  0.00    +0.000 N 
ENDROOT
BRANCH   9  10
ATOM     10  C   UNL     1       0.889  11.241  19.894  0.00  0.00    +0.000 A 
ATOM     11  C   UNL     1       1.788  12.294  20.143  0.00  0.00    +0.000 A 
ATOM     12  C   UNL     1       1.386  13.504  20.724  0.00  0.00    +0.000 A 
ATOM     13  C   UNL     1       0.056  13.692  21.092  0.00  0.00    +0.000 A 
ATOM     14  C   UNL     1      -0.856  12.661  20.899  0.00  0.00    +0.000 A 
ATOM     15  C   UNL     1      -0.438  11.460  20.318  0.00  0.00    +0.000 A 
ATOM     16  F   UNL     1      -1.374  10.511  20.160  0.00  0.00    +0.000 F 
BRANCH  13  17
ATOM     17  C   UNL     1      -0.364  14.933  21.664  0.00  0.00    +0.000 C 
ATOM     18  N   UNL     1      -0.703  15.940  22.128  0.00  0.00    +0.000 NA
ENDBRANCH  13  17
ENDBRANCH   9  10
BRANCH   1  19
ATOM     19  O   UNL     1       2.740   5.713  18.317  0.00  0.00    +0.000 OA
BRANCH  19  25
ATOM     20  C   UNL     1       6.856   5.298  15.797  0.00  0.00    +0.000 C 
ATOM     21  O   UNL     1       7.656   6.221  15.921  0.00  0.00    +0.000 OA
ATOM     22  N   UNL     1       5.711   5.204  16.569  0.00  0.00    +0.000 N 
ATOM     23  C   UNL     1       5.383   6.338  17.422  0.00  0.00    +0.000 C 
ATOM     24  C   UNL     1       5.060   5.856  18.826  0.00  0.00    +0.000 C 
ATOM     25  C   UNL     1       3.850   4.921  18.780  0.00  0.00    +0.000 C 
ATOM     26  C   UNL     1       4.169   3.738  17.844  0.00  0.00    +0.000 C 
ATOM     27  C   UNL     1       4.684   4.170  16.463  0.00  0.00    +0.000 C 
BRANCH  20  28
ATOM     28  O   UNL     1       7.025   4.291  14.893  0.00  0.00    +0.000 OA
BRANCH  28  30
ATOM     29  C   UNL     1       7.959   5.136  12.805  0.00  0.00    +0.000 C 
ATOM     30  C   UNL     1       6.700   4.676  13.537  0.00  0.00    +0.000 C 
ATOM     31  C   UNL     1       6.063   3.500  12.807  0.00  0.00    +0.000 C 
ENDBRANCH  28  30
ENDBRANCH  20  28
ENDBRANCH  19  25
ENDBRANCH   1  19
TORSDOF 6
ENDMDL
MODEL 6
REMARK VINA RESULT:      -7.7      1.539      1.697
REMARK  Name = 
REMARK  8 active torsions:
REMARK  status: ('A' for Active; 'I' for Inactive)
REMARK    1  A    between atoms: C_1  and  C_2
REMARK    2  A    between atoms: C_2  and  C_3
REMARK    3  A    between atoms: C_2  and  O_4
REMARK    4  A    between atoms: O_4  and  C_5
REMARK    5  A    between atoms: C_10  and  O_11
REMARK    6  A    between atoms: O_11  and  C_12
REMARK    7  A    between atoms: N_20  and  C_21
REMARK    8  A    between atoms: C_24  and  C_25
REMARK                            x       y       z     vdW  Elec       q    Type
REMARK                         _______ _______ _______ _____ _____    ______ ____
ROOT
ATOM      1  C   UNL     1       2.285   6.421  19.189  0.00  0.00    +0.000 A 
ATOM      2  N   UNL     1       1.981   5.891  20.382  0.00  0.00    +0.000 NA
ATOM      3  C   UNL     1       1.417   6.726  21.265  0.00  0.00    +0.000 A 
ATOM      4  N   UNL     1       1.136   8.019  21.066  0.00  0.00    +0.000 NA
ATOM      5  C   UNL     1       1.455   8.505  19.861  0.00  0.00    +0.000 A 
ATOM      6  C   UNL     1       2.046   7.734  18.885  0.00  0.00    +0.000 A 
ATOM      7  C   UNL     1       2.282   8.515  17.653  0.00  0.00    +0.000 C 
ATOM      8  C   UNL     1       1.924   9.940  18.117  0.00  0.00    +0.000 C 
ATOM      9  N   UNL     1       1.245   9.848  19.421  0.00  0.00    +0.000 N 
ENDROOT
BRANCH   9  10
ATOM     10  C   UNL     1       0.807  10.976  20.126  0.00  0.00    +0.000 A 
ATOM     11  C   UNL     1      -0.306  10.913  20.983  0.00  0.00    +0.000 A 
ATOM     12  C   UNL     1      -0.734  12.010  21.742  0.00  0.00    +0.000 A 
ATOM     13  C   UNL     1      -0.060  13.225  21.651  0.00  0.00    +0.000 A 
ATOM     14  C   UNL     1       1.022  13.341  20.785  0.00  0.00    +0.000 A 
ATOM     15  C   UNL     1       1.435  12.235  20.036  0.00  0.00    +0.000 A 
ATOM     16  F   UNL     1       2.487  12.420  19.223  0.00  0.00    +0.000 F 
BRANCH  13  17
ATOM     17  C   UNL     1      -0.478  14.342  22.440  0.00  0.00    +0.000 C 
ATOM     18  N   UNL     1      -0.819  15.246  23.081  0.00  0.00    +0.000 NA
ENDBRANCH  13  17
ENDBRANCH   9  10
BRANCH   1  19
ATOM     19  O   UNL     1       2.799   5.607  18.208  0.00  0.00    +0.000 OA
BRANCH  19  25
ATOM     20  C   UNL     1       6.890   5.167  15.653  0.00  0.00    +0.000 C 
ATOM     21  O   UNL     1       7.725   6.051  15.821  0.00  0.00    +0.000 OA
ATOM     22  N   UNL     1       5.743   5.077  16.423  0.00  0.00    +0.000 N 
ATOM     23  C   UNL     1       5.462   6.176  17.335  0.00  0.00    +0.000 C 
ATOM     24  C   UNL     1       5.123   5.634  18.714  0.00  0.00    +0.000 C 
ATOM     25  C   UNL     1       3.878   4.750  18.624  0.00  0.00    +0.000 C 
ATOM     26  C   UNL     1       4.149   3.606  17.626  0.00  0.00    +0.000 C 
ATOM     27  C   UNL     1       4.677   4.090  16.268  0.00  0.00    +0.000 C 
BRANCH  20  28
ATOM     28  O   UNL     1       7.018   4.203  14.696  0.00  0.00    +0.000 OA
BRANCH  28  30
ATOM     29  C   UNL     1       7.824   5.147  12.597  0.00  0.00    +0.000 C 
ATOM     30  C   UNL     1       6.613   4.644  13.379  0.00  0.00    +0.000 C 
ATOM     31  C   UNL     1       5.942   3.495  12.636  0.00  0.00    +0.000 C 
ENDBRANCH  28  30
ENDBRANCH  20  28
ENDBRANCH  19  25
ENDBRANCH   1  19
TORSDOF 6
ENDMDL
MODEL 7
REMARK VINA RESULT:      -7.5      2.441      4.068
REMARK  Name = 
REMARK  8 active torsions:
REMARK  status: ('A' for Active; 'I' for Inactive)
REMARK    1  A    between atoms: C_1  and  C_2
REMARK    2  A    between atoms: C_2  and  C_3
REMARK    3  A    between atoms: C_2  and  O_4
REMARK    4  A    between atoms: O_4  and  C_5
REMARK    5  A    between atoms: C_10  and  O_11
REMARK    6  A    between atoms: O_11  and  C_12
REMARK    7  A    between atoms: N_20  and  C_21
REMARK    8  A    between atoms: C_24  and  C_25
REMARK                            x       y       z     vdW  Elec       q    Type
REMARK                         _______ _______ _______ _____ _____    ______ ____
ROOT
ATOM      1  C   UNL     1       1.376   9.043  19.785  0.00  0.00    +0.000 A 
ATOM      2  N   UNL     1       1.169   9.707  18.639  0.00  0.00    +0.000 NA
ATOM      3  C   UNL     1       0.442  10.827  18.737  0.00  0.00    +0.000 A 
ATOM      4  N   UNL     1      -0.089  11.333  19.856  0.00  0.00    +0.000 NA
ATOM      5  C   UNL     1       0.143  10.639  20.976  0.00  0.00    +0.000 A 
ATOM      6  C   UNL     1       0.871   9.470  20.984  0.00  0.00    +0.000 A 
ATOM      7  C   UNL     1       0.983   8.915  22.348  0.00  0.00    +0.000 C 
ATOM      8  C   UNL     1       0.026   9.834  23.134  0.00  0.00    +0.000 C 
ATOM      9  N   UNL     1      -0.315  10.987  22.283  0.00  0.00    +0.000 N 
ENDROOT
BRANCH   9  10
ATOM     10  C   UNL     1      -1.186  12.001  22.699  0.00  0.00    +0.000 A 
ATOM     11  C   UNL     1      -2.478  11.704  23.169  0.00  0.00    +0.000 A 
ATOM     12  C   UNL     1      -3.352  12.692  23.643  0.00  0.00    +0.000 A 
ATOM     13  C   UNL     1      -2.958  14.027  23.645  0.00  0.00    +0.000 A 
ATOM     14  C   UNL     1      -1.703  14.368  23.151  0.00  0.00    +0.000 A 
ATOM     15  C   UNL     1      -0.844  13.368  22.683  0.00  0.00    +0.000 A 
ATOM     16  F   UNL     1       0.351  13.771  22.224  0.00  0.00    +0.000 F 
BRANCH  13  17
ATOM     17  C   UNL     1      -3.835  15.037  24.148  0.00  0.00    +0.000 C 
ATOM     18  N   UNL     1      -4.545  15.858  24.556  0.00  0.00    +0.000 NA
ENDBRANCH  13  17
ENDBRANCH   9  10
BRANCH   1  19
ATOM     19  O   UNL     1       2.175   7.924  19.774  0.00  0.00    +0.000 OA
BRANCH  19  25
ATOM     20  C   UNL     1       5.519   4.682  18.447  0.00  0.00    +0.000 C 
ATOM     21  O   UNL     1       5.520   3.625  19.070  0.00  0.00    +0.000 OA
ATOM     22  N   UNL     1       4.530   5.637  18.610  0.00  0.00    +0.000 N 
ATOM     23  C   UNL     1       3.571   5.430  19.685  0.00  0.00    +0.000 C 
ATOM     24  C   UNL     1       2.157   5.625  19.164  0.00  0.00    +0.000 C 
ATOM     25  C   UNL     1       1.997   7.053  18.642  0.00  0.00    +0.000 C 
ATOM     26  C   UNL     1       3.038   7.299  17.531  0.00  0.00    +0.000 C 
ATOM     27  C   UNL     1       4.472   6.937  17.945  0.00  0.00    +0.000 C 
BRANCH  20  28
ATOM     28  O   UNL     1       6.489   5.006  17.544  0.00  0.00    +0.000 OA
BRANCH  28  30
ATOM     29  C   UNL     1       4.980   4.027  15.897  0.00  0.00    +0.000 C 
ATOM     30  C   UNL     1       6.431   4.218  16.331  0.00  0.00    +0.000 C 
ATOM     31  C   UNL     1       7.227   4.909  15.230  0.00  0.00    +0.000 C 
ENDBRANCH  28  30
ENDBRANCH  20  28
ENDBRANCH  19  25
ENDBRANCH   1  19
TORSDOF 6
ENDMDL
MODEL 8
REMARK VINA RESULT:      -7.3      4.887     10.243
REMARK  Name = 
REMARK  8 active torsions:
REMARK  status: ('A' for Active; 'I' for Inactive)
REMARK    1  A    between atoms: C_1  and  C_2
REMARK    2  A    between atoms: C_2  and  C_3
REMARK    3  A    between atoms: C_2  and  O_4
REMARK    4  A    between atoms: O_4  and  C_5
REMARK    5  A    between atoms: C_10  and  O_11
REMARK    6  A    between atoms: O_11  and  C_12
REMARK    7  A    between atoms: N_20  and  C_21
REMARK    8  A    between atoms: C_24  and  C_25
REMARK                            x       y       z     vdW  Elec       q    Type
REMARK                         _______ _______ _______ _____ _____    ______ ____
ROOT
ATOM      1  C   UNL     1       0.459  10.699  20.883  0.00  0.00    +0.000 A 
ATOM      2  N   UNL     1       0.343  10.422  22.190  0.00  0.00    +0.000 NA
ATOM      3  C   UNL     1       0.852   9.248  22.585  0.00  0.00    +0.000 A 
ATOM      4  N   UNL     1       1.452   8.341  21.805  0.00  0.00    +0.000 NA
ATOM      5  C   UNL     1       1.546   8.658  20.510  0.00  0.00    +0.000 A 
ATOM      6  C   UNL     1       1.048   9.836  19.998  0.00  0.00    +0.000 A 
ATOM      7  C   UNL     1       1.292   9.937  18.545  0.00  0.00    +0.000 C 
ATOM      8  C   UNL     1       1.837   8.532  18.225  0.00  0.00    +0.000 C 
ATOM      9  N   UNL     1       2.148   7.853  19.495  0.00  0.00    +0.000 N 
ENDROOT
BRANCH   9  10
ATOM     10  C   UNL     1       2.644   6.545  19.550  0.00  0.00    +0.000 A 
ATOM     11  C   UNL     1       3.880   6.209  18.969  0.00  0.00    +0.000 A 
ATOM     12  C   UNL     1       4.427   4.922  19.056  0.00  0.00    +0.000 A 
ATOM     13  C   UNL     1       3.736   3.914  19.723  0.00  0.00    +0.000 A 
ATOM     14  C   UNL     1       2.492   4.195  20.278  0.00  0.00    +0.000 A 
ATOM     15  C   UNL     1       1.962   5.485  20.182  0.00  0.00    +0.000 A 
ATOM     16  F   UNL     1       0.758   5.682  20.743  0.00  0.00    +0.000 F 
BRANCH  13  17
ATOM     17  C   UNL     1       4.299   2.606  19.835  0.00  0.00    +0.000 C 
ATOM     18  N   UNL     1       4.755   1.543  19.927  0.00  0.00    +0.000 NA
ENDBRANCH  13  17
ENDBRANCH   9  10
BRANCH   1  19
ATOM     19  O   UNL     1       0.026  11.917  20.417  0.00  0.00    +0.000 OA
BRANCH  19  25
ATOM     20  C   UNL     1      -1.041  16.458  19.112  0.00  0.00    +0.000 C 
ATOM     21  O   UNL     1      -1.733  17.095  19.900  0.00  0.00    +0.000 OA
ATOM     22  N   UNL     1      -0.531  15.208  19.417  0.00  0.00    +0.000 N 
ATOM     23  C   UNL     1      -0.989  14.581  20.648  0.00  0.00    +0.000 C 
ATOM     24  C   UNL     1       0.198  14.058  21.440  0.00  0.00    +0.000 C 
ATOM     25  C   UNL     1       0.942  13.010  20.612  0.00  0.00    +0.000 C 
ATOM     26  C   UNL     1       1.395  13.651  19.284  0.00  0.00    +0.000 C 
ATOM     27  C   UNL     1       0.263  14.361  18.529  0.00  0.00    +0.000 C 
BRANCH  20  28
ATOM     28  O   UNL     1      -0.716  16.925  17.872  0.00  0.00    +0.000 OA
BRANCH  28  30
ATOM     29  C   UNL     1       1.396  17.892  18.617  0.00  0.00    +0.000 C 
ATOM     30  C   UNL     1       0.069  18.141  17.903  0.00  0.00    +0.000 C 
ATOM     31  C   UNL     1       0.315  18.631  16.482  0.00  0.00    +0.000 C 
ENDBRANCH  28  30
ENDBRANCH  20  28
ENDBRANCH  19  25
ENDBRANCH   1  19
TORSDOF 6
ENDMDL
MODEL 9
REMARK VINA RESULT:      -7.2      4.787      9.470
REMARK  Name = 
REMARK  8 active torsions:
REMARK  status: ('A' for Active; 'I' for Inactive)
REMARK    1  A    between atoms: C_1  and  C_2
REMARK    2  A    between atoms: C_2  and  C_3
REMARK    3  A    between atoms: C_2  and  O_4
REMARK    4  A    between atoms: O_4  and  C_5
REMARK    5  A    between atoms: C_10  and  O_11
REMARK    6  A    between atoms: O_11  and  C_12
REMARK    7  A    between atoms: N_20  and  C_21
REMARK    8  A    between atoms: C_24  and  C_25
REMARK                            x       y       z     vdW  Elec       q    Type
REMARK                         _______ _______ _______ _____ _____    ______ ____
ROOT
ATOM      1  C   UNL     1       0.367  10.473  20.283  0.00  0.00    +0.000 A 
ATOM      2  N   UNL     1       0.163  10.286  21.595  0.00  0.00    +0.000 NA
ATOM      3  C   UNL     1       0.676   9.161  22.111  0.00  0.00    +0.000 A 
ATOM      4  N   UNL     1       1.359   8.222  21.444  0.00  0.00    +0.000 NA
ATOM      5  C   UNL     1       1.539   8.451  20.139  0.00  0.00    +0.000 A 
ATOM      6  C   UNL     1       1.046   9.572  19.509  0.00  0.00    +0.000 A 
ATOM      7  C   UNL     1       1.393   9.579  18.073  0.00  0.00    +0.000 C 
ATOM      8  C   UNL     1       2.002   8.174  17.896  0.00  0.00    +0.000 C 
ATOM      9  N   UNL     1       2.238   7.597  19.231  0.00  0.00    +0.000 N 
ENDROOT
BRANCH   9  10
ATOM     10  C   UNL     1       2.768   6.315  19.417  0.00  0.00    +0.000 A 
ATOM     11  C   UNL     1       4.051   5.981  18.947  0.00  0.00    +0.000 A 
ATOM     12  C   UNL     1       4.628   4.723  19.166  0.00  0.00    +0.000 A 
ATOM     13  C   UNL     1       3.922   3.743  19.858  0.00  0.00    +0.000 A 
ATOM     14  C   UNL     1       2.634   4.020  20.305  0.00  0.00    +0.000 A 
ATOM     15  C   UNL     1       2.074   5.280  20.079  0.00  0.00    +0.000 A 
ATOM     16  F   UNL     1       0.829   5.476  20.541  0.00  0.00    +0.000 F 
BRANCH  13  17
ATOM     17  C   UNL     1       4.515   2.466  20.105  0.00  0.00    +0.000 C 
ATOM     18  N   UNL     1       4.993   1.430  20.307  0.00  0.00    +0.000 NA
ENDBRANCH  13  17
ENDBRANCH   9  10
BRANCH   1  19
ATOM     19  O   UNL     1      -0.067  11.640  19.700  0.00  0.00    +0.000 OA
BRANCH  19  25
ATOM     20  C   UNL     1       2.107  15.896  18.911  0.00  0.00    +0.000 C 
ATOM     21  O   UNL     1       1.544  16.648  18.121  0.00  0.00    +0.000 OA
ATOM     22  N   UNL     1       1.529  14.717  19.350  0.00  0.00    +0.000 N 
ATOM     23  C   UNL     1       0.294  14.297  18.706  0.00  0.00    +0.000 C 
ATOM     24  C   UNL     1      -0.739  13.921  19.756  0.00  0.00    +0.000 C 
ATOM     25  C   UNL     1      -0.212  12.757  20.596  0.00  0.00    +0.000 C 
ATOM     26  C   UNL     1       1.121  13.175  21.249  0.00  0.00    +0.000 C 
ATOM     27  C   UNL     1       2.141  13.742  20.251  0.00  0.00    +0.000 C 
BRANCH  20  28
ATOM     28  O   UNL     1       3.345  16.155  19.421  0.00  0.00    +0.000 OA
BRANCH  28  30
ATOM     29  C   UNL     1       5.562  17.079  18.995  0.00  0.00    +0.000 C 
ATOM     30  C   UNL     1       4.356  16.350  18.404  0.00  0.00    +0.000 C 
ATOM     31  C   UNL     1       4.778  15.002  17.833  0.00  0.00    +0.000 C 
ENDBRANCH  28  30
ENDBRANCH  20  28
ENDBRANCH  19  25
ENDBRANCH   1  19
TORSDOF 6
ENDMDL
