MODEL 1
REMARK VINA RESULT:      -7.9      0.000      0.000
REMARK  Name = 
REMARK  3 active torsions:
REMARK  status: ('A' for Active; 'I' for Inactive)
REMARK    1  A    between atoms: C_2  and  C_3
REMARK    2  A    between atoms: C_2  and  C_15
REMARK    3  A    between atoms: C_3  and  N_4
REMARK                            x       y       z     vdW  Elec       q    Type
REMARK                         _______ _______ _______ _____ _____    ______ ____
ROOT
ATOM      1  N   UNL     1       4.675   4.259  17.462  0.00  0.00    +0.000 N 
ATOM      2  C   UNL     1       3.737   3.613  16.694  0.00  0.00    +0.000 A 
ATOM      3  N   UNL     1       2.591   3.197  17.118  0.00  0.00    +0.000 NA
ATOM      4  C   UNL     1       2.268   3.448  18.459  0.00  0.00    +0.000 A 
ATOM      5  C   UNL     1       1.078   2.930  18.977  0.00  0.00    +0.000 A 
ATOM      6  C   UNL     1       0.714   3.172  20.305  0.00  0.00    +0.000 A 
ATOM      7  C   UNL     1       1.530   3.954  21.124  0.00  0.00    +0.000 A 
ATOM      8  C   UNL     1       2.724   4.471  20.622  0.00  0.00    +0.000 A 
ATOM      9  C   UNL     1       3.091   4.199  19.299  0.00  0.00    +0.000 A 
ATOM     10  C   UNL     1       4.392   4.646  18.763  0.00  0.00    +0.000 A 
ATOM     11  O   UNL     1       5.165   5.295  19.463  0.00  0.00    +0.000 OA
ENDROOT
BRANCH   1  12
ATOM     12  C   UNL     1       5.991   4.568  16.920  0.00  0.00    +0.000 C 
BRANCH  12  14
ATOM     13  O   UNL     1       5.376   6.547  15.680  0.00  0.00    +0.000 OA
ATOM     14  C   UNL     1       5.865   5.418  15.667  0.00  0.00    +0.000 C 
BRANCH  14  15
ATOM     15  C   UNL     1       6.290   4.836  14.369  0.00  0.00    +0.000 A 
ATOM     16  C   UNL     1       7.441   5.354  13.757  0.00  0.00    +0.000 A 
ATOM     17  C   UNL     1       7.833   4.902  12.496  0.00  0.00    +0.000 A 
ATOM     18  C   UNL     1       7.076   3.933  11.839  0.00  0.00    +0.000 A 
ATOM     19  C   UNL     1       5.941   3.399  12.451  0.00  0.00    +0.000 A 
ATOM     20  C   UNL     1       5.549   3.841  13.720  0.00  0.00    +0.000 A 
ENDBRANCH  14  15
ENDBRANCH  12  14
ENDBRANCH   1  12
TORSDOF 3
ENDMDL
MODEL 2
REMARK VINA RESULT:      -7.9      1.208      1.628
REMARK  Name = 
REMARK  3 active torsions:
REMARK  status: ('A' for Active; 'I' for Inactive)
REMARK    1  A    between atoms: C_2  and  C_3
REMARK    2  A    between atoms: C_2  and  C_15
REMARK    3  A    between atoms: C_3  and  N_4
REMARK                            x       y       z     vdW  Elec       q    Type
REMARK                         _______ _______ _______ _____ _____    ______ ____
ROOT
ATOM      1  N   UNL     1       4.471   4.949  17.175  0.00  0.00    +0.000 N 
ATOM      2  C   UNL     1       4.467   3.590  16.981  0.00  0.00    +0.000 A 
ATOM      3  N   UNL     1       3.766   2.747  17.662  0.00  0.00    +0.000 NA
ATOM      4  C   UNL     1       2.926   3.261  18.661  0.00  0.00    +0.000 A 
ATOM      5  C   UNL     1       2.226   2.372  19.480  0.00  0.00    +0.000 A 
ATOM      6  C   UNL     1       1.366   2.847  20.476  0.00  0.00    +0.000 A 
ATOM      7  C   UNL     1       1.184   4.221  20.647  0.00  0.00    +0.000 A 
ATOM      8  C   UNL     1       1.882   5.119  19.840  0.00  0.00    +0.000 A 
ATOM      9  C   UNL     1       2.760   4.631  18.866  0.00  0.00    +0.000 A 
ATOM     10  C   UNL     1       3.589   5.550  18.061  0.00  0.00    +0.000 A 
ATOM     11  O   UNL     1       3.499   6.766  18.211  0.00  0.00    +0.000 OA
ENDROOT
BRANCH   1  12
ATOM     12  C   UNL     1       5.398   5.800  16.440  0.00  0.00    +0.000 C 
BRANCH  12  14
ATOM     13  O   UNL     1       7.469   4.584  16.696  0.00  0.00    +0.000 OA
ATOM     14  C   UNL     1       6.584   4.991  15.944  0.00  0.00    +0.000 C 
BRANCH  14  15
ATOM     15  C   UNL     1       6.710   4.737  14.487  0.00  0.00    +0.000 A 
ATOM     16  C   UNL     1       5.886   3.758  13.912  0.00  0.00    +0.000 A 
ATOM     17  C   UNL     1       6.027   3.421  12.565  0.00  0.00    +0.000 A 
ATOM     18  C   UNL     1       6.993   4.057  11.786  0.00  0.00    +0.000 A 
ATOM     19  C   UNL     1       7.802   5.046  12.347  0.00  0.00    +0.000 A 
ATOM     20  C   UNL     1       7.659   5.395  13.694  0.00  0.00    +0.000 A 
ENDBRANCH  14  15
ENDBRANCH  12  14
ENDBRANCH   1  12
TORSDOF 3
ENDMDL
MODEL 3
REMARK VINA RESULT:      -7.9      1.193      1.212
REMARK  Name = 
REMARK  3 active torsions:
REMARK  status: ('A' for Active; 'I' for Inactive)
REMARK    1  A    between atoms: C_2  and  C_3
REMARK    2  A    between atoms: C_2  and  C_15
REMARK    3  A    between atoms: C_3  and  N_4
REMARK                            x       y       z     vdW  Elec       q    Type
REMARK                         _______ _______ _______ _____ _____    ______ ____
ROOT
ATOM      1  N   UNL     1       4.384   4.976  17.109  0.00  0.00    +0.000 N 
ATOM      2  C   UNL     1       4.354   3.618  16.909  0.00  0.00    +0.000 A 
ATOM      3  N   UNL     1       3.665   2.781  17.610  0.00  0.00    +0.000 NA
ATOM      4  C   UNL     1       2.867   3.302  18.640  0.00  0.00    +0.000 A 
ATOM      5  C   UNL     1       2.184   2.419  19.479  0.00  0.00    +0.000 A 
ATOM      6  C   UNL     1       1.366   2.901  20.507  0.00  0.00    +0.000 A 
ATOM      7  C   UNL     1       1.210   4.276  20.690  0.00  0.00    +0.000 A 
ATOM      8  C   UNL     1       1.892   5.168  19.864  0.00  0.00    +0.000 A 
ATOM      9  C   UNL     1       2.729   4.673  18.857  0.00  0.00    +0.000 A 
ATOM     10  C   UNL     1       3.542   5.584  18.028  0.00  0.00    +0.000 A 
ATOM     11  O   UNL     1       3.474   6.801  18.186  0.00  0.00    +0.000 OA
ENDROOT
BRANCH   1  12
ATOM     12  C   UNL     1       5.297   5.817  16.347  0.00  0.00    +0.000 C 
BRANCH  12  14
ATOM     13  O   UNL     1       7.418   4.739  16.763  0.00  0.00    +0.000 OA
ATOM     14  C   UNL     1       6.539   5.035  15.954  0.00  0.00    +0.000 C 
BRANCH  14  15
ATOM     15  C   UNL     1       6.727   4.672  14.527  0.00  0.00    +0.000 A 
ATOM     16  C   UNL     1       7.667   5.396  13.779  0.00  0.00    +0.000 A 
ATOM     17  C   UNL     1       7.819   5.152  12.413  0.00  0.00    +0.000 A 
ATOM     18  C   UNL     1       7.031   4.188  11.787  0.00  0.00    +0.000 A 
ATOM     19  C   UNL     1       6.108   3.450  12.530  0.00  0.00    +0.000 A 
ATOM     20  C   UNL     1       5.959   3.683  13.901  0.00  0.00    +0.000 A 
ENDBRANCH  14  15
ENDBRANCH  12  14
ENDBRANCH   1  12
TORSDOF 3
ENDMDL
MODEL 4
REMARK VINA RESULT:      -7.8      1.457      6.864
REMARK  Name = 
REMARK  3 active torsions:
REMARK  status: ('A' for Active; 'I' for Inactive)
REMARK    1  A    between atoms: C_2  and  C_3
REMARK    2  A    between atoms: C_2  and  C_15
REMARK    3  A    between atoms: C_3  and  N_4
REMARK                            x       y       z     vdW  Elec       q    Type
REMARK                         _______ _______ _______ _____ _____    ______ ____
ROOT
ATOM      1  N   UNL     1       5.877   4.902  16.917  0.00  0.00    +0.000 N 
ATOM      2  C   UNL     1       6.932   5.745  16.670  0.00  0.00    +0.000 A 
ATOM      3  N   UNL     1       7.541   5.857  15.537  0.00  0.00    +0.000 NA
ATOM      4  C   UNL     1       7.072   5.076  14.471  0.00  0.00    +0.000 A 
ATOM      5  C   UNL     1       7.766   5.100  13.258  0.00  0.00    +0.000 A 
ATOM      6  C   UNL     1       7.320   4.346  12.167  0.00  0.00    +0.000 A 
ATOM      7  C   UNL     1       6.161   3.576  12.275  0.00  0.00    +0.000 A 
ATOM      8  C   UNL     1       5.464   3.537  13.482  0.00  0.00    +0.000 A 
ATOM      9  C   UNL     1       5.935   4.274  14.575  0.00  0.00    +0.000 A 
ATOM     10  C   UNL     1       5.280   4.181  15.894  0.00  0.00    +0.000 A 
ATOM     11  O   UNL     1       4.285   3.476  16.049  0.00  0.00    +0.000 OA
ENDROOT
BRANCH   1  12
ATOM     12  C   UNL     1       5.346   4.755  18.266  0.00  0.00    +0.000 C 
BRANCH  12  14
ATOM     13  O   UNL     1       3.858   6.646  18.055  0.00  0.00    +0.000 OA
ATOM     14  C   UNL     1       4.013   5.473  18.395  0.00  0.00    +0.000 C 
BRANCH  14  15
ATOM     15  C   UNL     1       2.874   4.750  19.014  0.00  0.00    +0.000 A 
ATOM     16  C   UNL     1       2.764   4.762  20.412  0.00  0.00    +0.000 A 
ATOM     17  C   UNL     1       1.762   4.026  21.046  0.00  0.00    +0.000 A 
ATOM     18  C   UNL     1       0.868   3.271  20.288  0.00  0.00    +0.000 A 
ATOM     19  C   UNL     1       0.960   3.270  18.895  0.00  0.00    +0.000 A 
ATOM     20  C   UNL     1       1.956   4.015  18.254  0.00  0.00    +0.000 A 
ENDBRANCH  14  15
ENDBRANCH  12  14
ENDBRANCH   1  12
TORSDOF 3
ENDMDL
MODEL 5
REMARK VINA RESULT:      -7.8      1.244      1.812
REMARK  Name = 
REMARK  3 active torsions:
REMARK  status: ('A' for Active; 'I' for Inactive)
REMARK    1  A    between atoms: C_2  and  C_3
REMARK    2  A    between atoms: C_2  and  C_15
REMARK    3  A    between atoms: C_3  and  N_4
REMARK                            x       y       z     vdW  Elec       q    Type
REMARK                         _______ _______ _______ _____ _____    ______ ____
ROOT
ATOM      1  N   UNL     1       5.194   4.553  17.950  0.00  0.00    +0.000 N 
ATOM      2  C   UNL     1       5.061   5.477  18.957  0.00  0.00    +0.000 A 
ATOM      3  N   UNL     1       4.038   5.581  19.737  0.00  0.00    +0.000 NA
ATOM      4  C   UNL     1       2.992   4.663  19.558  0.00  0.00    +0.000 A 
ATOM      5  C   UNL     1       1.829   4.805  20.319  0.00  0.00    +0.000 A 
ATOM      6  C   UNL     1       0.772   3.900  20.180  0.00  0.00    +0.000 A 
ATOM      7  C   UNL     1       0.878   2.830  19.290  0.00  0.00    +0.000 A 
ATOM      8  C   UNL     1       2.030   2.681  18.519  0.00  0.00    +0.000 A 
ATOM      9  C   UNL     1       3.070   3.609  18.647  0.00  0.00    +0.000 A 
ATOM     10  C   UNL     1       4.262   3.541  17.778  0.00  0.00    +0.000 A 
ATOM     11  O   UNL     1       4.377   2.644  16.945  0.00  0.00    +0.000 OA
ENDROOT
BRANCH   1  12
ATOM     12  C   UNL     1       6.331   4.605  17.041  0.00  0.00    +0.000 C 
BRANCH  12  14
ATOM     13  O   UNL     1       5.388   6.476  15.839  0.00  0.00    +0.000 OA
ATOM     14  C   UNL     1       5.979   5.397  15.793  0.00  0.00    +0.000 C 
BRANCH  14  15
ATOM     15  C   UNL     1       6.305   4.814  14.467  0.00  0.00    +0.000 A 
ATOM     16  C   UNL     1       7.444   5.287  13.799  0.00  0.00    +0.000 A 
ATOM     17  C   UNL     1       7.746   4.834  12.514  0.00  0.00    +0.000 A 
ATOM     18  C   UNL     1       6.909   3.911  11.888  0.00  0.00    +0.000 A 
ATOM     19  C   UNL     1       5.785   3.422  12.555  0.00  0.00    +0.000 A 
ATOM     20  C   UNL     1       5.484   3.865  13.848  0.00  0.00    +0.000 A 
ENDBRANCH  14  15
ENDBRANCH  12  14
ENDBRANCH   1  12
TORSDOF 3
ENDMDL
MODEL 6
REMARK VINA RESULT:      -7.7      1.442      6.895
REMARK  Name = 
REMARK  3 active torsions:
REMARK  status: ('A' for Active; 'I' for Inactive)
REMARK    1  A    between atoms: C_2  and  C_3
REMARK    2  A    between atoms: C_2  and  C_15
REMARK    3  A    between atoms: C_3  and  N_4
REMARK                            x       y       z     vdW  Elec       q    Type
REMARK                         _______ _______ _______ _____ _____    ______ ____
ROOT
ATOM      1  N   UNL     1       5.916   4.891  16.964  0.00  0.00    +0.000 N 
ATOM      2  C   UNL     1       6.961   5.741  16.701  0.00  0.00    +0.000 A 
ATOM      3  N   UNL     1       7.551   5.860  15.558  0.00  0.00    +0.000 NA
ATOM      4  C   UNL     1       7.069   5.078  14.498  0.00  0.00    +0.000 A 
ATOM      5  C   UNL     1       7.742   5.110  13.274  0.00  0.00    +0.000 A 
ATOM      6  C   UNL     1       7.283   4.356  12.189  0.00  0.00    +0.000 A 
ATOM      7  C   UNL     1       6.131   3.577  12.314  0.00  0.00    +0.000 A 
ATOM      8  C   UNL     1       5.454   3.531  13.533  0.00  0.00    +0.000 A 
ATOM      9  C   UNL     1       5.939   4.268  14.619  0.00  0.00    +0.000 A 
ATOM     10  C   UNL     1       5.307   4.168  15.949  0.00  0.00    +0.000 A 
ATOM     11  O   UNL     1       4.320   3.457  16.119  0.00  0.00    +0.000 OA
ENDROOT
BRANCH   1  12
ATOM     12  C   UNL     1       5.409   4.737  18.321  0.00  0.00    +0.000 C 
BRANCH  12  14
ATOM     13  O   UNL     1       3.821   6.543  18.095  0.00  0.00    +0.000 OA
ATOM     14  C   UNL     1       4.042   5.387  18.455  0.00  0.00    +0.000 C 
BRANCH  14  15
ATOM     15  C   UNL     1       2.952   4.617  19.105  0.00  0.00    +0.000 A 
ATOM     16  C   UNL     1       2.047   3.930  18.283  0.00  0.00    +0.000 A 
ATOM     17  C   UNL     1       0.955   3.264  18.840  0.00  0.00    +0.000 A 
ATOM     18  C   UNL     1       0.757   3.285  20.220  0.00  0.00    +0.000 A 
ATOM     19  C   UNL     1       1.665   3.951  21.045  0.00  0.00    +0.000 A 
ATOM     20  C   UNL     1       2.768   4.611  20.493  0.00  0.00    +0.000 A 
ENDBRANCH  14  15
ENDBRANCH  12  14
ENDBRANCH   1  12
TORSDOF 3
ENDMDL
MODEL 7
REMARK VINA RESULT:      -7.7      1.255      2.132
REMARK  Name = 
REMARK  3 active torsions:
REMARK  status: ('A' for Active; 'I' for Inactive)
REMARK    1  A    between atoms: C_2  and  C_3
REMARK    2  A    between atoms: C_2  and  C_15
REMARK    3  A    between atoms: C_3  and  N_4
REMARK                            x       y       z     vdW  Elec       q    Type
REMARK                         _______ _______ _______ _____ _____    ______ ____
ROOT
ATOM      1  N   UNL     1       5.294   4.464  17.960  0.00  0.00    +0.000 N 
ATOM      2  C   UNL     1       5.225   5.374  18.987  0.00  0.00    +0.000 A 
ATOM      3  N   UNL     1       4.219   5.519  19.781  0.00  0.00    +0.000 NA
ATOM      4  C   UNL     1       3.120   4.666  19.598  0.00  0.00    +0.000 A 
ATOM      5  C   UNL     1       1.977   4.858  20.377  0.00  0.00    +0.000 A 
ATOM      6  C   UNL     1       0.868   4.017  20.234  0.00  0.00    +0.000 A 
ATOM      7  C   UNL     1       0.903   2.961  19.321  0.00  0.00    +0.000 A 
ATOM      8  C   UNL     1       2.035   2.763  18.533  0.00  0.00    +0.000 A 
ATOM      9  C   UNL     1       3.128   3.628  18.666  0.00  0.00    +0.000 A 
ATOM     10  C   UNL     1       4.304   3.510  17.781  0.00  0.00    +0.000 A 
ATOM     11  O   UNL     1       4.358   2.626  16.929  0.00  0.00    +0.000 OA
ENDROOT
BRANCH   1  12
ATOM     12  C   UNL     1       6.421   4.471  17.038  0.00  0.00    +0.000 C 
BRANCH  12  14
ATOM     13  O   UNL     1       5.717   6.552  16.035  0.00  0.00    +0.000 OA
ATOM     14  C   UNL     1       6.153   5.412  15.876  0.00  0.00    +0.000 C 
BRANCH  14  15
ATOM     15  C   UNL     1       6.365   4.911  14.494  0.00  0.00    +0.000 A 
ATOM     16  C   UNL     1       5.461   3.966  13.987  0.00  0.00    +0.000 A 
ATOM     17  C   UNL     1       5.666   3.401  12.728  0.00  0.00    +0.000 A 
ATOM     18  C   UNL     1       6.776   3.773  11.971  0.00  0.00    +0.000 A 
ATOM     19  C   UNL     1       7.668   4.727  12.461  0.00  0.00    +0.000 A 
ATOM     20  C   UNL     1       7.462   5.305  13.719  0.00  0.00    +0.000 A 
ENDBRANCH  14  15
ENDBRANCH  12  14
ENDBRANCH   1  12
TORSDOF 3
ENDMDL
MODEL 8
REMARK VINA RESULT:      -7.7      0.274      1.115
REMARK  Name = 
REMARK  3 active torsions:
REMARK  status: ('A' for Active; 'I' for Inactive)
REMARK    1  A    between atoms: C_2  and  C_3
REMARK    2  A    between atoms: C_2  and  C_15
REMARK    3  A    between atoms: C_3  and  N_4
REMARK                            x       y       z     vdW  Elec       q    Type
REMARK                         _______ _______ _______ _____ _____    ______ ____
ROOT
ATOM      1  N   UNL     1       4.867   4.142  17.535  0.00  0.00    +0.000 N 
ATOM      2  C   UNL     1       4.023   3.283  16.874  0.00  0.00    +0.000 A 
ATOM      3  N   UNL     1       2.896   2.853  17.333  0.00  0.00    +0.000 NA
ATOM      4  C   UNL     1       2.490   3.318  18.593  0.00  0.00    +0.000 A 
ATOM      5  C   UNL     1       1.323   2.801  19.161  0.00  0.00    +0.000 A 
ATOM      6  C   UNL     1       0.879   3.252  20.408  0.00  0.00    +0.000 A 
ATOM      7  C   UNL     1       1.589   4.242  21.089  0.00  0.00    +0.000 A 
ATOM      8  C   UNL     1       2.759   4.762  20.536  0.00  0.00    +0.000 A 
ATOM      9  C   UNL     1       3.209   4.283  19.300  0.00  0.00    +0.000 A 
ATOM     10  C   UNL     1       4.492   4.737  18.730  0.00  0.00    +0.000 A 
ATOM     11  O   UNL     1       5.176   5.571  19.318  0.00  0.00    +0.000 OA
ENDROOT
BRANCH   1  12
ATOM     12  C   UNL     1       6.178   4.461  16.986  0.00  0.00    +0.000 C 
BRANCH  12  14
ATOM     13  O   UNL     1       5.618   6.582  15.974  0.00  0.00    +0.000 OA
ATOM     14  C   UNL     1       6.047   5.437  15.829  0.00  0.00    +0.000 C 
BRANCH  14  15
ATOM     15  C   UNL     1       6.390   4.968  14.463  0.00  0.00    +0.000 A 
ATOM     16  C   UNL     1       5.582   3.982  13.879  0.00  0.00    +0.000 A 
ATOM     17  C   UNL     1       5.913   3.447  12.633  0.00  0.00    +0.000 A 
ATOM     18  C   UNL     1       7.055   3.889  11.967  0.00  0.00    +0.000 A 
ATOM     19  C   UNL     1       7.853   4.884  12.534  0.00  0.00    +0.000 A 
ATOM     20  C   UNL     1       7.520   5.432  13.777  0.00  0.00    +0.000 A 
ENDBRANCH  14  15
ENDBRANCH  12  14
ENDBRANCH   1  12
TORSDOF 3
ENDMDL
MODEL 9
REMARK VINA RESULT:      -7.6      1.392      2.012
REMARK  Name = 
REMARK  3 active torsions:
REMARK  status: ('A' for Active; 'I' for Inactive)
REMARK    1  A    between atoms: C_2  and  C_3
REMARK    2  A    between atoms: C_2  and  C_15
REMARK    3  A    between atoms: C_3  and  N_4
REMARK                            x       y       z     vdW  Elec       q    Type
REMARK                         _______ _______ _______ _____ _____    ______ ____
ROOT
ATOM      1  N   UNL     1       4.305   5.273  17.496  0.00  0.00    +0.000 N 
ATOM      2  C   UNL     1       4.525   5.864  18.716  0.00  0.00    +0.000 A 
ATOM      3  N   UNL     1       3.869   5.600  19.796  0.00  0.00    +0.000 NA
ATOM      4  C   UNL     1       2.873   4.615  19.724  0.00  0.00    +0.000 A 
ATOM      5  C   UNL     1       2.081   4.370  20.849  0.00  0.00    +0.000 A 
ATOM      6  C   UNL     1       1.088   3.385  20.820  0.00  0.00    +0.000 A 
ATOM      7  C   UNL     1       0.894   2.621  19.668  0.00  0.00    +0.000 A 
ATOM      8  C   UNL     1       1.673   2.859  18.537  0.00  0.00    +0.000 A 
ATOM      9  C   UNL     1       2.644   3.866  18.569  0.00  0.00    +0.000 A 
ATOM     10  C   UNL     1       3.420   4.214  17.362  0.00  0.00    +0.000 A 
ATOM     11  O   UNL     1       3.248   3.600  16.311  0.00  0.00    +0.000 OA
ENDROOT
BRANCH   1  12
ATOM     12  C   UNL     1       5.010   5.739  16.310  0.00  0.00    +0.000 C 
BRANCH  12  14
ATOM     13  O   UNL     1       6.919   4.374  16.883  0.00  0.00    +0.000 OA
ATOM     14  C   UNL     1       6.191   4.833  16.003  0.00  0.00    +0.000 C 
BRANCH  14  15
ATOM     15  C   UNL     1       6.515   4.545  14.583  0.00  0.00    +0.000 A 
ATOM     16  C   UNL     1       7.552   5.271  13.981  0.00  0.00    +0.000 A 
ATOM     17  C   UNL     1       7.838   5.100  12.626  0.00  0.00    +0.000 A 
ATOM     18  C   UNL     1       7.086   4.206  11.864  0.00  0.00    +0.000 A 
ATOM     19  C   UNL     1       6.065   3.466  12.462  0.00  0.00    +0.000 A 
ATOM     20  C   UNL     1       5.781   3.626  13.823  0.00  0.00    +0.000 A 
ENDBRANCH  14  15
ENDBRANCH  12  14
ENDBRANCH   1  12
TORSDOF 3
ENDMDL
