MODEL 1
REMARK VINA RESULT:      -7.4      0.000      0.000
REMARK  Name = 
REMARK  8 active torsions:
REMARK  status: ('A' for Active; 'I' for Inactive)
REMARK    1  A    between atoms: C_1  and  C_2
REMARK    2  A    between atoms: C_7  and  C_8
REMARK    3  A    between atoms: C_8  and  N_9
REMARK    4  A    between atoms: N_17  and  C_18
REMARK    5  A    between atoms: C_21  and  O_22
REMARK    6  A    between atoms: O_22  and  C_23
REMARK    7  A    between atoms: C_23  and  C_24
REMARK    8  A    between atoms: C_23  and  C_25
REMARK                            x       y       z     vdW  Elec       q    Type
REMARK                         _______ _______ _______ _____ _____    ______ ____
ROOT
ATOM      1  N   UNL     1      -2.078  12.753  19.541  0.00  0.00    +0.000 NA
ATOM      2  C   UNL     1      -2.011  11.722  18.514  0.00  0.00    +0.000 C 
ATOM      3  C   UNL     1      -1.036  10.550  18.671  0.00  0.00    +0.000 C 
ATOM      4  C   UNL     1       0.244  10.795  19.491  0.00  0.00    +0.000 C 
ATOM      5  C   UNL     1       0.045  11.841  20.592  0.00  0.00    +0.000 C 
ATOM      6  C   UNL     1      -0.823  13.037  20.222  0.00  0.00    +0.000 C 
ATOM      7  C   UNL     1       1.469  11.040  18.594  0.00  0.00    +0.000 C 
ATOM      8  C   UNL     1       1.867   9.641  18.129  0.00  0.00    +0.000 C 
ATOM      9  N   UNL     1       1.515   8.784  19.238  0.00  0.00    +0.000 N 
ATOM     10  C   UNL     1       0.655   9.453  20.127  0.00  0.00    +0.000 C 
ATOM     11  O   UNL     1       0.232   9.063  21.206  0.00  0.00    +0.000 OA
ENDROOT
BRANCH   9  12
ATOM     12  C   UNL     1       2.037   7.466  19.402  0.00  0.00    +0.000 A 
ATOM     13  C   UNL     1       2.867   6.873  18.443  0.00  0.00    +0.000 A 
ATOM     14  C   UNL     1       3.283   5.541  18.558  0.00  0.00    +0.000 A 
ATOM     15  C   UNL     1       2.912   4.772  19.656  0.00  0.00    +0.000 A 
ATOM     16  C   UNL     1       2.153   5.364  20.658  0.00  0.00    +0.000 A 
ATOM     17  C   UNL     1       1.719   6.695  20.529  0.00  0.00    +0.000 A 
BRANCH  15  18
ATOM     18  O   UNL     1       3.279   3.459  19.596  0.00  0.00    +0.000 OA
BRANCH  18  19
ATOM     19  C   UNL     1       2.812   2.668  18.498  0.00  0.00    +0.000 C 
ATOM     20  C   UNL     1       3.620   1.379  18.368  0.00  0.00    +0.000 C 
ATOM     21  C   UNL     1       1.358   2.317  18.821  0.00  0.00    +0.000 C 
ENDBRANCH  18  19
ENDBRANCH  15  18
ENDBRANCH   9  12
BRANCH   1  22
ATOM     22  C   UNL     1      -3.243  12.676  20.437  0.00  0.00    +0.000 C 
BRANCH  22  29
ATOM     23  C   UNL     1      -2.587  11.921  23.368  0.00  0.00    +0.000 C 
ATOM     24  C   UNL     1      -3.009  13.295  22.932  0.00  0.00    +0.000 A 
ATOM     25  C   UNL     1      -3.115  14.295  23.911  0.00  0.00    +0.000 A 
ATOM     26  C   UNL     1      -3.418  15.601  23.563  0.00  0.00    +0.000 A 
ATOM     27  C   UNL     1      -3.597  15.884  22.224  0.00  0.00    +0.000 A 
ATOM     28  N   UNL     1      -3.530  14.954  21.250  0.00  0.00    +0.000 NA
ATOM     29  C   UNL     1      -3.244  13.665  21.595  0.00  0.00    +0.000 A 
ENDBRANCH  22  29
ENDBRANCH   1  22
TORSDOF 5
ENDMDL
MODEL 2
REMARK VINA RESULT:      -7.4      2.608      9.800
REMARK  Name = 
REMARK  8 active torsions:
REMARK  status: ('A' for Active; 'I' for Inactive)
REMARK    1  A    between atoms: C_1  and  C_2
REMARK    2  A    between atoms: C_7  and  C_8
REMARK    3  A    between atoms: C_8  and  N_9
REMARK    4  A    between atoms: N_17  and  C_18
REMARK    5  A    between atoms: C_21  and  O_22
REMARK    6  A    between atoms: O_22  and  C_23
REMARK    7  A    between atoms: C_23  and  C_24
REMARK    8  A    between atoms: C_23  and  C_25
REMARK                            x       y       z     vdW  Elec       q    Type
REMARK                         _______ _______ _______ _____ _____    ______ ____
ROOT
ATOM      1  N   UNL     1       2.524   7.454  18.925  0.00  0.00    +0.000 NA
ATOM      2  C   UNL     1       1.885   7.778  20.192  0.00  0.00    +0.000 C 
ATOM      3  C   UNL     1       0.748   8.805  20.233  0.00  0.00    +0.000 C 
ATOM      4  C   UNL     1       0.742   9.903  19.154  0.00  0.00    +0.000 C 
ATOM      5  C   UNL     1       1.368   9.435  17.837  0.00  0.00    +0.000 C 
ATOM      6  C   UNL     1       2.600   8.547  17.967  0.00  0.00    +0.000 C 
ATOM      7  C   UNL     1       1.294  11.238  19.683  0.00  0.00    +0.000 C 
ATOM      8  C   UNL     1       0.131  11.822  20.482  0.00  0.00    +0.000 C 
ATOM      9  N   UNL     1      -1.048  11.359  19.785  0.00  0.00    +0.000 N 
ATOM     10  C   UNL     1      -0.724  10.309  18.909  0.00  0.00    +0.000 C 
ATOM     11  O   UNL     1      -1.453   9.742  18.107  0.00  0.00    +0.000 OA
ENDROOT
BRANCH   9  12
ATOM     12  C   UNL     1      -2.335  11.952  19.951  0.00  0.00    +0.000 A 
ATOM     13  C   UNL     1      -2.700  12.614  21.130  0.00  0.00    +0.000 A 
ATOM     14  C   UNL     1      -4.002  13.094  21.326  0.00  0.00    +0.000 A 
ATOM     15  C   UNL     1      -4.967  12.960  20.334  0.00  0.00    +0.000 A 
ATOM     16  C   UNL     1      -4.605  12.376  19.127  0.00  0.00    +0.000 A 
ATOM     17  C   UNL     1      -3.305  11.875  18.940  0.00  0.00    +0.000 A 
BRANCH  15  18
ATOM     18  O   UNL     1      -6.223  13.360  20.688  0.00  0.00    +0.000 OA
BRANCH  18  19
ATOM     19  C   UNL     1      -6.872  12.691  21.775  0.00  0.00    +0.000 C 
ATOM     20  C   UNL     1      -7.908  13.597  22.436  0.00  0.00    +0.000 C 
ATOM     21  C   UNL     1      -7.582  11.483  21.162  0.00  0.00    +0.000 C 
ENDBRANCH  18  19
ENDBRANCH  15  18
ENDBRANCH   9  12
BRANCH   1  22
ATOM     22  C   UNL     1       2.134   6.164  18.333  0.00  0.00    +0.000 C 
BRANCH  22  29
ATOM     23  C   UNL     1       0.927   4.100  20.302  0.00  0.00    +0.000 C 
ATOM     24  C   UNL     1       2.345   4.055  19.807  0.00  0.00    +0.000 A 
ATOM     25  C   UNL     1       3.171   3.018  20.265  0.00  0.00    +0.000 A 
ATOM     26  C   UNL     1       4.461   2.871  19.782  0.00  0.00    +0.000 A 
ATOM     27  C   UNL     1       4.896   3.770  18.829  0.00  0.00    +0.000 A 
ATOM     28  N   UNL     1       4.149   4.797  18.377  0.00  0.00    +0.000 NA
ATOM     29  C   UNL     1       2.882   4.947  18.862  0.00  0.00    +0.000 A 
ENDBRANCH  22  29
ENDBRANCH   1  22
TORSDOF 5
ENDMDL
MODEL 3
REMARK VINA RESULT:      -7.4      2.562      9.956
REMARK  Name = 
REMARK  8 active torsions:
REMARK  status: ('A' for Active; 'I' for Inactive)
REMARK    1  A    between atoms: C_1  and  C_2
REMARK    2  A    between atoms: C_7  and  C_8
REMARK    3  A    between atoms: C_8  and  N_9
REMARK    4  A    between atoms: N_17  and  C_18
REMARK    5  A    between atoms: C_21  and  O_22
REMARK    6  A    between atoms: O_22  and  C_23
REMARK    7  A    between atoms: C_23  and  C_24
REMARK    8  A    between atoms: C_23  and  C_25
REMARK                            x       y       z     vdW  Elec       q    Type
REMARK                         _______ _______ _______ _____ _____    ______ ____
ROOT
ATOM      1  N   UNL     1       2.241   7.849  18.884  0.00  0.00    +0.000 NA
ATOM      2  C   UNL     1       1.767   8.066  20.244  0.00  0.00    +0.000 C 
ATOM      3  C   UNL     1       0.650   9.081  20.510  0.00  0.00    +0.000 C 
ATOM      4  C   UNL     1       0.515  10.263  19.533  0.00  0.00    +0.000 C 
ATOM      5  C   UNL     1       0.968   9.906  18.114  0.00  0.00    +0.000 C 
ATOM      6  C   UNL     1       2.202   9.016  18.016  0.00  0.00    +0.000 C 
ATOM      7  C   UNL     1       1.135  11.553  20.094  0.00  0.00    +0.000 C 
ATOM      8  C   UNL     1       0.084  12.065  21.078  0.00  0.00    +0.000 C 
ATOM      9  N   UNL     1      -1.175  11.653  20.499  0.00  0.00    +0.000 N 
ATOM     10  C   UNL     1      -0.969  10.680  19.507  0.00  0.00    +0.000 C 
ATOM     11  O   UNL     1      -1.795  10.176  18.759  0.00  0.00    +0.000 OA
ENDROOT
BRANCH   9  12
ATOM     12  C   UNL     1      -2.428  12.224  20.872  0.00  0.00    +0.000 A 
ATOM     13  C   UNL     1      -2.736  12.531  22.204  0.00  0.00    +0.000 A 
ATOM     14  C   UNL     1      -4.009  12.985  22.574  0.00  0.00    +0.000 A 
ATOM     15  C   UNL     1      -5.000  13.184  21.618  0.00  0.00    +0.000 A 
ATOM     16  C   UNL     1      -4.691  12.961  20.283  0.00  0.00    +0.000 A 
ATOM     17  C   UNL     1      -3.420  12.484  19.916  0.00  0.00    +0.000 A 
BRANCH  15  18
ATOM     18  O   UNL     1      -6.227  13.514  22.115  0.00  0.00    +0.000 OA
BRANCH  18  19
ATOM     19  C   UNL     1      -6.834  12.641  23.074  0.00  0.00    +0.000 C 
ATOM     20  C   UNL     1      -7.485  13.435  24.204  0.00  0.00    +0.000 C 
ATOM     21  C   UNL     1      -7.915  11.870  22.315  0.00  0.00    +0.000 C 
ENDBRANCH  18  19
ENDBRANCH  15  18
ENDBRANCH   9  12
BRANCH   1  22
ATOM     22  C   UNL     1       1.773   6.609  18.244  0.00  0.00    +0.000 C 
BRANCH  22  29
ATOM     23  C   UNL     1       1.370   3.539  18.281  0.00  0.00    +0.000 C 
ATOM     24  C   UNL     1       2.682   4.207  17.983  0.00  0.00    +0.000 A 
ATOM     25  C   UNL     1       3.791   3.392  17.709  0.00  0.00    +0.000 A 
ATOM     26  C   UNL     1       5.007   3.946  17.344  0.00  0.00    +0.000 A 
ATOM     27  C   UNL     1       5.084   5.321  17.249  0.00  0.00    +0.000 A 
ATOM     28  N   UNL     1       4.055   6.146  17.528  0.00  0.00    +0.000 NA
ATOM     29  C   UNL     1       2.860   5.600  17.898  0.00  0.00    +0.000 A 
ENDBRANCH  22  29
ENDBRANCH   1  22
TORSDOF 5
ENDMDL
MODEL 4
REMARK VINA RESULT:      -7.3      3.086      4.767
REMARK  Name = 
REMARK  8 active torsions:
REMARK  status: ('A' for Active; 'I' for Inactive)
REMARK    1  A    between atoms: C_1  and  C_2
REMARK    2  A    between atoms: C_7  and  C_8
REMARK    3  A    between atoms: C_8  and  N_9
REMARK    4  A    between atoms: N_17  and  C_18
REMARK    5  A    between atoms: C_21  and  O_22
REMARK    6  A    between atoms: O_22  and  C_23
REMARK    7  A    between atoms: C_23  and  C_24
REMARK    8  A    between atoms: C_23  and  C_25
REMARK                            x       y       z     vdW  Elec       q    Type
REMARK                         _______ _______ _______ _____ _____    ______ ____
ROOT
ATOM      1  N   UNL     1      -0.190  15.353  20.230  0.00  0.00    +0.000 NA
ATOM      2  C   UNL     1      -0.073  14.282  21.209  0.00  0.00    +0.000 C 
ATOM      3  C   UNL     1       0.391  12.890  20.766  0.00  0.00    +0.000 C 
ATOM      4  C   UNL     1       0.097  12.472  19.314  0.00  0.00    +0.000 C 
ATOM      5  C   UNL     1       0.072  13.664  18.353  0.00  0.00    +0.000 C 
ATOM      6  C   UNL     1      -0.576  14.935  18.890  0.00  0.00    +0.000 C 
ATOM      7  C   UNL     1      -1.126  11.546  19.213  0.00  0.00    +0.000 C 
ATOM      8  C   UNL     1      -0.590  10.183  19.645  0.00  0.00    +0.000 C 
ATOM      9  N   UNL     1       0.784  10.183  19.196  0.00  0.00    +0.000 N 
ATOM     10  C   UNL     1       1.202  11.487  18.880  0.00  0.00    +0.000 C 
ATOM     11  O   UNL     1       2.265  11.844  18.392  0.00  0.00    +0.000 OA
ENDROOT
BRANCH   9  12
ATOM     12  C   UNL     1       1.558   8.993  19.053  0.00  0.00    +0.000 A 
ATOM     13  C   UNL     1       2.202   8.668  17.852  0.00  0.00    +0.000 A 
ATOM     14  C   UNL     1       2.865   7.445  17.686  0.00  0.00    +0.000 A 
ATOM     15  C   UNL     1       2.937   6.526  18.728  0.00  0.00    +0.000 A 
ATOM     16  C   UNL     1       2.372   6.862  19.952  0.00  0.00    +0.000 A 
ATOM     17  C   UNL     1       1.688   8.081  20.110  0.00  0.00    +0.000 A 
BRANCH  15  18
ATOM     18  O   UNL     1       3.505   5.328  18.407  0.00  0.00    +0.000 OA
BRANCH  18  19
ATOM     19  C   UNL     1       2.727   4.137  18.571  0.00  0.00    +0.000 C 
ATOM     20  C   UNL     1       1.450   4.197  17.734  0.00  0.00    +0.000 C 
ATOM     21  C   UNL     1       3.602   2.989  18.067  0.00  0.00    +0.000 C 
ENDBRANCH  18  19
ENDBRANCH  15  18
ENDBRANCH   9  12
BRANCH   1  22
ATOM     22  C   UNL     1       0.889  16.354  20.258  0.00  0.00    +0.000 C 
BRANCH  22  29
ATOM     23  C   UNL     1       1.366  17.894  17.614  0.00  0.00    +0.000 C 
ATOM     24  C   UNL     1       2.221  16.751  18.082  0.00  0.00    +0.000 A 
ATOM     25  C   UNL     1       3.296  16.356  17.273  0.00  0.00    +0.000 A 
ATOM     26  C   UNL     1       4.171  15.365  17.688  0.00  0.00    +0.000 A 
ATOM     27  C   UNL     1       3.955  14.794  18.925  0.00  0.00    +0.000 A 
ATOM     28  N   UNL     1       2.922  15.121  19.727  0.00  0.00    +0.000 NA
ATOM     29  C   UNL     1       2.053  16.089  19.312  0.00  0.00    +0.000 A 
ENDBRANCH  22  29
ENDBRANCH   1  22
TORSDOF 5
ENDMDL
MODEL 5
REMARK VINA RESULT:      -7.3      2.290      9.982
REMARK  Name = 
REMARK  8 active torsions:
REMARK  status: ('A' for Active; 'I' for Inactive)
REMARK    1  A    between atoms: C_1  and  C_2
REMARK    2  A    between atoms: C_7  and  C_8
REMARK    3  A    between atoms: C_8  and  N_9
REMARK    4  A    between atoms: N_17  and  C_18
REMARK    5  A    between atoms: C_21  and  O_22
REMARK    6  A    between atoms: O_22  and  C_23
REMARK    7  A    between atoms: C_23  and  C_24
REMARK    8  A    between atoms: C_23  and  C_25
REMARK                            x       y       z     vdW  Elec       q    Type
REMARK                         _______ _______ _______ _____ _____    ______ ____
ROOT
ATOM      1  N   UNL     1       2.429   7.605  18.809  0.00  0.00    +0.000 NA
ATOM      2  C   UNL     1       2.074   7.885  20.193  0.00  0.00    +0.000 C 
ATOM      3  C   UNL     1       0.989   8.921  20.508  0.00  0.00    +0.000 C 
ATOM      4  C   UNL     1       0.778  10.061  19.495  0.00  0.00    +0.000 C 
ATOM      5  C   UNL     1       1.107   9.639  18.060  0.00  0.00    +0.000 C 
ATOM      6  C   UNL     1       2.323   8.734  17.897  0.00  0.00    +0.000 C 
ATOM      7  C   UNL     1       1.451  11.368  19.945  0.00  0.00    +0.000 C 
ATOM      8  C   UNL     1       0.491  11.932  20.991  0.00  0.00    +0.000 C 
ATOM      9  N   UNL     1      -0.815  11.508  20.540  0.00  0.00    +0.000 N 
ATOM     10  C   UNL     1      -0.700  10.490  19.577  0.00  0.00    +0.000 C 
ATOM     11  O   UNL     1      -1.590   9.963  18.925  0.00  0.00    +0.000 OA
ENDROOT
BRANCH   9  12
ATOM     12  C   UNL     1      -2.029  12.106  20.992  0.00  0.00    +0.000 A 
ATOM     13  C   UNL     1      -2.399  12.101  22.343  0.00  0.00    +0.000 A 
ATOM     14  C   UNL     1      -3.643  12.590  22.762  0.00  0.00    +0.000 A 
ATOM     15  C   UNL     1      -4.538  13.136  21.848  0.00  0.00    +0.000 A 
ATOM     16  C   UNL     1      -4.158  13.222  20.515  0.00  0.00    +0.000 A 
ATOM     17  C   UNL     1      -2.919  12.710  20.093  0.00  0.00    +0.000 A 
BRANCH  15  18
ATOM     18  O   UNL     1      -5.759  13.468  22.360  0.00  0.00    +0.000 OA
BRANCH  18  19
ATOM     19  C   UNL     1      -5.817  14.422  23.425  0.00  0.00    +0.000 C 
ATOM     20  C   UNL     1      -5.502  15.829  22.919  0.00  0.00    +0.000 C 
ATOM     21  C   UNL     1      -7.255  14.388  23.944  0.00  0.00    +0.000 C 
ENDBRANCH  18  19
ENDBRANCH  15  18
ENDBRANCH   9  12
BRANCH   1  22
ATOM     22  C   UNL     1       1.901   6.343  18.265  0.00  0.00    +0.000 C 
BRANCH  22  29
ATOM     23  C   UNL     1       0.927   4.205  20.283  0.00  0.00    +0.000 C 
ATOM     24  C   UNL     1       2.264   4.163  19.599  0.00  0.00    +0.000 A 
ATOM     25  C   UNL     1       3.123   3.094  19.893  0.00  0.00    +0.000 A 
ATOM     26  C   UNL     1       4.332   2.951  19.233  0.00  0.00    +0.000 A 
ATOM     27  C   UNL     1       4.654   3.887  18.272  0.00  0.00    +0.000 A 
ATOM     28  N   UNL     1       3.874   4.946  17.972  0.00  0.00    +0.000 NA
ATOM     29  C   UNL     1       2.688   5.092  18.632  0.00  0.00    +0.000 A 
ENDBRANCH  22  29
ENDBRANCH   1  22
TORSDOF 5
ENDMDL
MODEL 6
REMARK VINA RESULT:      -7.3      1.165      1.596
REMARK  Name = 
REMARK  8 active torsions:
REMARK  status: ('A' for Active; 'I' for Inactive)
REMARK    1  A    between atoms: C_1  and  C_2
REMARK    2  A    between atoms: C_7  and  C_8
REMARK    3  A    between atoms: C_8  and  N_9
REMARK    4  A    between atoms: N_17  and  C_18
REMARK    5  A    between atoms: C_21  and  O_22
REMARK    6  A    between atoms: O_22  and  C_23
REMARK    7  A    between atoms: C_23  and  C_24
REMARK    8  A    between atoms: C_23  and  C_25
REMARK                            x       y       z     vdW  Elec       q    Type
REMARK                         _______ _______ _______ _____ _____    ______ ____
ROOT
ATOM      1  N   UNL     1      -1.683  12.485  20.665  0.00  0.00    +0.000 NA
ATOM      2  C   UNL     1      -1.906  11.502  19.615  0.00  0.00    +0.000 C 
ATOM      3  C   UNL     1      -0.883  10.384  19.385  0.00  0.00    +0.000 C 
ATOM      4  C   UNL     1       0.581  10.671  19.766  0.00  0.00    +0.000 C 
ATOM      5  C   UNL     1       0.702  11.658  20.930  0.00  0.00    +0.000 C 
ATOM      6  C   UNL     1      -0.290  12.815  20.926  0.00  0.00    +0.000 C 
ATOM      7  C   UNL     1       1.440  11.024  18.540  0.00  0.00    +0.000 C 
ATOM      8  C   UNL     1       1.727   9.670  17.894  0.00  0.00    +0.000 C 
ATOM      9  N   UNL     1       1.788   8.750  19.007  0.00  0.00    +0.000 N 
ATOM     10  C   UNL     1       1.232   9.331  20.160  0.00  0.00    +0.000 C 
ATOM     11  O   UNL     1       1.196   8.874  21.294  0.00  0.00    +0.000 OA
ENDROOT
BRANCH   9  12
ATOM     12  C   UNL     1       2.392   7.460  18.921  0.00  0.00    +0.000 A 
ATOM     13  C   UNL     1       2.159   6.467  19.880  0.00  0.00    +0.000 A 
ATOM     14  C   UNL     1       2.842   5.244  19.848  0.00  0.00    +0.000 A 
ATOM     15  C   UNL     1       3.750   4.962  18.833  0.00  0.00    +0.000 A 
ATOM     16  C   UNL     1       3.938   5.903  17.828  0.00  0.00    +0.000 A 
ATOM     17  C   UNL     1       3.268   7.138  17.874  0.00  0.00    +0.000 A 
BRANCH  15  18
ATOM     18  O   UNL     1       4.436   3.792  18.977  0.00  0.00    +0.000 OA
BRANCH  18  19
ATOM     19  C   UNL     1       3.718   2.626  19.394  0.00  0.00    +0.000 C 
ATOM     20  C   UNL     1       3.443   1.699  18.211  0.00  0.00    +0.000 C 
ATOM     21  C   UNL     1       4.626   1.906  20.393  0.00  0.00    +0.000 C 
ENDBRANCH  18  19
ENDBRANCH  15  18
ENDBRANCH   9  12
BRANCH   1  22
ATOM     22  C   UNL     1      -2.494  12.304  21.880  0.00  0.00    +0.000 C 
BRANCH  22  29
ATOM     23  C   UNL     1      -4.204  12.488  24.456  0.00  0.00    +0.000 C 
ATOM     24  C   UNL     1      -4.352  13.417  23.285  0.00  0.00    +0.000 A 
ATOM     25  C   UNL     1      -5.325  14.425  23.361  0.00  0.00    +0.000 A 
ATOM     26  C   UNL     1      -5.455  15.364  22.351  0.00  0.00    +0.000 A 
ATOM     27  C   UNL     1      -4.589  15.280  21.280  0.00  0.00    +0.000 A 
ATOM     28  N   UNL     1      -3.656  14.316  21.150  0.00  0.00    +0.000 NA
ATOM     29  C   UNL     1      -3.537  13.383  22.139  0.00  0.00    +0.000 A 
ENDBRANCH  22  29
ENDBRANCH   1  22
TORSDOF 5
ENDMDL
MODEL 7
REMARK VINA RESULT:      -7.2      2.524      9.918
REMARK  Name = 
REMARK  8 active torsions:
REMARK  status: ('A' for Active; 'I' for Inactive)
REMARK    1  A    between atoms: C_1  and  C_2
REMARK    2  A    between atoms: C_7  and  C_8
REMARK    3  A    between atoms: C_8  and  N_9
REMARK    4  A    between atoms: N_17  and  C_18
REMARK    5  A    between atoms: C_21  and  O_22
REMARK    6  A    between atoms: O_22  and  C_23
REMARK    7  A    between atoms: C_23  and  C_24
REMARK    8  A    between atoms: C_23  and  C_25
REMARK                            x       y       z     vdW  Elec       q    Type
REMARK                         _______ _______ _______ _____ _____    ______ ____
ROOT
ATOM      1  N   UNL     1       2.332   7.730  18.881  0.00  0.00    +0.000 NA
ATOM      2  C   UNL     1       1.863   7.949  20.242  0.00  0.00    +0.000 C 
ATOM      3  C   UNL     1       0.767   8.985  20.515  0.00  0.00    +0.000 C 
ATOM      4  C   UNL     1       0.654  10.174  19.544  0.00  0.00    +0.000 C 
ATOM      5  C   UNL     1       1.099   9.816  18.123  0.00  0.00    +0.000 C 
ATOM      6  C   UNL     1       2.315   8.902  18.018  0.00  0.00    +0.000 C 
ATOM      7  C   UNL     1       1.300  11.449  20.111  0.00  0.00    +0.000 C 
ATOM      8  C   UNL     1       0.261  11.976  21.098  0.00  0.00    +0.000 C 
ATOM      9  N   UNL     1      -1.006  11.593  20.519  0.00  0.00    +0.000 N 
ATOM     10  C   UNL     1      -0.821  10.620  19.521  0.00  0.00    +0.000 C 
ATOM     11  O   UNL     1      -1.658  10.137  18.772  0.00  0.00    +0.000 OA
ENDROOT
BRANCH   9  12
ATOM     12  C   UNL     1      -2.248  12.187  20.896  0.00  0.00    +0.000 A 
ATOM     13  C   UNL     1      -2.589  12.402  22.237  0.00  0.00    +0.000 A 
ATOM     14  C   UNL     1      -3.854  12.881  22.602  0.00  0.00    +0.000 A 
ATOM     15  C   UNL     1      -4.803  13.196  21.635  0.00  0.00    +0.000 A 
ATOM     16  C   UNL     1      -4.457  13.064  20.296  0.00  0.00    +0.000 A 
ATOM     17  C   UNL     1      -3.195  12.562  19.932  0.00  0.00    +0.000 A 
BRANCH  15  18
ATOM     18  O   UNL     1      -6.032  13.539  22.117  0.00  0.00    +0.000 OA
BRANCH  18  19
ATOM     19  C   UNL     1      -6.778  12.559  22.847  0.00  0.00    +0.000 C 
ATOM     20  C   UNL     1      -7.681  13.219  23.887  0.00  0.00    +0.000 C 
ATOM     21  C   UNL     1      -7.647  11.838  21.815  0.00  0.00    +0.000 C 
ENDBRANCH  18  19
ENDBRANCH  15  18
ENDBRANCH   9  12
BRANCH   1  22
ATOM     22  C   UNL     1       1.839   6.503  18.234  0.00  0.00    +0.000 C 
BRANCH  22  29
ATOM     23  C   UNL     1       4.547   5.959  16.836  0.00  0.00    +0.000 C 
ATOM     24  C   UNL     1       3.880   4.992  17.772  0.00  0.00    +0.000 A 
ATOM     25  C   UNL     1       4.520   3.770  18.025  0.00  0.00    +0.000 A 
ATOM     26  C   UNL     1       3.999   2.872  18.942  0.00  0.00    +0.000 A 
ATOM     27  C   UNL     1       2.842   3.228  19.604  0.00  0.00    +0.000 A 
ATOM     28  N   UNL     1       2.177   4.378  19.376  0.00  0.00    +0.000 NA
ATOM     29  C   UNL     1       2.684   5.257  18.463  0.00  0.00    +0.000 A 
ENDBRANCH  22  29
ENDBRANCH   1  22
TORSDOF 5
ENDMDL
MODEL 8
REMARK VINA RESULT:      -7.2      2.496      9.876
REMARK  Name = 
REMARK  8 active torsions:
REMARK  status: ('A' for Active; 'I' for Inactive)
REMARK    1  A    between atoms: C_1  and  C_2
REMARK    2  A    between atoms: C_7  and  C_8
REMARK    3  A    between atoms: C_8  and  N_9
REMARK    4  A    between atoms: N_17  and  C_18
REMARK    5  A    between atoms: C_21  and  O_22
REMARK    6  A    between atoms: O_22  and  C_23
REMARK    7  A    between atoms: C_23  and  C_24
REMARK    8  A    between atoms: C_23  and  C_25
REMARK                            x       y       z     vdW  Elec       q    Type
REMARK                         _______ _______ _______ _____ _____    ______ ____
ROOT
ATOM      1  N   UNL     1       2.411   7.661  18.834  0.00  0.00    +0.000 NA
ATOM      2  C   UNL     1       2.016   7.937  20.209  0.00  0.00    +0.000 C 
ATOM      3  C   UNL     1       0.902   8.950  20.494  0.00  0.00    +0.000 C 
ATOM      4  C   UNL     1       0.691  10.082  19.472  0.00  0.00    +0.000 C 
ATOM      5  C   UNL     1       1.063   9.663  18.047  0.00  0.00    +0.000 C 
ATOM      6  C   UNL     1       2.301   8.784  17.916  0.00  0.00    +0.000 C 
ATOM      7  C   UNL     1       1.324  11.405  19.933  0.00  0.00    +0.000 C 
ATOM      8  C   UNL     1       0.328  11.951  20.953  0.00  0.00    +0.000 C 
ATOM      9  N   UNL     1      -0.958  11.497  20.473  0.00  0.00    +0.000 N 
ATOM     10  C   UNL     1      -0.798  10.479  19.517  0.00  0.00    +0.000 C 
ATOM     11  O   UNL     1      -1.660   9.930  18.846  0.00  0.00    +0.000 OA
ENDROOT
BRANCH   9  12
ATOM     12  C   UNL     1      -2.195  12.071  20.894  0.00  0.00    +0.000 A 
ATOM     13  C   UNL     1      -3.138  12.554  19.978  0.00  0.00    +0.000 A 
ATOM     14  C   UNL     1      -4.297  13.216  20.403  0.00  0.00    +0.000 A 
ATOM     15  C   UNL     1      -4.567  13.381  21.757  0.00  0.00    +0.000 A 
ATOM     16  C   UNL     1      -3.684  12.840  22.683  0.00  0.00    +0.000 A 
ATOM     17  C   UNL     1      -2.510  12.196  22.255  0.00  0.00    +0.000 A 
BRANCH  15  18
ATOM     18  O   UNL     1      -5.663  14.143  22.042  0.00  0.00    +0.000 OA
BRANCH  18  19
ATOM     19  C   UNL     1      -6.951  13.663  21.643  0.00  0.00    +0.000 C 
ATOM     20  C   UNL     1      -7.397  12.494  22.520  0.00  0.00    +0.000 C 
ATOM     21  C   UNL     1      -7.916  14.833  21.841  0.00  0.00    +0.000 C 
ENDBRANCH  18  19
ENDBRANCH  15  18
ENDBRANCH   9  12
BRANCH   1  22
ATOM     22  C   UNL     1       1.923   6.386  18.283  0.00  0.00    +0.000 C 
BRANCH  22  29
ATOM     23  C   UNL     1       0.990   4.290  20.364  0.00  0.00    +0.000 C 
ATOM     24  C   UNL     1       2.321   4.245  19.669  0.00  0.00    +0.000 A 
ATOM     25  C   UNL     1       3.194   3.193  19.983  0.00  0.00    +0.000 A 
ATOM     26  C   UNL     1       4.400   3.046  19.317  0.00  0.00    +0.000 A 
ATOM     27  C   UNL     1       4.703   3.961  18.329  0.00  0.00    +0.000 A 
ATOM     28  N   UNL     1       3.909   5.003  18.009  0.00  0.00    +0.000 NA
ATOM     29  C   UNL     1       2.727   5.153  18.675  0.00  0.00    +0.000 A 
ENDBRANCH  22  29
ENDBRANCH   1  22
TORSDOF 5
ENDMDL
MODEL 9
REMARK VINA RESULT:      -7.2      3.084      4.852
REMARK  Name = 
REMARK  8 active torsions:
REMARK  status: ('A' for Active; 'I' for Inactive)
REMARK    1  A    between atoms: C_1  and  C_2
REMARK    2  A    between atoms: C_7  and  C_8
REMARK    3  A    between atoms: C_8  and  N_9
REMARK    4  A    between atoms: N_17  and  C_18
REMARK    5  A    between atoms: C_21  and  O_22
REMARK    6  A    between atoms: O_22  and  C_23
REMARK    7  A    between atoms: C_23  and  C_24
REMARK    8  A    between atoms: C_23  and  C_25
REMARK                            x       y       z     vdW  Elec       q    Type
REMARK                         _______ _______ _______ _____ _____    ______ ____
ROOT
ATOM      1  N   UNL     1      -0.073  15.394  20.435  0.00  0.00    +0.000 NA
ATOM      2  C   UNL     1       0.051  14.317  21.407  0.00  0.00    +0.000 C 
ATOM      3  C   UNL     1       0.444  12.910  20.943  0.00  0.00    +0.000 C 
ATOM      4  C   UNL     1       0.069  12.506  19.506  0.00  0.00    +0.000 C 
ATOM      5  C   UNL     1       0.041  13.700  18.548  0.00  0.00    +0.000 C 
ATOM      6  C   UNL     1      -0.535  14.992  19.114  0.00  0.00    +0.000 C 
ATOM      7  C   UNL     1      -1.190  11.624  19.461  0.00  0.00    +0.000 C 
ATOM      8  C   UNL     1      -0.683  10.242  19.868  0.00  0.00    +0.000 C 
ATOM      9  N   UNL     1       0.668  10.195  19.355  0.00  0.00    +0.000 N 
ATOM     10  C   UNL     1       1.116  11.484  19.021  0.00  0.00    +0.000 C 
ATOM     11  O   UNL     1       2.168  11.803  18.485  0.00  0.00    +0.000 OA
ENDROOT
BRANCH   9  12
ATOM     12  C   UNL     1       1.392   8.978  19.176  0.00  0.00    +0.000 A 
ATOM     13  C   UNL     1       1.572   8.062  20.220  0.00  0.00    +0.000 A 
ATOM     14  C   UNL     1       2.378   6.926  20.065  0.00  0.00    +0.000 A 
ATOM     15  C   UNL     1       2.996   6.652  18.850  0.00  0.00    +0.000 A 
ATOM     16  C   UNL     1       2.766   7.506  17.779  0.00  0.00    +0.000 A 
ATOM     17  C   UNL     1       1.976   8.657  17.942  0.00  0.00    +0.000 A 
BRANCH  15  18
ATOM     18  O   UNL     1       3.846   5.585  18.859  0.00  0.00    +0.000 OA
BRANCH  18  19
ATOM     19  C   UNL     1       3.370   4.327  18.369  0.00  0.00    +0.000 C 
ATOM     20  C   UNL     1       3.970   4.009  17.001  0.00  0.00    +0.000 C 
ATOM     21  C   UNL     1       3.839   3.277  19.378  0.00  0.00    +0.000 C 
ENDBRANCH  18  19
ENDBRANCH  15  18
ENDBRANCH   9  12
BRANCH   1  22
ATOM     22  C   UNL     1       1.041  16.356  20.413  0.00  0.00    +0.000 C 
BRANCH  22  29
ATOM     23  C   UNL     1       1.397  17.775  17.684  0.00  0.00    +0.000 C 
ATOM     24  C   UNL     1       2.269  16.649  18.162  0.00  0.00    +0.000 A 
ATOM     25  C   UNL     1       3.303  16.212  17.320  0.00  0.00    +0.000 A 
ATOM     26  C   UNL     1       4.193  15.236  17.737  0.00  0.00    +0.000 A 
ATOM     27  C   UNL     1       4.034  14.721  19.007  0.00  0.00    +0.000 A 
ATOM     28  N   UNL     1       3.041  15.089  19.841  0.00  0.00    +0.000 NA
ATOM     29  C   UNL     1       2.157  16.043  19.426  0.00  0.00    +0.000 A 
ENDBRANCH  22  29
ENDBRANCH   1  22
TORSDOF 5
ENDMDL
