MODEL 1
REMARK VINA RESULT:      -6.7      0.000      0.000
REMARK  Name = 
REMARK  6 active torsions:
REMARK  status: ('A' for Active; 'I' for Inactive)
REMARK    1  A    between atoms: C_1  and  O_2
REMARK    2  A    between atoms: O_2  and  C_3
REMARK    3  A    between atoms: C_3  and  C_4
REMARK    4  A    between atoms: C_4  and  C_5
REMARK    5  A    between atoms: C_4  and  C_6
REMARK    6  A    between atoms: N_8  and  C_9
REMARK                            x       y       z     vdW  Elec       q    Type
REMARK                         _______ _______ _______ _____ _____    ______ ____
ROOT
ATOM      1  C   UNL     1       4.785   4.901  18.117  0.00  0.00    +0.000 A 
ATOM      2  C   UNL     1       6.028   5.492  18.351  0.00  0.00    +0.000 A 
ATOM      3  C   UNL     1       6.985   5.570  17.340  0.00  0.00    +0.000 A 
ATOM      4  C   UNL     1       6.709   5.096  16.058  0.00  0.00    +0.000 A 
ATOM      5  C   UNL     1       5.493   4.429  15.831  0.00  0.00    +0.000 A 
ATOM      6  C   UNL     1       4.541   4.325  16.866  0.00  0.00    +0.000 A 
ATOM      7  C   UNL     1       5.152   3.913  14.454  0.00  0.00    +0.000 C 
ATOM      8  C   UNL     1       6.353   3.897  13.511  0.00  0.00    +0.000 C 
ATOM      9  C   UNL     1       7.189   5.152  13.705  0.00  0.00    +0.000 C 
ATOM     10  N   UNL     1       7.700   5.186  15.068  0.00  0.00    +0.000 N 
ATOM     11  H   UNL     1       8.343   5.955  15.240  0.00  0.00    +0.000 HD
ENDROOT
BRANCH   1  14
ATOM     12  C   UNL     1       3.536   3.816  19.963  0.00  0.00    +0.000 C 
ATOM     13  O   UNL     1       4.226   2.799  20.013  0.00  0.00    +0.000 OA
ATOM     14  N   UNL     1       3.757   4.869  19.090  0.00  0.00    +0.000 N 
ATOM     15  H   UNL     1       3.276   5.740  19.267  0.00  0.00    +0.000 HD
BRANCH  12  16
ATOM     16  C   UNL     1       2.340   3.984  20.900  0.00  0.00    +0.000 C 
ATOM     17  C   UNL     1       2.163   2.799  21.849  0.00  0.00    +0.000 C 
BRANCH  16  18
ATOM     18  C   UNL     1       1.094   4.172  20.017  0.00  0.00    +0.000 C 
BRANCH  18  20
ATOM     19  C   UNL     1       0.646   2.294  18.692  0.00  0.00    +0.000 C 
ATOM     20  O   UNL     1       1.272   3.574  18.732  0.00  0.00    +0.000 OA
ENDBRANCH  18  20
ENDBRANCH  16  18
ENDBRANCH  12  16
ENDBRANCH   1  14
TORSDOF 4
ENDMDL
MODEL 2
REMARK VINA RESULT:      -6.7      1.004      1.004
REMARK  Name = 
REMARK  6 active torsions:
REMARK  status: ('A' for Active; 'I' for Inactive)
REMARK    1  A    between atoms: C_1  and  O_2
REMARK    2  A    between atoms: O_2  and  C_3
REMARK    3  A    between atoms: C_3  and  C_4
REMARK    4  A    between atoms: C_4  and  C_5
REMARK    5  A    between atoms: C_4  and  C_6
REMARK    6  A    between atoms: N_8  and  C_9
REMARK                            x       y       z     vdW  Elec       q    Type
REMARK                         _______ _______ _______ _____ _____    ______ ____
ROOT
ATOM      1  C   UNL     1       4.855   4.029  18.352  0.00  0.00    +0.000 A 
ATOM      2  C   UNL     1       6.105   4.556  18.682  0.00  0.00    +0.000 A 
ATOM      3  C   UNL     1       7.048   4.835  17.693  0.00  0.00    +0.000 A 
ATOM      4  C   UNL     1       6.749   4.635  16.346  0.00  0.00    +0.000 A 
ATOM      5  C   UNL     1       5.526   4.033  16.006  0.00  0.00    +0.000 A 
ATOM      6  C   UNL     1       4.589   3.723  17.014  0.00  0.00    +0.000 A 
ATOM      7  C   UNL     1       5.161   3.810  14.559  0.00  0.00    +0.000 C 
ATOM      8  C   UNL     1       6.347   3.984  13.613  0.00  0.00    +0.000 C 
ATOM      9  C   UNL     1       7.195   5.170  14.047  0.00  0.00    +0.000 C 
ATOM     10  N   UNL     1       7.726   4.923  15.379  0.00  0.00    +0.000 N 
ATOM     11  H   UNL     1       8.377   5.638  15.695  0.00  0.00    +0.000 HD
ENDROOT
BRANCH   1  14
ATOM     12  C   UNL     1       3.097   4.804  19.918  0.00  0.00    +0.000 C 
ATOM     13  O   UNL     1       3.211   6.002  19.667  0.00  0.00    +0.000 OA
ATOM     14  N   UNL     1       3.842   3.803  19.314  0.00  0.00    +0.000 N 
ATOM     15  H   UNL     1       3.532   2.848  19.427  0.00  0.00    +0.000 HD
BRANCH  12  16
ATOM     16  C   UNL     1       2.085   4.326  20.960  0.00  0.00    +0.000 C 
ATOM     17  C   UNL     1       2.559   3.085  21.717  0.00  0.00    +0.000 C 
BRANCH  16  18
ATOM     18  C   UNL     1       0.767   4.048  20.219  0.00  0.00    +0.000 C 
BRANCH  18  20
ATOM     19  C   UNL     1       0.655   2.251  18.723  0.00  0.00    +0.000 C 
ATOM     20  O   UNL     1       1.003   3.625  18.876  0.00  0.00    +0.000 OA
ENDBRANCH  18  20
ENDBRANCH  16  18
ENDBRANCH  12  16
ENDBRANCH   1  14
TORSDOF 4
ENDMDL
MODEL 3
REMARK VINA RESULT:      -6.6      2.795      6.604
REMARK  Name = 
REMARK  6 active torsions:
REMARK  status: ('A' for Active; 'I' for Inactive)
REMARK    1  A    between atoms: C_1  and  O_2
REMARK    2  A    between atoms: O_2  and  C_3
REMARK    3  A    between atoms: C_3  and  C_4
REMARK    4  A    between atoms: C_4  and  C_5
REMARK    5  A    between atoms: C_4  and  C_6
REMARK    6  A    between atoms: N_8  and  C_9
REMARK                            x       y       z     vdW  Elec       q    Type
REMARK                         _______ _______ _______ _____ _____    ______ ____
ROOT
ATOM      1  C   UNL     1       4.998   4.248  17.260  0.00  0.00    +0.000 A 
ATOM      2  C   UNL     1       5.480   5.082  18.270  0.00  0.00    +0.000 A 
ATOM      3  C   UNL     1       4.727   5.323  19.420  0.00  0.00    +0.000 A 
ATOM      4  C   UNL     1       3.492   4.703  19.608  0.00  0.00    +0.000 A 
ATOM      5  C   UNL     1       2.961   3.924  18.565  0.00  0.00    +0.000 A 
ATOM      6  C   UNL     1       3.713   3.710  17.391  0.00  0.00    +0.000 A 
ATOM      7  C   UNL     1       1.634   3.226  18.734  0.00  0.00    +0.000 C 
ATOM      8  C   UNL     1       0.849   3.727  19.945  0.00  0.00    +0.000 C 
ATOM      9  C   UNL     1       1.786   3.951  21.121  0.00  0.00    +0.000 C 
ATOM     10  N   UNL     1       2.762   4.974  20.775  0.00  0.00    +0.000 N 
ATOM     11  H   UNL     1       3.365   5.238  21.550  0.00  0.00    +0.000 HD
ENDROOT
BRANCH   1  14
ATOM     12  C   UNL     1       6.045   4.794  15.081  0.00  0.00    +0.000 C 
ATOM     13  O   UNL     1       5.695   5.973  15.055  0.00  0.00    +0.000 OA
ATOM     14  N   UNL     1       5.758   3.915  16.114  0.00  0.00    +0.000 N 
ATOM     15  H   UNL     1       6.264   3.040  16.146  0.00  0.00    +0.000 HD
BRANCH  12  16
ATOM     16  C   UNL     1       6.849   4.201  13.924  0.00  0.00    +0.000 C 
ATOM     17  C   UNL     1       7.719   5.240  13.217  0.00  0.00    +0.000 C 
BRANCH  16  18
ATOM     18  C   UNL     1       5.842   3.571  12.947  0.00  0.00    +0.000 C 
BRANCH  18  20
ATOM     19  C   UNL     1       5.767   1.809  11.407  0.00  0.00    +0.000 C 
ATOM     20  O   UNL     1       6.504   2.947  11.846  0.00  0.00    +0.000 OA
ENDBRANCH  18  20
ENDBRANCH  16  18
ENDBRANCH  12  16
ENDBRANCH   1  14
TORSDOF 4
ENDMDL
MODEL 4
REMARK VINA RESULT:      -6.5      2.621      6.447
REMARK  Name = 
REMARK  6 active torsions:
REMARK  status: ('A' for Active; 'I' for Inactive)
REMARK    1  A    between atoms: C_1  and  O_2
REMARK    2  A    between atoms: O_2  and  C_3
REMARK    3  A    between atoms: C_3  and  C_4
REMARK    4  A    between atoms: C_4  and  C_5
REMARK    5  A    between atoms: C_4  and  C_6
REMARK    6  A    between atoms: N_8  and  C_9
REMARK                            x       y       z     vdW  Elec       q    Type
REMARK                         _______ _______ _______ _____ _____    ______ ____
ROOT
ATOM      1  C   UNL     1       4.154   4.510  17.148  0.00  0.00    +0.000 A 
ATOM      2  C   UNL     1       4.343   5.662  17.913  0.00  0.00    +0.000 A 
ATOM      3  C   UNL     1       3.768   5.783  19.178  0.00  0.00    +0.000 A 
ATOM      4  C   UNL     1       3.026   4.737  19.728  0.00  0.00    +0.000 A 
ATOM      5  C   UNL     1       2.763   3.606  18.937  0.00  0.00    +0.000 A 
ATOM      6  C   UNL     1       3.321   3.503  17.645  0.00  0.00    +0.000 A 
ATOM      7  C   UNL     1       1.975   2.448  19.500  0.00  0.00    +0.000 C 
ATOM      8  C   UNL     1       1.260   2.795  20.804  0.00  0.00    +0.000 C 
ATOM      9  C   UNL     1       2.158   3.648  21.685  0.00  0.00    +0.000 C 
ATOM     10  N   UNL     1       2.459   4.898  21.002  0.00  0.00    +0.000 N 
ATOM     11  H   UNL     1       2.984   5.556  21.573  0.00  0.00    +0.000 HD
ENDROOT
BRANCH   1  14
ATOM     12  C   UNL     1       6.149   4.208  15.708  0.00  0.00    +0.000 C 
ATOM     13  O   UNL     1       6.977   4.244  16.617  0.00  0.00    +0.000 OA
ATOM     14  N   UNL     1       4.780   4.313  15.893  0.00  0.00    +0.000 N 
ATOM     15  H   UNL     1       4.177   4.061  15.122  0.00  0.00    +0.000 HD
BRANCH  12  16
ATOM     16  C   UNL     1       6.601   4.041  14.258  0.00  0.00    +0.000 C 
ATOM     17  C   UNL     1       7.510   5.177  13.789  0.00  0.00    +0.000 C 
BRANCH  16  18
ATOM     18  C   UNL     1       5.333   3.959  13.393  0.00  0.00    +0.000 C 
BRANCH  18  20
ATOM     19  C   UNL     1       4.374   3.150  11.415  0.00  0.00    +0.000 C 
ATOM     20  O   UNL     1       5.563   3.206  12.200  0.00  0.00    +0.000 OA
ENDBRANCH  18  20
ENDBRANCH  16  18
ENDBRANCH  12  16
ENDBRANCH   1  14
TORSDOF 4
ENDMDL
MODEL 5
REMARK VINA RESULT:      -6.5      1.332      1.757
REMARK  Name = 
REMARK  6 active torsions:
REMARK  status: ('A' for Active; 'I' for Inactive)
REMARK    1  A    between atoms: C_1  and  O_2
REMARK    2  A    between atoms: O_2  and  C_3
REMARK    3  A    between atoms: C_3  and  C_4
REMARK    4  A    between atoms: C_4  and  C_5
REMARK    5  A    between atoms: C_4  and  C_6
REMARK    6  A    between atoms: N_8  and  C_9
REMARK                            x       y       z     vdW  Elec       q    Type
REMARK                         _______ _______ _______ _____ _____    ______ ____
ROOT
ATOM      1  C   UNL     1       5.096   4.388  17.035  0.00  0.00    +0.000 A 
ATOM      2  C   UNL     1       6.214   5.162  17.353  0.00  0.00    +0.000 A 
ATOM      3  C   UNL     1       7.177   5.458  16.387  0.00  0.00    +0.000 A 
ATOM      4  C   UNL     1       7.024   5.025  15.070  0.00  0.00    +0.000 A 
ATOM      5  C   UNL     1       5.944   4.181  14.757  0.00  0.00    +0.000 A 
ATOM      6  C   UNL     1       4.992   3.858  15.745  0.00  0.00    +0.000 A 
ATOM      7  C   UNL     1       5.738   3.701  13.341  0.00  0.00    +0.000 C 
ATOM      8  C   UNL     1       6.953   3.943  12.448  0.00  0.00    +0.000 C 
ATOM      9  C   UNL     1       7.561   5.304  12.746  0.00  0.00    +0.000 C 
ATOM     10  N   UNL     1       8.016   5.339  14.128  0.00  0.00    +0.000 N 
ATOM     11  H   UNL     1       8.515   6.192  14.369  0.00  0.00    +0.000 HD
ENDROOT
BRANCH   1  14
ATOM     12  C   UNL     1       3.071   5.036  18.310  0.00  0.00    +0.000 C 
ATOM     13  O   UNL     1       2.967   6.165  17.832  0.00  0.00    +0.000 OA
ATOM     14  N   UNL     1       4.059   4.127  17.962  0.00  0.00    +0.000 N 
ATOM     15  H   UNL     1       3.936   3.164  18.244  0.00  0.00    +0.000 HD
BRANCH  12  16
ATOM     16  C   UNL     1       2.078   4.549  19.365  0.00  0.00    +0.000 C 
ATOM     17  C   UNL     1       1.880   5.556  20.498  0.00  0.00    +0.000 C 
BRANCH  16  18
ATOM     18  C   UNL     1       2.608   3.210  19.905  0.00  0.00    +0.000 C 
BRANCH  18  20
ATOM     19  C   UNL     1       0.740   2.313  18.815  0.00  0.00    +0.000 C 
ATOM     20  O   UNL     1       2.112   2.108  19.143  0.00  0.00    +0.000 OA
ENDBRANCH  18  20
ENDBRANCH  16  18
ENDBRANCH  12  16
ENDBRANCH   1  14
TORSDOF 4
ENDMDL
MODEL 6
REMARK VINA RESULT:      -6.5      1.249      1.603
REMARK  Name = 
REMARK  6 active torsions:
REMARK  status: ('A' for Active; 'I' for Inactive)
REMARK    1  A    between atoms: C_1  and  O_2
REMARK    2  A    between atoms: O_2  and  C_3
REMARK    3  A    between atoms: C_3  and  C_4
REMARK    4  A    between atoms: C_4  and  C_5
REMARK    5  A    between atoms: C_4  and  C_6
REMARK    6  A    between atoms: N_8  and  C_9
REMARK                            x       y       z     vdW  Elec       q    Type
REMARK                         _______ _______ _______ _____ _____    ______ ____
ROOT
ATOM      1  C   UNL     1       4.830   4.693  18.402  0.00  0.00    +0.000 A 
ATOM      2  C   UNL     1       6.169   4.963  18.688  0.00  0.00    +0.000 A 
ATOM      3  C   UNL     1       7.132   4.958  17.679  0.00  0.00    +0.000 A 
ATOM      4  C   UNL     1       6.772   4.726  16.351  0.00  0.00    +0.000 A 
ATOM      5  C   UNL     1       5.442   4.376  16.062  0.00  0.00    +0.000 A 
ATOM      6  C   UNL     1       4.480   4.351  17.092  0.00  0.00    +0.000 A 
ATOM      7  C   UNL     1       5.011   4.129  14.637  0.00  0.00    +0.000 C 
ATOM      8  C   UNL     1       6.190   3.972  13.678  0.00  0.00    +0.000 C 
ATOM      9  C   UNL     1       7.279   4.977  14.017  0.00  0.00    +0.000 C 
ATOM     10  N   UNL     1       7.770   4.723  15.364  0.00  0.00    +0.000 N 
ATOM     11  H   UNL     1       8.564   5.304  15.622  0.00  0.00    +0.000 HD
ENDROOT
BRANCH   1  14
ATOM     12  C   UNL     1       3.358   3.681  20.121  0.00  0.00    +0.000 C 
ATOM     13  O   UNL     1       3.812   2.541  20.033  0.00  0.00    +0.000 OA
ATOM     14  N   UNL     1       3.810   4.763  19.381  0.00  0.00    +0.000 N 
ATOM     15  H   UNL     1       3.526   5.688  19.673  0.00  0.00    +0.000 HD
BRANCH  12  16
ATOM     16  C   UNL     1       2.216   3.985  21.091  0.00  0.00    +0.000 C 
ATOM     17  C   UNL     1       1.380   2.749  21.423  0.00  0.00    +0.000 C 
BRANCH  16  18
ATOM     18  C   UNL     1       1.349   5.078  20.445  0.00  0.00    +0.000 C 
BRANCH  18  20
ATOM     19  C   UNL     1       1.899   7.322  20.066  0.00  0.00    +0.000 C 
ATOM     20  O   UNL     1       1.572   6.349  21.056  0.00  0.00    +0.000 OA
ENDBRANCH  18  20
ENDBRANCH  16  18
ENDBRANCH  12  16
ENDBRANCH   1  14
TORSDOF 4
ENDMDL
MODEL 7
REMARK VINA RESULT:      -6.4      1.382      1.873
REMARK  Name = 
REMARK  6 active torsions:
REMARK  status: ('A' for Active; 'I' for Inactive)
REMARK    1  A    between atoms: C_1  and  O_2
REMARK    2  A    between atoms: O_2  and  C_3
REMARK    3  A    between atoms: C_3  and  C_4
REMARK    4  A    between atoms: C_4  and  C_5
REMARK    5  A    between atoms: C_4  and  C_6
REMARK    6  A    between atoms: N_8  and  C_9
REMARK                            x       y       z     vdW  Elec       q    Type
REMARK                         _______ _______ _______ _____ _____    ______ ____
ROOT
ATOM      1  C   UNL     1       4.935   4.436  16.939  0.00  0.00    +0.000 A 
ATOM      2  C   UNL     1       6.010   5.252  17.294  0.00  0.00    +0.000 A 
ATOM      3  C   UNL     1       7.016   5.551  16.375  0.00  0.00    +0.000 A 
ATOM      4  C   UNL     1       6.950   5.078  15.065  0.00  0.00    +0.000 A 
ATOM      5  C   UNL     1       5.915   4.193  14.717  0.00  0.00    +0.000 A 
ATOM      6  C   UNL     1       4.918   3.868  15.661  0.00  0.00    +0.000 A 
ATOM      7  C   UNL     1       5.801   3.668  13.307  0.00  0.00    +0.000 C 
ATOM      8  C   UNL     1       7.057   3.923  12.476  0.00  0.00    +0.000 C 
ATOM      9  C   UNL     1       7.608   5.309  12.767  0.00  0.00    +0.000 C 
ATOM     10  N   UNL     1       7.984   5.396  14.170  0.00  0.00    +0.000 N 
ATOM     11  H   UNL     1       8.443   6.270  14.414  0.00  0.00    +0.000 HD
ENDROOT
BRANCH   1  14
ATOM     12  C   UNL     1       3.972   3.500  19.022  0.00  0.00    +0.000 C 
ATOM     13  O   UNL     1       5.033   3.087  19.487  0.00  0.00    +0.000 OA
ATOM     14  N   UNL     1       3.855   4.169  17.813  0.00  0.00    +0.000 N 
ATOM     15  H   UNL     1       2.987   4.651  17.621  0.00  0.00    +0.000 HD
BRANCH  12  16
ATOM     16  C   UNL     1       2.662   3.288  19.781  0.00  0.00    +0.000 C 
ATOM     17  C   UNL     1       1.745   2.271  19.101  0.00  0.00    +0.000 C 
BRANCH  16  18
ATOM     18  C   UNL     1       1.974   4.659  19.892  0.00  0.00    +0.000 C 
BRANCH  18  20
ATOM     19  C   UNL     1       2.364   6.952  19.620  0.00  0.00    +0.000 C 
ATOM     20  O   UNL     1       2.929   5.711  20.037  0.00  0.00    +0.000 OA
ENDBRANCH  18  20
ENDBRANCH  16  18
ENDBRANCH  12  16
ENDBRANCH   1  14
TORSDOF 4
ENDMDL
MODEL 8
REMARK VINA RESULT:      -6.3      1.304      1.855
REMARK  Name = 
REMARK  6 active torsions:
REMARK  status: ('A' for Active; 'I' for Inactive)
REMARK    1  A    between atoms: C_1  and  O_2
REMARK    2  A    between atoms: O_2  and  C_3
REMARK    3  A    between atoms: C_3  and  C_4
REMARK    4  A    between atoms: C_4  and  C_5
REMARK    5  A    between atoms: C_4  and  C_6
REMARK    6  A    between atoms: N_8  and  C_9
REMARK                            x       y       z     vdW  Elec       q    Type
REMARK                         _______ _______ _______ _____ _____    ______ ____
ROOT
ATOM      1  C   UNL     1       4.798   4.586  16.680  0.00  0.00    +0.000 A 
ATOM      2  C   UNL     1       5.868   5.387  17.082  0.00  0.00    +0.000 A 
ATOM      3  C   UNL     1       6.935   5.642  16.219  0.00  0.00    +0.000 A 
ATOM      4  C   UNL     1       6.937   5.137  14.918  0.00  0.00    +0.000 A 
ATOM      5  C   UNL     1       5.904   4.267  14.529  0.00  0.00    +0.000 A 
ATOM      6  C   UNL     1       4.845   3.987  15.417  0.00  0.00    +0.000 A 
ATOM      7  C   UNL     1       5.864   3.710  13.126  0.00  0.00    +0.000 C 
ATOM      8  C   UNL     1       7.174   3.917  12.368  0.00  0.00    +0.000 C 
ATOM      9  C   UNL     1       7.738   5.298  12.660  0.00  0.00    +0.000 C 
ATOM     10  N   UNL     1       8.030   5.411  14.081  0.00  0.00    +0.000 N 
ATOM     11  H   UNL     1       8.494   6.280  14.332  0.00  0.00    +0.000 HD
ENDROOT
BRANCH   1  14
ATOM     12  C   UNL     1       3.659   3.592  18.644  0.00  0.00    +0.000 C 
ATOM     13  O   UNL     1       4.652   3.034  19.107  0.00  0.00    +0.000 OA
ATOM     14  N   UNL     1       3.661   4.364  17.493  0.00  0.00    +0.000 N 
ATOM     15  H   UNL     1       2.856   4.949  17.314  0.00  0.00    +0.000 HD
BRANCH  12  16
ATOM     16  C   UNL     1       2.304   3.459  19.339  0.00  0.00    +0.000 C 
ATOM     17  C   UNL     1       1.129   3.640  18.378  0.00  0.00    +0.000 C 
BRANCH  16  18
ATOM     18  C   UNL     1       2.263   4.508  20.462  0.00  0.00    +0.000 C 
BRANCH  18  20
ATOM     19  C   UNL     1       1.678   2.618  21.713  0.00  0.00    +0.000 C 
ATOM     20  O   UNL     1       2.312   3.894  21.751  0.00  0.00    +0.000 OA
ENDBRANCH  18  20
ENDBRANCH  16  18
ENDBRANCH  12  16
ENDBRANCH   1  14
TORSDOF 4
ENDMDL
MODEL 9
REMARK VINA RESULT:      -6.3      4.117      6.854
REMARK  Name = 
REMARK  6 active torsions:
REMARK  status: ('A' for Active; 'I' for Inactive)
REMARK    1  A    between atoms: C_1  and  O_2
REMARK    2  A    between atoms: O_2  and  C_3
REMARK    3  A    between atoms: C_3  and  C_4
REMARK    4  A    between atoms: C_4  and  C_5
REMARK    5  A    between atoms: C_4  and  C_6
REMARK    6  A    between atoms: N_8  and  C_9
REMARK                            x       y       z     vdW  Elec       q    Type
REMARK                         _______ _______ _______ _____ _____    ______ ____
ROOT
ATOM      1  C   UNL     1       2.532   7.199  18.766  0.00  0.00    +0.000 A 
ATOM      2  C   UNL     1       2.235   8.152  17.791  0.00  0.00    +0.000 A 
ATOM      3  C   UNL     1       1.510   9.301  18.110  0.00  0.00    +0.000 A 
ATOM      4  C   UNL     1       1.101   9.545  19.420  0.00  0.00    +0.000 A 
ATOM      5  C   UNL     1       1.325   8.557  20.394  0.00  0.00    +0.000 A 
ATOM      6  C   UNL     1       2.031   7.383  20.059  0.00  0.00    +0.000 A 
ATOM      7  C   UNL     1       0.908   8.789  21.826  0.00  0.00    +0.000 C 
ATOM      8  C   UNL     1      -0.028   9.985  21.986  0.00  0.00    +0.000 C 
ATOM      9  C   UNL     1       0.425  11.129  21.094  0.00  0.00    +0.000 C 
ATOM     10  N   UNL     1       0.369  10.709  19.702  0.00  0.00    +0.000 N 
ATOM     11  H   UNL     1       0.574  11.457  19.044  0.00  0.00    +0.000 HD
ENDROOT
BRANCH   1  14
ATOM     12  C   UNL     1       2.838   4.851  18.033  0.00  0.00    +0.000 C 
ATOM     13  O   UNL     1       1.658   4.639  17.762  0.00  0.00    +0.000 OA
ATOM     14  N   UNL     1       3.329   6.059  18.504  0.00  0.00    +0.000 N 
ATOM     15  H   UNL     1       4.330   6.200  18.493  0.00  0.00    +0.000 HD
BRANCH  12  16
ATOM     16  C   UNL     1       3.880   3.744  17.864  0.00  0.00    +0.000 C 
ATOM     17  C   UNL     1       3.260   2.347  17.852  0.00  0.00    +0.000 C 
BRANCH  16  18
ATOM     18  C   UNL     1       4.888   3.889  19.017  0.00  0.00    +0.000 C 
BRANCH  18  20
ATOM     19  C   UNL     1       6.641   5.414  19.305  0.00  0.00    +0.000 C 
ATOM     20  O   UNL     1       6.168   4.307  18.540  0.00  0.00    +0.000 OA
ENDBRANCH  18  20
ENDBRANCH  16  18
ENDBRANCH  12  16
ENDBRANCH   1  14
TORSDOF 4
ENDMDL
