MODEL 1
REMARK VINA RESULT:      -6.0      0.000      0.000
REMARK  Name = 
REMARK  6 active torsions:
REMARK  status: ('A' for Active; 'I' for Inactive)
REMARK    1  A    between atoms: C_1  and  C_2
REMARK    2  A    between atoms: C_2  and  N_3
REMARK    3  A    between atoms: C_4  and  C_6
REMARK    4  A    between atoms: C_6  and  N_7
REMARK    5  A    between atoms: C_12  and  O_13
REMARK    6  A    between atoms: O_13  and  C_14
REMARK                            x       y       z     vdW  Elec       q    Type
REMARK                         _______ _______ _______ _____ _____    ______ ____
ROOT
ATOM      1  N   UNL     1       5.230   3.416  16.679  0.00  0.00    +0.000 N 
ATOM      2  C   UNL     1       4.342   3.779  17.680  0.00  0.00    +0.000 A 
ATOM      3  N   UNL     1       3.698   2.782  18.297  0.00  0.00    +0.000 NA
ATOM      4  C   UNL     1       2.795   3.127  19.234  0.00  0.00    +0.000 A 
ATOM      5  C   UNL     1       2.526   4.424  19.585  0.00  0.00    +0.000 A 
ATOM      6  C   UNL     1       3.254   5.367  18.909  0.00  0.00    +0.000 A 
ATOM      7  N   UNL     1       4.146   5.072  17.954  0.00  0.00    +0.000 NA
ATOM      8  H   UNL     1       5.503   2.461  16.888  0.00  0.00    +0.000 HD
ENDROOT
BRANCH   6   9
ATOM      9  O   UNL     1       3.038   6.685  19.255  0.00  0.00    +0.000 OA
ATOM     10  C   UNL     1       2.432   7.433  18.202  0.00  0.00    +0.000 C 
ENDBRANCH   6   9
BRANCH   1  11
ATOM     11  C   UNL     1       6.352   4.350  16.504  0.00  0.00    +0.000 C 
BRANCH  11  13
ATOM     12  N   UNL     1       6.213   3.644  14.146  0.00  0.00    +0.000 N 
ATOM     13  C   UNL     1       6.753   4.552  15.031  0.00  0.00    +0.000 C 
ATOM     14  O   UNL     1       7.546   5.430  14.691  0.00  0.00    +0.000 OA
ATOM     15  H   UNL     1       5.463   3.069  14.521  0.00  0.00    +0.000 HD
BRANCH  12  17
ATOM     16  C   UNL     1       5.305   3.108  11.917  0.00  0.00    +0.000 C 
ATOM     17  C   UNL     1       6.459   3.672  12.724  0.00  0.00    +0.000 C 
ENDBRANCH  12  17
ENDBRANCH  11  13
ENDBRANCH   1  11
TORSDOF 4
ENDMDL
MODEL 2
REMARK VINA RESULT:      -6.0      1.849      2.117
REMARK  Name = 
REMARK  6 active torsions:
REMARK  status: ('A' for Active; 'I' for Inactive)
REMARK    1  A    between atoms: C_1  and  C_2
REMARK    2  A    between atoms: C_2  and  N_3
REMARK    3  A    between atoms: C_4  and  C_6
REMARK    4  A    between atoms: C_6  and  N_7
REMARK    5  A    between atoms: C_12  and  O_13
REMARK    6  A    between atoms: O_13  and  C_14
REMARK                            x       y       z     vdW  Elec       q    Type
REMARK                         _______ _______ _______ _____ _____    ______ ____
ROOT
ATOM      1  N   UNL     1       6.103   4.158  17.183  0.00  0.00    +0.000 N 
ATOM      2  C   UNL     1       5.040   3.750  17.974  0.00  0.00    +0.000 A 
ATOM      3  N   UNL     1       5.325   3.447  19.246  0.00  0.00    +0.000 NA
ATOM      4  C   UNL     1       4.309   3.000  20.007  0.00  0.00    +0.000 A 
ATOM      5  C   UNL     1       3.024   2.860  19.551  0.00  0.00    +0.000 A 
ATOM      6  C   UNL     1       2.835   3.217  18.241  0.00  0.00    +0.000 A 
ATOM      7  N   UNL     1       3.820   3.645  17.440  0.00  0.00    +0.000 NA
ATOM      8  H   UNL     1       6.799   4.522  17.826  0.00  0.00    +0.000 HD
ENDROOT
BRANCH   6   9
ATOM      9  O   UNL     1       1.551   3.123  17.750  0.00  0.00    +0.000 OA
ATOM     10  C   UNL     1       0.688   2.384  18.614  0.00  0.00    +0.000 C 
ENDBRANCH   6   9
BRANCH   1  11
ATOM     11  C   UNL     1       5.727   5.080  16.101  0.00  0.00    +0.000 C 
BRANCH  11  13
ATOM     12  N   UNL     1       5.844   4.036  13.871  0.00  0.00    +0.000 N 
ATOM     13  C   UNL     1       6.497   4.828  14.790  0.00  0.00    +0.000 C 
ATOM     14  O   UNL     1       7.635   5.263  14.615  0.00  0.00    +0.000 OA
ATOM     15  H   UNL     1       4.861   3.867  14.066  0.00  0.00    +0.000 HD
BRANCH  12  17
ATOM     16  C   UNL     1       5.564   2.659  11.844  0.00  0.00    +0.000 C 
ATOM     17  C   UNL     1       6.394   3.694  12.580  0.00  0.00    +0.000 C 
ENDBRANCH  12  17
ENDBRANCH  11  13
ENDBRANCH   1  11
TORSDOF 4
ENDMDL
MODEL 3
REMARK VINA RESULT:      -5.9      1.623      1.962
REMARK  Name = 
REMARK  6 active torsions:
REMARK  status: ('A' for Active; 'I' for Inactive)
REMARK    1  A    between atoms: C_1  and  C_2
REMARK    2  A    between atoms: C_2  and  N_3
REMARK    3  A    between atoms: C_4  and  C_6
REMARK    4  A    between atoms: C_6  and  N_7
REMARK    5  A    between atoms: C_12  and  O_13
REMARK    6  A    between atoms: O_13  and  C_14
REMARK                            x       y       z     vdW  Elec       q    Type
REMARK                         _______ _______ _______ _____ _____    ______ ____
ROOT
ATOM      1  N   UNL     1       4.631   3.386  18.288  0.00  0.00    +0.000 N 
ATOM      2  C   UNL     1       3.522   3.570  19.101  0.00  0.00    +0.000 A 
ATOM      3  N   UNL     1       2.836   2.471  19.431  0.00  0.00    +0.000 NA
ATOM      4  C   UNL     1       1.728   2.645  20.175  0.00  0.00    +0.000 A 
ATOM      5  C   UNL     1       1.293   3.869  20.612  0.00  0.00    +0.000 A 
ATOM      6  C   UNL     1       2.078   4.927  20.237  0.00  0.00    +0.000 A 
ATOM      7  N   UNL     1       3.176   4.804  19.478  0.00  0.00    +0.000 NA
ATOM      8  H   UNL     1       4.923   2.425  18.437  0.00  0.00    +0.000 HD
ENDROOT
BRANCH   6   9
ATOM      9  O   UNL     1       1.695   6.175  20.682  0.00  0.00    +0.000 OA
ATOM     10  C   UNL     1       2.178   7.225  19.846  0.00  0.00    +0.000 C 
ENDBRANCH   6   9
BRANCH   1  11
ATOM     11  C   UNL     1       5.691   4.386  18.485  0.00  0.00    +0.000 C 
BRANCH  11  13
ATOM     12  N   UNL     1       6.074   4.367  16.050  0.00  0.00    +0.000 N 
ATOM     13  C   UNL     1       6.659   4.491  17.291  0.00  0.00    +0.000 C 
ATOM     14  O   UNL     1       7.872   4.618  17.452  0.00  0.00    +0.000 OA
ATOM     15  H   UNL     1       5.059   4.418  16.043  0.00  0.00    +0.000 HD
BRANCH  12  17
ATOM     16  C   UNL     1       6.024   3.912  13.627  0.00  0.00    +0.000 C 
ATOM     17  C   UNL     1       6.809   4.448  14.810  0.00  0.00    +0.000 C 
ENDBRANCH  12  17
ENDBRANCH  11  13
ENDBRANCH   1  11
TORSDOF 4
ENDMDL
MODEL 4
REMARK VINA RESULT:      -5.9      1.658      1.960
REMARK  Name = 
REMARK  6 active torsions:
REMARK  status: ('A' for Active; 'I' for Inactive)
REMARK    1  A    between atoms: C_1  and  C_2
REMARK    2  A    between atoms: C_2  and  N_3
REMARK    3  A    between atoms: C_4  and  C_6
REMARK    4  A    between atoms: C_6  and  N_7
REMARK    5  A    between atoms: C_12  and  O_13
REMARK    6  A    between atoms: O_13  and  C_14
REMARK                            x       y       z     vdW  Elec       q    Type
REMARK                         _______ _______ _______ _____ _____    ______ ____
ROOT
ATOM      1  N   UNL     1       5.250   3.729  18.943  0.00  0.00    +0.000 N 
ATOM      2  C   UNL     1       4.112   4.287  19.504  0.00  0.00    +0.000 A 
ATOM      3  N   UNL     1       3.386   3.491  20.297  0.00  0.00    +0.000 NA
ATOM      4  C   UNL     1       2.250   4.007  20.803  0.00  0.00    +0.000 A 
ATOM      5  C   UNL     1       1.825   5.288  20.560  0.00  0.00    +0.000 A 
ATOM      6  C   UNL     1       2.651   6.025  19.753  0.00  0.00    +0.000 A 
ATOM      7  N   UNL     1       3.778   5.547  19.209  0.00  0.00    +0.000 NA
ATOM      8  H   UNL     1       5.513   2.966  19.559  0.00  0.00    +0.000 HD
ENDROOT
BRANCH   6   9
ATOM      9  O   UNL     1       2.278   7.330  19.508  0.00  0.00    +0.000 OA
ATOM     10  C   UNL     1       2.529   7.726  18.161  0.00  0.00    +0.000 C 
ENDBRANCH   6   9
BRANCH   1  11
ATOM     11  C   UNL     1       6.325   4.697  18.676  0.00  0.00    +0.000 C 
BRANCH  11  13
ATOM     12  N   UNL     1       6.223   4.454  16.226  0.00  0.00    +0.000 N 
ATOM     13  C   UNL     1       7.042   4.459  17.334  0.00  0.00    +0.000 C 
ATOM     14  O   UNL     1       8.250   4.232  17.279  0.00  0.00    +0.000 OA
ATOM     15  H   UNL     1       5.280   4.799  16.382  0.00  0.00    +0.000 HD
BRANCH  12  17
ATOM     16  C   UNL     1       5.584   4.152  13.863  0.00  0.00    +0.000 C 
ATOM     17  C   UNL     1       6.706   4.258  14.879  0.00  0.00    +0.000 C 
ENDBRANCH  12  17
ENDBRANCH  11  13
ENDBRANCH   1  11
TORSDOF 4
ENDMDL
MODEL 5
REMARK VINA RESULT:      -5.9      2.242      3.545
REMARK  Name = 
REMARK  6 active torsions:
REMARK  status: ('A' for Active; 'I' for Inactive)
REMARK    1  A    between atoms: C_1  and  C_2
REMARK    2  A    between atoms: C_2  and  N_3
REMARK    3  A    between atoms: C_4  and  C_6
REMARK    4  A    between atoms: C_6  and  N_7
REMARK    5  A    between atoms: C_12  and  O_13
REMARK    6  A    between atoms: O_13  and  C_14
REMARK                            x       y       z     vdW  Elec       q    Type
REMARK                         _______ _______ _______ _____ _____    ______ ____
ROOT
ATOM      1  N   UNL     1       6.579   3.659  14.189  0.00  0.00    +0.000 N 
ATOM      2  C   UNL     1       6.446   4.036  15.517  0.00  0.00    +0.000 A 
ATOM      3  N   UNL     1       7.574   4.350  16.164  0.00  0.00    +0.000 NA
ATOM      4  C   UNL     1       7.461   4.666  17.468  0.00  0.00    +0.000 A 
ATOM      5  C   UNL     1       6.267   4.693  18.140  0.00  0.00    +0.000 A 
ATOM      6  C   UNL     1       5.171   4.375  17.382  0.00  0.00    +0.000 A 
ATOM      7  N   UNL     1       5.238   4.033  16.088  0.00  0.00    +0.000 NA
ATOM      8  H   UNL     1       7.447   4.079  13.871  0.00  0.00    +0.000 HD
ENDROOT
BRANCH   6   9
ATOM      9  O   UNL     1       3.945   4.422  18.010  0.00  0.00    +0.000 OA
ATOM     10  C   UNL     1       3.840   5.513  18.923  0.00  0.00    +0.000 C 
ENDBRANCH   6   9
BRANCH   1  11
ATOM     11  C   UNL     1       5.408   3.970  13.357  0.00  0.00    +0.000 C 
BRANCH  11  13
ATOM     12  N   UNL     1       6.303   2.157  11.948  0.00  0.00    +0.000 N 
ATOM     13  C   UNL     1       5.266   3.045  12.134  0.00  0.00    +0.000 C 
ATOM     14  O   UNL     1       4.317   3.143  11.356  0.00  0.00    +0.000 OA
ATOM     15  H   UNL     1       6.944   2.069  12.732  0.00  0.00    +0.000 HD
BRANCH  12  17
ATOM     16  C   UNL     1       6.121  -0.224  11.333  0.00  0.00    +0.000 C 
ATOM     17  C   UNL     1       6.350   1.201  10.867  0.00  0.00    +0.000 C 
ENDBRANCH  12  17
ENDBRANCH  11  13
ENDBRANCH   1  11
TORSDOF 4
ENDMDL
MODEL 6
REMARK VINA RESULT:      -5.9      2.031      2.812
REMARK  Name = 
REMARK  6 active torsions:
REMARK  status: ('A' for Active; 'I' for Inactive)
REMARK    1  A    between atoms: C_1  and  C_2
REMARK    2  A    between atoms: C_2  and  N_3
REMARK    3  A    between atoms: C_4  and  C_6
REMARK    4  A    between atoms: C_6  and  N_7
REMARK    5  A    between atoms: C_12  and  O_13
REMARK    6  A    between atoms: O_13  and  C_14
REMARK                            x       y       z     vdW  Elec       q    Type
REMARK                         _______ _______ _______ _____ _____    ______ ____
ROOT
ATOM      1  N   UNL     1       5.009   5.661  18.152  0.00  0.00    +0.000 N 
ATOM      2  C   UNL     1       3.865   4.984  18.548  0.00  0.00    +0.000 A 
ATOM      3  N   UNL     1       2.751   5.236  17.851  0.00  0.00    +0.000 NA
ATOM      4  C   UNL     1       1.625   4.623  18.261  0.00  0.00    +0.000 A 
ATOM      5  C   UNL     1       1.576   3.761  19.326  0.00  0.00    +0.000 A 
ATOM      6  C   UNL     1       2.774   3.555  19.957  0.00  0.00    +0.000 A 
ATOM      7  N   UNL     1       3.915   4.160  19.598  0.00  0.00    +0.000 NA
ATOM      8  H   UNL     1       4.860   5.903  17.177  0.00  0.00    +0.000 HD
ENDROOT
BRANCH   6   9
ATOM      9  O   UNL     1       2.777   2.670  21.014  0.00  0.00    +0.000 OA
ATOM     10  C   UNL     1       1.509   2.589  21.662  0.00  0.00    +0.000 C 
ENDBRANCH   6   9
BRANCH   1  11
ATOM     11  C   UNL     1       6.259   4.936  18.419  0.00  0.00    +0.000 C 
BRANCH  11  13
ATOM     12  N   UNL     1       6.448   4.939  15.961  0.00  0.00    +0.000 N 
ATOM     13  C   UNL     1       7.089   4.663  17.150  0.00  0.00    +0.000 C 
ATOM     14  O   UNL     1       8.218   4.179  17.207  0.00  0.00    +0.000 OA
ATOM     15  H   UNL     1       5.586   5.470  16.047  0.00  0.00    +0.000 HD
BRANCH  12  17
ATOM     16  C   UNL     1       6.214   3.918  13.728  0.00  0.00    +0.000 C 
ATOM     17  C   UNL     1       7.059   4.760  14.665  0.00  0.00    +0.000 C 
ENDBRANCH  12  17
ENDBRANCH  11  13
ENDBRANCH   1  11
TORSDOF 4
ENDMDL
MODEL 7
REMARK VINA RESULT:      -5.8      1.676      2.587
REMARK  Name = 
REMARK  6 active torsions:
REMARK  status: ('A' for Active; 'I' for Inactive)
REMARK    1  A    between atoms: C_1  and  C_2
REMARK    2  A    between atoms: C_2  and  N_3
REMARK    3  A    between atoms: C_4  and  C_6
REMARK    4  A    between atoms: C_6  and  N_7
REMARK    5  A    between atoms: C_12  and  O_13
REMARK    6  A    between atoms: O_13  and  C_14
REMARK                            x       y       z     vdW  Elec       q    Type
REMARK                         _______ _______ _______ _____ _____    ______ ____
ROOT
ATOM      1  N   UNL     1       6.499   5.352  17.303  0.00  0.00    +0.000 N 
ATOM      2  C   UNL     1       5.139   5.136  17.463  0.00  0.00    +0.000 A 
ATOM      3  N   UNL     1       4.384   6.219  17.680  0.00  0.00    +0.000 NA
ATOM      4  C   UNL     1       3.070   6.013  17.889  0.00  0.00    +0.000 A 
ATOM      5  C   UNL     1       2.485   4.773  17.873  0.00  0.00    +0.000 A 
ATOM      6  C   UNL     1       3.343   3.735  17.622  0.00  0.00    +0.000 A 
ATOM      7  N   UNL     1       4.660   3.889  17.430  0.00  0.00    +0.000 NA
ATOM      8  H   UNL     1       6.588   6.314  16.988  0.00  0.00    +0.000 HD
ENDROOT
BRANCH   6   9
ATOM      9  O   UNL     1       2.791   2.473  17.565  0.00  0.00    +0.000 OA
ATOM     10  C   UNL     1       3.472   1.540  18.403  0.00  0.00    +0.000 C 
ENDBRANCH   6   9
BRANCH   1  11
ATOM     11  C   UNL     1       7.168   4.363  16.444  0.00  0.00    +0.000 C 
BRANCH  11  13
ATOM     12  N   UNL     1       6.074   3.722  14.331  0.00  0.00    +0.000 N 
ATOM     13  C   UNL     1       6.937   4.606  14.941  0.00  0.00    +0.000 C 
ATOM     14  O   UNL     1       7.533   5.493  14.330  0.00  0.00    +0.000 OA
ATOM     15  H   UNL     1       5.536   3.136  14.964  0.00  0.00    +0.000 HD
BRANCH  12  17
ATOM     16  C   UNL     1       6.655   2.980  12.052  0.00  0.00    +0.000 C 
ATOM     17  C   UNL     1       5.721   3.788  12.932  0.00  0.00    +0.000 C 
ENDBRANCH  12  17
ENDBRANCH  11  13
ENDBRANCH   1  11
TORSDOF 4
ENDMDL
MODEL 8
REMARK VINA RESULT:      -5.8      1.522      2.451
REMARK  Name = 
REMARK  6 active torsions:
REMARK  status: ('A' for Active; 'I' for Inactive)
REMARK    1  A    between atoms: C_1  and  C_2
REMARK    2  A    between atoms: C_2  and  N_3
REMARK    3  A    between atoms: C_4  and  C_6
REMARK    4  A    between atoms: C_6  and  N_7
REMARK    5  A    between atoms: C_12  and  O_13
REMARK    6  A    between atoms: O_13  and  C_14
REMARK                            x       y       z     vdW  Elec       q    Type
REMARK                         _______ _______ _______ _____ _____    ______ ____
ROOT
ATOM      1  N   UNL     1       6.652   5.883  16.356  0.00  0.00    +0.000 N 
ATOM      2  C   UNL     1       5.411   5.915  16.973  0.00  0.00    +0.000 A 
ATOM      3  N   UNL     1       4.787   7.098  16.999  0.00  0.00    +0.000 NA
ATOM      4  C   UNL     1       3.606   7.150  17.642  0.00  0.00    +0.000 A 
ATOM      5  C   UNL     1       3.022   6.065  18.244  0.00  0.00    +0.000 A 
ATOM      6  C   UNL     1       3.732   4.898  18.142  0.00  0.00    +0.000 A 
ATOM      7  N   UNL     1       4.921   4.804  17.531  0.00  0.00    +0.000 NA
ATOM      8  H   UNL     1       6.655   6.664  15.707  0.00  0.00    +0.000 HD
ENDROOT
BRANCH   6   9
ATOM      9  O   UNL     1       3.166   3.775  18.705  0.00  0.00    +0.000 OA
ATOM     10  C   UNL     1       2.722   3.998  20.043  0.00  0.00    +0.000 C 
ENDBRANCH   6   9
BRANCH   1  11
ATOM     11  C   UNL     1       6.990   4.585  15.753  0.00  0.00    +0.000 C 
BRANCH  11  13
ATOM     12  N   UNL     1       6.307   3.532  13.632  0.00  0.00    +0.000 N 
ATOM     13  C   UNL     1       6.955   4.600  14.213  0.00  0.00    +0.000 C 
ATOM     14  O   UNL     1       7.520   5.478  13.563  0.00  0.00    +0.000 OA
ATOM     15  H   UNL     1       5.758   2.960  14.268  0.00  0.00    +0.000 HD
BRANCH  12  17
ATOM     16  C   UNL     1       4.708   3.243  11.777  0.00  0.00    +0.000 C 
ATOM     17  C   UNL     1       6.158   3.370  12.204  0.00  0.00    +0.000 C 
ENDBRANCH  12  17
ENDBRANCH  11  13
ENDBRANCH   1  11
TORSDOF 4
ENDMDL
MODEL 9
REMARK VINA RESULT:      -5.8      1.470      2.256
REMARK  Name = 
REMARK  6 active torsions:
REMARK  status: ('A' for Active; 'I' for Inactive)
REMARK    1  A    between atoms: C_1  and  C_2
REMARK    2  A    between atoms: C_2  and  N_3
REMARK    3  A    between atoms: C_4  and  C_6
REMARK    4  A    between atoms: C_6  and  N_7
REMARK    5  A    between atoms: C_12  and  O_13
REMARK    6  A    between atoms: O_13  and  C_14
REMARK                            x       y       z     vdW  Elec       q    Type
REMARK                         _______ _______ _______ _____ _____    ______ ____
ROOT
ATOM      1  N   UNL     1       5.626   5.638  16.938  0.00  0.00    +0.000 N 
ATOM      2  C   UNL     1       4.585   5.353  17.808  0.00  0.00    +0.000 A 
ATOM      3  N   UNL     1       3.561   6.213  17.816  0.00  0.00    +0.000 NA
ATOM      4  C   UNL     1       2.570   5.973  18.695  0.00  0.00    +0.000 A 
ATOM      5  C   UNL     1       2.560   4.902  19.551  0.00  0.00    +0.000 A 
ATOM      6  C   UNL     1       3.645   4.071  19.448  0.00  0.00    +0.000 A 
ATOM      7  N   UNL     1       4.664   4.283  18.604  0.00  0.00    +0.000 NA
ATOM      8  H   UNL     1       5.221   6.215  16.207  0.00  0.00    +0.000 HD
ENDROOT
BRANCH   6   9
ATOM      9  O   UNL     1       3.659   2.963  20.268  0.00  0.00    +0.000 OA
ATOM     10  C   UNL     1       2.448   2.815  21.008  0.00  0.00    +0.000 C 
ENDBRANCH   6   9
BRANCH   1  11
ATOM     11  C   UNL     1       6.346   4.451  16.452  0.00  0.00    +0.000 C 
BRANCH  11  13
ATOM     12  N   UNL     1       6.181   3.653  14.126  0.00  0.00    +0.000 N 
ATOM     13  C   UNL     1       6.775   4.559  14.977  0.00  0.00    +0.000 C 
ATOM     14  O   UNL     1       7.631   5.364  14.610  0.00  0.00    +0.000 OA
ATOM     15  H   UNL     1       5.389   3.149  14.516  0.00  0.00    +0.000 HD
BRANCH  12  17
ATOM     16  C   UNL     1       5.229   3.179  11.901  0.00  0.00    +0.000 C 
ATOM     17  C   UNL     1       6.443   3.600  12.707  0.00  0.00    +0.000 C 
ENDBRANCH  12  17
ENDBRANCH  11  13
ENDBRANCH   1  11
TORSDOF 4
ENDMDL
