MODEL 1
REMARK VINA RESULT:      -8.8      0.000      0.000
REMARK  Name = 
REMARK  3 active torsions:
REMARK  status: ('A' for Active; 'I' for Inactive)
REMARK    1  A    between atoms: C_2  and  C_3
REMARK    2  A    between atoms: C_2  and  C_13
REMARK    3  A    between atoms: C_6  and  C_7
REMARK                            x       y       z     vdW  Elec       q    Type
REMARK                         _______ _______ _______ _____ _____    ______ ____
ROOT
ATOM      1  C   UNL     1       2.236   7.206  19.401  0.00  0.00    +0.000 A 
ATOM      2  N   UNL     1       2.710   7.672  18.210  0.00  0.00    +0.000 NA
ATOM      3  C   UNL     1       2.319   8.870  17.755  0.00  0.00    +0.000 A 
ATOM      4  C   UNL     1       1.460   9.708  18.429  0.00  0.00    +0.000 A 
ATOM      5  C   UNL     1       1.086   9.315  19.717  0.00  0.00    +0.000 A 
ATOM      6  C   UNL     1       1.434   8.045  20.179  0.00  0.00    +0.000 A 
ATOM      7  N   UNL     1       0.838   7.914  21.433  0.00  0.00    +0.000 N 
ATOM      8  C   UNL     1       0.244   9.108  21.811  0.00  0.00    +0.000 A 
ATOM      9  C   UNL     1      -0.419   9.507  22.995  0.00  0.00    +0.000 A 
ATOM     10  C   UNL     1      -0.874  10.836  23.083  0.00  0.00    +0.000 A 
ATOM     11  C   UNL     1      -0.662  11.747  22.051  0.00  0.00    +0.000 A 
ATOM     12  C   UNL     1      -0.028  11.336  20.883  0.00  0.00    +0.000 A 
ATOM     13  C   UNL     1       0.412  10.005  20.757  0.00  0.00    +0.000 A 
ATOM     14  H   UNL     1       0.901   7.088  22.015  0.00  0.00    +0.000 HD
ENDROOT
BRANCH   1  16
ATOM     15  O   UNL     1       2.296   5.305  20.789  0.00  0.00    +0.000 OA
ATOM     16  C   UNL     1       2.701   5.846  19.766  0.00  0.00    +0.000 C 
BRANCH  16  17
ATOM     17  C   UNL     1       3.710   5.172  18.888  0.00  0.00    +0.000 A 
ATOM     18  C   UNL     1       5.079   5.403  19.068  0.00  0.00    +0.000 A 
ATOM     19  C   UNL     1       5.989   5.026  18.070  0.00  0.00    +0.000 A 
ATOM     20  C   UNL     1       5.531   4.437  16.880  0.00  0.00    +0.000 A 
ATOM     21  C   UNL     1       4.190   4.047  16.790  0.00  0.00    +0.000 A 
ATOM     22  C   UNL     1       3.285   4.420  17.782  0.00  0.00    +0.000 A 
BRANCH  20  23
ATOM     23  C   UNL     1       6.396   4.362  15.644  0.00  0.00    +0.000 C 
ATOM     24  F   UNL     1       6.176   3.251  14.886  0.00  0.00    +0.000 F 
ATOM     25  F   UNL     1       6.252   5.428  14.814  0.00  0.00    +0.000 F 
ATOM     26  F   UNL     1       7.721   4.324  15.972  0.00  0.00    +0.000 F 
ENDBRANCH  20  23
ENDBRANCH  16  17
ENDBRANCH   1  16
TORSDOF 3
ENDMDL
MODEL 2
REMARK VINA RESULT:      -8.8      3.637      5.109
REMARK  Name = 
REMARK  3 active torsions:
REMARK  status: ('A' for Active; 'I' for Inactive)
REMARK    1  A    between atoms: C_2  and  C_3
REMARK    2  A    between atoms: C_2  and  C_13
REMARK    3  A    between atoms: C_6  and  C_7
REMARK                            x       y       z     vdW  Elec       q    Type
REMARK                         _______ _______ _______ _____ _____    ______ ____
ROOT
ATOM      1  C   UNL     1       4.580   6.531  17.554  0.00  0.00    +0.000 A 
ATOM      2  N   UNL     1       3.885   7.689  17.366  0.00  0.00    +0.000 NA
ATOM      3  C   UNL     1       2.653   7.824  17.876  0.00  0.00    +0.000 A 
ATOM      4  C   UNL     1       2.017   6.856  18.621  0.00  0.00    +0.000 A 
ATOM      5  C   UNL     1       2.771   5.728  18.952  0.00  0.00    +0.000 A 
ATOM      6  C   UNL     1       4.030   5.545  18.378  0.00  0.00    +0.000 A 
ATOM      7  N   UNL     1       4.476   4.299  18.816  0.00  0.00    +0.000 N 
ATOM      8  C   UNL     1       3.591   3.767  19.740  0.00  0.00    +0.000 A 
ATOM      9  C   UNL     1       3.621   2.583  20.513  0.00  0.00    +0.000 A 
ATOM     10  C   UNL     1       2.565   2.355  21.416  0.00  0.00    +0.000 A 
ATOM     11  C   UNL     1       1.529   3.273  21.569  0.00  0.00    +0.000 A 
ATOM     12  C   UNL     1       1.499   4.423  20.787  0.00  0.00    +0.000 A 
ATOM     13  C   UNL     1       2.528   4.662  19.856  0.00  0.00    +0.000 A 
ATOM     14  H   UNL     1       5.360   3.881  18.553  0.00  0.00    +0.000 HD
ENDROOT
BRANCH   1  16
ATOM     15  O   UNL     1       6.772   7.305  17.183  0.00  0.00    +0.000 OA
ATOM     16  C   UNL     1       5.906   6.487  16.894  0.00  0.00    +0.000 C 
BRANCH  16  17
ATOM     17  C   UNL     1       6.147   5.457  15.833  0.00  0.00    +0.000 A 
ATOM     18  C   UNL     1       7.367   5.409  15.150  0.00  0.00    +0.000 A 
ATOM     19  C   UNL     1       7.478   4.665  13.966  0.00  0.00    +0.000 A 
ATOM     20  C   UNL     1       6.363   3.984  13.452  0.00  0.00    +0.000 A 
ATOM     21  C   UNL     1       5.206   3.890  14.234  0.00  0.00    +0.000 A 
ATOM     22  C   UNL     1       5.096   4.629  15.410  0.00  0.00    +0.000 A 
BRANCH  20  23
ATOM     23  C   UNL     1       6.317   3.495  12.023  0.00  0.00    +0.000 C 
ATOM     24  F   UNL     1       6.765   2.218  11.865  0.00  0.00    +0.000 F 
ATOM     25  F   UNL     1       5.075   3.538  11.473  0.00  0.00    +0.000 F 
ATOM     26  F   UNL     1       7.108   4.261  11.215  0.00  0.00    +0.000 F 
ENDBRANCH  20  23
ENDBRANCH  16  17
ENDBRANCH   1  16
TORSDOF 3
ENDMDL
MODEL 3
REMARK VINA RESULT:      -8.6      3.913      5.099
REMARK  Name = 
REMARK  3 active torsions:
REMARK  status: ('A' for Active; 'I' for Inactive)
REMARK    1  A    between atoms: C_2  and  C_3
REMARK    2  A    between atoms: C_2  and  C_13
REMARK    3  A    between atoms: C_6  and  C_7
REMARK                            x       y       z     vdW  Elec       q    Type
REMARK                         _______ _______ _______ _____ _____    ______ ____
ROOT
ATOM      1  C   UNL     1       0.939   9.517  19.003  0.00  0.00    +0.000 A 
ATOM      2  N   UNL     1       1.184   9.804  20.314  0.00  0.00    +0.000 NA
ATOM      3  C   UNL     1       0.362  10.620  20.987  0.00  0.00    +0.000 A 
ATOM      4  C   UNL     1      -0.763  11.200  20.446  0.00  0.00    +0.000 A 
ATOM      5  C   UNL     1      -1.112  10.797  19.154  0.00  0.00    +0.000 A 
ATOM      6  C   UNL     1      -0.237   9.997  18.419  0.00  0.00    +0.000 A 
ATOM      7  N   UNL     1      -0.811   9.857  17.156  0.00  0.00    +0.000 N 
ATOM      8  C   UNL     1      -2.069  10.436  17.131  0.00  0.00    +0.000 A 
ATOM      9  C   UNL     1      -3.065  10.503  16.129  0.00  0.00    +0.000 A 
ATOM     10  C   UNL     1      -4.281  11.137  16.447  0.00  0.00    +0.000 A 
ATOM     11  C   UNL     1      -4.518  11.664  17.714  0.00  0.00    +0.000 A 
ATOM     12  C   UNL     1      -3.521  11.612  18.683  0.00  0.00    +0.000 A 
ATOM     13  C   UNL     1      -2.285  11.009  18.384  0.00  0.00    +0.000 A 
ATOM     14  H   UNL     1      -0.396   9.337  16.392  0.00  0.00    +0.000 HD
ENDROOT
BRANCH   1  16
ATOM     15  O   UNL     1       2.582   9.044  17.384  0.00  0.00    +0.000 OA
ATOM     16  C   UNL     1       1.950   8.647  18.357  0.00  0.00    +0.000 C 
BRANCH  16  17
ATOM     17  C   UNL     1       2.145   7.257  18.884  0.00  0.00    +0.000 A 
ATOM     18  C   UNL     1       2.456   6.204  18.018  0.00  0.00    +0.000 A 
ATOM     19  C   UNL     1       2.333   4.877  18.457  0.00  0.00    +0.000 A 
ATOM     20  C   UNL     1       1.878   4.602  19.756  0.00  0.00    +0.000 A 
ATOM     21  C   UNL     1       1.746   5.657  20.666  0.00  0.00    +0.000 A 
ATOM     22  C   UNL     1       1.869   6.975  20.231  0.00  0.00    +0.000 A 
BRANCH  20  23
ATOM     23  C   UNL     1       1.373   3.233  20.150  0.00  0.00    +0.000 C 
ATOM     24  F   UNL     1       0.258   2.843  19.473  0.00  0.00    +0.000 F 
ATOM     25  F   UNL     1       2.291   2.246  19.981  0.00  0.00    +0.000 F 
ATOM     26  F   UNL     1       1.029   3.198  21.471  0.00  0.00    +0.000 F 
ENDBRANCH  20  23
ENDBRANCH  16  17
ENDBRANCH   1  16
TORSDOF 3
ENDMDL
MODEL 4
REMARK VINA RESULT:      -8.5      4.170      5.767
REMARK  Name = 
REMARK  3 active torsions:
REMARK  status: ('A' for Active; 'I' for Inactive)
REMARK    1  A    between atoms: C_2  and  C_3
REMARK    2  A    between atoms: C_2  and  C_13
REMARK    3  A    between atoms: C_6  and  C_7
REMARK                            x       y       z     vdW  Elec       q    Type
REMARK                         _______ _______ _______ _____ _____    ______ ____
ROOT
ATOM      1  C   UNL     1       5.240   5.802  17.039  0.00  0.00    +0.000 A 
ATOM      2  N   UNL     1       4.791   7.073  16.833  0.00  0.00    +0.000 NA
ATOM      3  C   UNL     1       3.689   7.505  17.461  0.00  0.00    +0.000 A 
ATOM      4  C   UNL     1       2.958   6.746  18.347  0.00  0.00    +0.000 A 
ATOM      5  C   UNL     1       3.489   5.499  18.684  0.00  0.00    +0.000 A 
ATOM      6  C   UNL     1       4.599   5.010  17.995  0.00  0.00    +0.000 A 
ATOM      7  N   UNL     1       4.819   3.722  18.482  0.00  0.00    +0.000 N 
ATOM      8  C   UNL     1       3.961   3.452  19.536  0.00  0.00    +0.000 A 
ATOM      9  C   UNL     1       3.833   2.335  20.395  0.00  0.00    +0.000 A 
ATOM     10  C   UNL     1       2.872   2.399  21.423  0.00  0.00    +0.000 A 
ATOM     11  C   UNL     1       2.084   3.530  21.613  0.00  0.00    +0.000 A 
ATOM     12  C   UNL     1       2.204   4.613  20.747  0.00  0.00    +0.000 A 
ATOM     13  C   UNL     1       3.137   4.566  19.694  0.00  0.00    +0.000 A 
ATOM     14  H   UNL     1       5.553   3.105  18.159  0.00  0.00    +0.000 HD
ENDROOT
BRANCH   1  16
ATOM     15  O   UNL     1       7.560   5.584  16.703  0.00  0.00    +0.000 OA
ATOM     16  C   UNL     1       6.434   5.428  16.244  0.00  0.00    +0.000 C 
BRANCH  16  17
ATOM     17  C   UNL     1       6.238   4.905  14.854  0.00  0.00    +0.000 A 
ATOM     18  C   UNL     1       5.019   4.333  14.472  0.00  0.00    +0.000 A 
ATOM     19  C   UNL     1       4.940   3.577  13.294  0.00  0.00    +0.000 A 
ATOM     20  C   UNL     1       6.083   3.374  12.505  0.00  0.00    +0.000 A 
ATOM     21  C   UNL     1       7.246   4.098  12.797  0.00  0.00    +0.000 A 
ATOM     22  C   UNL     1       7.325   4.849  13.967  0.00  0.00    +0.000 A 
BRANCH  20  23
ATOM     23  C   UNL     1       6.147   2.285  11.460  0.00  0.00    +0.000 C 
ATOM     24  F   UNL     1       7.368   2.161  10.869  0.00  0.00    +0.000 F 
ATOM     25  F   UNL     1       5.824   1.054  11.938  0.00  0.00    +0.000 F 
ATOM     26  F   UNL     1       5.271   2.528  10.441  0.00  0.00    +0.000 F 
ENDBRANCH  20  23
ENDBRANCH  16  17
ENDBRANCH   1  16
TORSDOF 3
ENDMDL
MODEL 5
REMARK VINA RESULT:      -8.4      4.058      8.212
REMARK  Name = 
REMARK  3 active torsions:
REMARK  status: ('A' for Active; 'I' for Inactive)
REMARK    1  A    between atoms: C_2  and  C_3
REMARK    2  A    between atoms: C_2  and  C_13
REMARK    3  A    between atoms: C_6  and  C_7
REMARK                            x       y       z     vdW  Elec       q    Type
REMARK                         _______ _______ _______ _____ _____    ______ ____
ROOT
ATOM      1  C   UNL     1       5.341   4.553  18.724  0.00  0.00    +0.000 A 
ATOM      2  N   UNL     1       6.222   5.209  19.533  0.00  0.00    +0.000 NA
ATOM      3  C   UNL     1       7.414   5.591  19.057  0.00  0.00    +0.000 A 
ATOM      4  C   UNL     1       7.830   5.384  17.760  0.00  0.00    +0.000 A 
ATOM      5  C   UNL     1       6.884   4.851  16.880  0.00  0.00    +0.000 A 
ATOM      6  C   UNL     1       5.662   4.393  17.373  0.00  0.00    +0.000 A 
ATOM      7  N   UNL     1       4.993   3.833  16.285  0.00  0.00    +0.000 N 
ATOM      8  C   UNL     1       5.707   4.048  15.117  0.00  0.00    +0.000 A 
ATOM      9  C   UNL     1       5.430   3.743  13.764  0.00  0.00    +0.000 A 
ATOM     10  C   UNL     1       6.362   4.151  12.791  0.00  0.00    +0.000 A 
ATOM     11  C   UNL     1       7.513   4.854  13.135  0.00  0.00    +0.000 A 
ATOM     12  C   UNL     1       7.785   5.128  14.472  0.00  0.00    +0.000 A 
ATOM     13  C   UNL     1       6.884   4.708  15.469  0.00  0.00    +0.000 A 
ATOM     14  H   UNL     1       4.078   3.401  16.335  0.00  0.00    +0.000 HD
ENDROOT
BRANCH   1  16
ATOM     15  O   UNL     1       3.897   2.962  19.687  0.00  0.00    +0.000 OA
ATOM     16  C   UNL     1       4.082   4.136  19.384  0.00  0.00    +0.000 C 
BRANCH  16  17
ATOM     17  C   UNL     1       3.021   5.166  19.626  0.00  0.00    +0.000 A 
ATOM     18  C   UNL     1       3.047   6.389  18.946  0.00  0.00    +0.000 A 
ATOM     19  C   UNL     1       2.252   7.455  19.391  0.00  0.00    +0.000 A 
ATOM     20  C   UNL     1       1.444   7.307  20.530  0.00  0.00    +0.000 A 
ATOM     21  C   UNL     1       1.288   6.033  21.090  0.00  0.00    +0.000 A 
ATOM     22  C   UNL     1       2.078   4.974  20.647  0.00  0.00    +0.000 A 
BRANCH  20  23
ATOM     23  C   UNL     1       0.874   8.499  21.264  0.00  0.00    +0.000 C 
ATOM     24  F   UNL     1      -0.418   8.333  21.661  0.00  0.00    +0.000 F 
ATOM     25  F   UNL     1       1.578   8.840  22.375  0.00  0.00    +0.000 F 
ATOM     26  F   UNL     1       0.872   9.609  20.469  0.00  0.00    +0.000 F 
ENDBRANCH  20  23
ENDBRANCH  16  17
ENDBRANCH   1  16
TORSDOF 3
ENDMDL
MODEL 6
REMARK VINA RESULT:      -8.2      0.936      1.376
REMARK  Name = 
REMARK  3 active torsions:
REMARK  status: ('A' for Active; 'I' for Inactive)
REMARK    1  A    between atoms: C_2  and  C_3
REMARK    2  A    between atoms: C_2  and  C_13
REMARK    3  A    between atoms: C_6  and  C_7
REMARK                            x       y       z     vdW  Elec       q    Type
REMARK                         _______ _______ _______ _____ _____    ______ ____
ROOT
ATOM      1  C   UNL     1       2.168   7.889  18.948  0.00  0.00    +0.000 A 
ATOM      2  N   UNL     1       2.498   8.599  17.831  0.00  0.00    +0.000 NA
ATOM      3  C   UNL     1       1.952   9.803  17.616  0.00  0.00    +0.000 A 
ATOM      4  C   UNL     1       1.067  10.413  18.475  0.00  0.00    +0.000 A 
ATOM      5  C   UNL     1       0.836   9.770  19.694  0.00  0.00    +0.000 A 
ATOM      6  C   UNL     1       1.347   8.489  19.907  0.00  0.00    +0.000 A 
ATOM      7  N   UNL     1       0.866   8.084  21.151  0.00  0.00    +0.000 N 
ATOM      8  C   UNL     1       0.183   9.122  21.766  0.00  0.00    +0.000 A 
ATOM      9  C   UNL     1      -0.424   9.239  23.038  0.00  0.00    +0.000 A 
ATOM     10  C   UNL     1      -1.004  10.474  23.382  0.00  0.00    +0.000 A 
ATOM     11  C   UNL     1      -0.967  11.563  22.515  0.00  0.00    +0.000 A 
ATOM     12  C   UNL     1      -0.386  11.428  21.258  0.00  0.00    +0.000 A 
ATOM     13  C   UNL     1       0.177  10.196  20.876  0.00  0.00    +0.000 A 
ATOM     14  H   UNL     1       1.057   7.185  21.575  0.00  0.00    +0.000 HD
ENDROOT
BRANCH   1  16
ATOM     15  O   UNL     1       2.741   5.909  20.087  0.00  0.00    +0.000 OA
ATOM     16  C   UNL     1       2.796   6.549  19.043  0.00  0.00    +0.000 C 
BRANCH  16  17
ATOM     17  C   UNL     1       3.541   6.019  17.855  0.00  0.00    +0.000 A 
ATOM     18  C   UNL     1       3.513   4.655  17.548  0.00  0.00    +0.000 A 
ATOM     19  C   UNL     1       4.443   4.123  16.642  0.00  0.00    +0.000 A 
ATOM     20  C   UNL     1       5.415   4.951  16.057  0.00  0.00    +0.000 A 
ATOM     21  C   UNL     1       5.317   6.337  16.230  0.00  0.00    +0.000 A 
ATOM     22  C   UNL     1       4.393   6.865  17.130  0.00  0.00    +0.000 A 
BRANCH  20  23
ATOM     23  C   UNL     1       6.647   4.386  15.390  0.00  0.00    +0.000 C 
ATOM     24  F   UNL     1       7.616   3.998  16.264  0.00  0.00    +0.000 F 
ATOM     25  F   UNL     1       6.391   3.311  14.598  0.00  0.00    +0.000 F 
ATOM     26  F   UNL     1       7.236   5.312  14.578  0.00  0.00    +0.000 F 
ENDBRANCH  20  23
ENDBRANCH  16  17
ENDBRANCH   1  16
TORSDOF 3
ENDMDL
MODEL 7
REMARK VINA RESULT:      -8.0      4.971      7.903
REMARK  Name = 
REMARK  3 active torsions:
REMARK  status: ('A' for Active; 'I' for Inactive)
REMARK    1  A    between atoms: C_2  and  C_3
REMARK    2  A    between atoms: C_2  and  C_13
REMARK    3  A    between atoms: C_6  and  C_7
REMARK                            x       y       z     vdW  Elec       q    Type
REMARK                         _______ _______ _______ _____ _____    ______ ____
ROOT
ATOM      1  C   UNL     1       1.852   8.407  19.387  0.00  0.00    +0.000 A 
ATOM      2  N   UNL     1       2.338   8.856  18.195  0.00  0.00    +0.000 NA
ATOM      3  C   UNL     1       3.167   8.089  17.476  0.00  0.00    +0.000 A 
ATOM      4  C   UNL     1       3.567   6.825  17.849  0.00  0.00    +0.000 A 
ATOM      5  C   UNL     1       2.960   6.290  18.988  0.00  0.00    +0.000 A 
ATOM      6  C   UNL     1       2.143   7.098  19.780  0.00  0.00    +0.000 A 
ATOM      7  N   UNL     1       1.780   6.319  20.879  0.00  0.00    +0.000 N 
ATOM      8  C   UNL     1       2.240   5.021  20.723  0.00  0.00    +0.000 A 
ATOM      9  C   UNL     1       2.081   3.856  21.509  0.00  0.00    +0.000 A 
ATOM     10  C   UNL     1       2.646   2.657  21.035  0.00  0.00    +0.000 A 
ATOM     11  C   UNL     1       3.322   2.602  19.819  0.00  0.00    +0.000 A 
ATOM     12  C   UNL     1       3.491   3.760  19.066  0.00  0.00    +0.000 A 
ATOM     13  C   UNL     1       2.961   4.979  19.530  0.00  0.00    +0.000 A 
ATOM     14  H   UNL     1       1.197   6.640  21.641  0.00  0.00    +0.000 HD
ENDROOT
BRANCH   1  16
ATOM     15  O   UNL     1       1.104   9.518  21.323  0.00  0.00    +0.000 OA
ATOM     16  C   UNL     1       0.990   9.371  20.112  0.00  0.00    +0.000 C 
BRANCH  16  17
ATOM     17  C   UNL     1      -0.054  10.121  19.342  0.00  0.00    +0.000 A 
ATOM     18  C   UNL     1      -0.759  11.174  19.937  0.00  0.00    +0.000 A 
ATOM     19  C   UNL     1      -1.929  11.660  19.335  0.00  0.00    +0.000 A 
ATOM     20  C   UNL     1      -2.407  11.081  18.148  0.00  0.00    +0.000 A 
ATOM     21  C   UNL     1      -1.602  10.159  17.471  0.00  0.00    +0.000 A 
ATOM     22  C   UNL     1      -0.439   9.676  18.068  0.00  0.00    +0.000 A 
BRANCH  20  23
ATOM     23  C   UNL     1      -3.825  11.298  17.672  0.00  0.00    +0.000 C 
ATOM     24  F   UNL     1      -4.483  12.288  18.337  0.00  0.00    +0.000 F 
ATOM     25  F   UNL     1      -3.913  11.599  16.349  0.00  0.00    +0.000 F 
ATOM     26  F   UNL     1      -4.580  10.175  17.848  0.00  0.00    +0.000 F 
ENDBRANCH  20  23
ENDBRANCH  16  17
ENDBRANCH   1  16
TORSDOF 3
ENDMDL
MODEL 8
REMARK VINA RESULT:      -7.9      3.914      7.748
REMARK  Name = 
REMARK  3 active torsions:
REMARK  status: ('A' for Active; 'I' for Inactive)
REMARK    1  A    between atoms: C_2  and  C_3
REMARK    2  A    between atoms: C_2  and  C_13
REMARK    3  A    between atoms: C_6  and  C_7
REMARK                            x       y       z     vdW  Elec       q    Type
REMARK                         _______ _______ _______ _____ _____    ______ ____
ROOT
ATOM      1  C   UNL     1       2.482   5.004  19.157  0.00  0.00    +0.000 A 
ATOM      2  N   UNL     1       1.582   3.986  19.040  0.00  0.00    +0.000 NA
ATOM      3  C   UNL     1       1.654   3.143  18.001  0.00  0.00    +0.000 A 
ATOM      4  C   UNL     1       2.612   3.215  17.015  0.00  0.00    +0.000 A 
ATOM      5  C   UNL     1       3.629   4.154  17.200  0.00  0.00    +0.000 A 
ATOM      6  C   UNL     1       3.535   5.078  18.242  0.00  0.00    +0.000 A 
ATOM      7  N   UNL     1       4.629   5.932  18.101  0.00  0.00    +0.000 N 
ATOM      8  C   UNL     1       5.460   5.486  17.085  0.00  0.00    +0.000 A 
ATOM      9  C   UNL     1       6.705   5.952  16.603  0.00  0.00    +0.000 A 
ATOM     10  C   UNL     1       7.327   5.228  15.568  0.00  0.00    +0.000 A 
ATOM     11  C   UNL     1       6.754   4.072  15.043  0.00  0.00    +0.000 A 
ATOM     12  C   UNL     1       5.518   3.637  15.511  0.00  0.00    +0.000 A 
ATOM     13  C   UNL     1       4.861   4.357  16.526  0.00  0.00    +0.000 A 
ATOM     14  H   UNL     1       4.824   6.718  18.707  0.00  0.00    +0.000 HD
ENDROOT
BRANCH   1  16
ATOM     15  O   UNL     1       2.333   5.461  21.462  0.00  0.00    +0.000 OA
ATOM     16  C   UNL     1       2.262   5.898  20.319  0.00  0.00    +0.000 C 
BRANCH  16  17
ATOM     17  C   UNL     1       1.901   7.330  20.066  0.00  0.00    +0.000 A 
ATOM     18  C   UNL     1       1.222   8.076  21.037  0.00  0.00    +0.000 A 
ATOM     19  C   UNL     1       0.620   9.294  20.688  0.00  0.00    +0.000 A 
ATOM     20  C   UNL     1       0.677   9.758  19.364  0.00  0.00    +0.000 A 
ATOM     21  C   UNL     1       1.508   9.100  18.450  0.00  0.00    +0.000 A 
ATOM     22  C   UNL     1       2.107   7.890  18.796  0.00  0.00    +0.000 A 
BRANCH  20  23
ATOM     23  C   UNL     1      -0.250  10.839  18.858  0.00  0.00    +0.000 C 
ATOM     24  F   UNL     1      -1.211  11.202  19.752  0.00  0.00    +0.000 F 
ATOM     25  F   UNL     1       0.392  11.981  18.498  0.00  0.00    +0.000 F 
ATOM     26  F   UNL     1      -0.925  10.426  17.745  0.00  0.00    +0.000 F 
ENDBRANCH  20  23
ENDBRANCH  16  17
ENDBRANCH   1  16
TORSDOF 3
ENDMDL
MODEL 9
REMARK VINA RESULT:      -7.9      3.835      8.041
REMARK  Name = 
REMARK  3 active torsions:
REMARK  status: ('A' for Active; 'I' for Inactive)
REMARK    1  A    between atoms: C_2  and  C_3
REMARK    2  A    between atoms: C_2  and  C_13
REMARK    3  A    between atoms: C_6  and  C_7
REMARK                            x       y       z     vdW  Elec       q    Type
REMARK                         _______ _______ _______ _____ _____    ______ ____
ROOT
ATOM      1  C   UNL     1       5.016   4.999  18.838  0.00  0.00    +0.000 A 
ATOM      2  N   UNL     1       5.988   5.536  19.630  0.00  0.00    +0.000 NA
ATOM      3  C   UNL     1       7.237   5.666  19.164  0.00  0.00    +0.000 A 
ATOM      4  C   UNL     1       7.628   5.306  17.894  0.00  0.00    +0.000 A 
ATOM      5  C   UNL     1       6.616   4.897  17.022  0.00  0.00    +0.000 A 
ATOM      6  C   UNL     1       5.323   4.698  17.509  0.00  0.00    +0.000 A 
ATOM      7  N   UNL     1       4.580   4.200  16.439  0.00  0.00    +0.000 N 
ATOM      8  C   UNL     1       5.340   4.208  15.279  0.00  0.00    +0.000 A 
ATOM      9  C   UNL     1       5.034   3.873  13.940  0.00  0.00    +0.000 A 
ATOM     10  C   UNL     1       6.039   4.043  12.969  0.00  0.00    +0.000 A 
ATOM     11  C   UNL     1       7.293   4.549  13.302  0.00  0.00    +0.000 A 
ATOM     12  C   UNL     1       7.589   4.854  14.627  0.00  0.00    +0.000 A 
ATOM     13  C   UNL     1       6.612   4.667  15.622  0.00  0.00    +0.000 A 
ATOM     14  H   UNL     1       3.603   3.944  16.489  0.00  0.00    +0.000 HD
ENDROOT
BRANCH   1  16
ATOM     15  O   UNL     1       3.373   3.805  20.030  0.00  0.00    +0.000 OA
ATOM     16  C   UNL     1       3.691   4.858  19.489  0.00  0.00    +0.000 C 
BRANCH  16  17
ATOM     17  C   UNL     1       2.733   6.008  19.424  0.00  0.00    +0.000 A 
ATOM     18  C   UNL     1       2.676   6.826  18.290  0.00  0.00    +0.000 A 
ATOM     19  C   UNL     1       2.017   8.062  18.351  0.00  0.00    +0.000 A 
ATOM     20  C   UNL     1       1.432   8.493  19.553  0.00  0.00    +0.000 A 
ATOM     21  C   UNL     1       1.337   7.594  20.622  0.00  0.00    +0.000 A 
ATOM     22  C   UNL     1       1.991   6.365  20.561  0.00  0.00    +0.000 A 
BRANCH  20  23
ATOM     23  C   UNL     1       1.053   9.938  19.782  0.00  0.00    +0.000 C 
ATOM     24  F   UNL     1       1.748  10.817  19.007  0.00  0.00    +0.000 F 
ATOM     25  F   UNL     1      -0.264  10.195  19.568  0.00  0.00    +0.000 F 
ATOM     26  F   UNL     1       1.300  10.313  21.071  0.00  0.00    +0.000 F 
ENDBRANCH  20  23
ENDBRANCH  16  17
ENDBRANCH   1  16
TORSDOF 3
ENDMDL
