MODEL 1
REMARK VINA RESULT:      -6.8      0.000      0.000
REMARK  Name = 
REMARK  5 active torsions:
REMARK  status: ('A' for Active; 'I' for Inactive)
REMARK    1  A    between atoms: C_1  and  O_2
REMARK    2  A    between atoms: O_2  and  C_3
REMARK    3  A    between atoms: C_6  and  N_7
REMARK    4  A    between atoms: C_14  and  C_15
REMARK    5  A    between atoms: N_17  and  C_18
REMARK                            x       y       z     vdW  Elec       q    Type
REMARK                         _______ _______ _______ _____ _____    ______ ____
ROOT
ATOM      1  N   UNL     1       2.294   7.784  18.990  0.00  0.00    +0.000 N 
ATOM      2  C   UNL     1       1.338   8.647  18.480  0.00  0.00    +0.000 C 
ATOM      3  O   UNL     1       1.062   8.701  17.279  0.00  0.00    +0.000 OA
ATOM      4  N   UNL     1       0.817   9.629  19.316  0.00  0.00    +0.000 N 
ATOM      5  C   UNL     1       0.276  10.841  18.670  0.00  0.00    +0.000 C 
ATOM      6  C   UNL     1       0.451  11.939  19.707  0.00  0.00    +0.000 C 
ATOM      7  C   UNL     1       0.203  11.132  20.951  0.00  0.00    +0.000 A 
ATOM      8  C   UNL     1      -0.330  11.611  22.147  0.00  0.00    +0.000 A 
ATOM      9  C   UNL     1      -0.849  10.657  23.023  0.00  0.00    +0.000 A 
ATOM     10  C   UNL     1      -0.744   9.282  22.718  0.00  0.00    +0.000 A 
ATOM     11  C   UNL     1      -0.066   8.815  21.563  0.00  0.00    +0.000 A 
ATOM     12  C   UNL     1       0.405   9.755  20.668  0.00  0.00    +0.000 A 
ATOM     13  H   UNL     1       2.465   7.829  19.984  0.00  0.00    +0.000 HD
ENDROOT
BRANCH   1  17
ATOM     14  C   UNL     1       4.800   5.095  16.699  0.00  0.00    +0.000 A 
ATOM     15  C   UNL     1       5.049   6.466  16.702  0.00  0.00    +0.000 A 
ATOM     16  C   UNL     1       4.252   7.360  17.450  0.00  0.00    +0.000 A 
ATOM     17  C   UNL     1       3.158   6.920  18.210  0.00  0.00    +0.000 A 
ATOM     18  C   UNL     1       2.924   5.532  18.202  0.00  0.00    +0.000 A 
ATOM     19  C   UNL     1       3.729   4.629  17.454  0.00  0.00    +0.000 A 
BRANCH  14  21
ATOM     20  C   UNL     1       6.712   5.025  15.254  0.00  0.00    +0.000 C 
ATOM     21  O   UNL     1       5.642   4.356  15.916  0.00  0.00    +0.000 OA
ENDBRANCH  14  21
ENDBRANCH   1  17
BRANCH   8  22
ATOM     22  C   UNL     1      -0.417  13.071  22.475  0.00  0.00    +0.000 C 
ATOM     23  O   UNL     1       0.558  13.801  22.325  0.00  0.00    +0.000 OA
ATOM     24  N   UNL     1      -1.668  13.496  22.899  0.00  0.00    +0.000 N 
ATOM     25  H   UNL     1      -2.441  12.848  22.823  0.00  0.00    +0.000 HD
BRANCH  24  26
ATOM     26  C   UNL     1      -1.994  14.845  23.260  0.00  0.00    +0.000 C 
ATOM     27  C   UNL     1      -3.423  15.313  23.171  0.00  0.00    +0.000 C 
ATOM     28  C   UNL     1      -2.789  15.118  24.515  0.00  0.00    +0.000 C 
ENDBRANCH  24  26
ENDBRANCH   8  22
TORSDOF 4
ENDMDL
MODEL 2
REMARK VINA RESULT:      -6.8      3.031      3.664
REMARK  Name = 
REMARK  5 active torsions:
REMARK  status: ('A' for Active; 'I' for Inactive)
REMARK    1  A    between atoms: C_1  and  O_2
REMARK    2  A    between atoms: O_2  and  C_3
REMARK    3  A    between atoms: C_6  and  N_7
REMARK    4  A    between atoms: C_14  and  C_15
REMARK    5  A    between atoms: N_17  and  C_18
REMARK                            x       y       z     vdW  Elec       q    Type
REMARK                         _______ _______ _______ _____ _____    ______ ____
ROOT
ATOM      1  N   UNL     1       1.378   8.346  18.196  0.00  0.00    +0.000 N 
ATOM      2  C   UNL     1       1.425   9.730  18.161  0.00  0.00    +0.000 C 
ATOM      3  O   UNL     1       2.483  10.359  18.101  0.00  0.00    +0.000 OA
ATOM      4  N   UNL     1       0.255  10.440  18.408  0.00  0.00    +0.000 N 
ATOM      5  C   UNL     1       0.402  11.815  18.922  0.00  0.00    +0.000 C 
ATOM      6  C   UNL     1      -0.864  12.061  19.727  0.00  0.00    +0.000 C 
ATOM      7  C   UNL     1      -1.836  11.283  18.886  0.00  0.00    +0.000 A 
ATOM      8  C   UNL     1      -3.196  11.551  18.743  0.00  0.00    +0.000 A 
ATOM      9  C   UNL     1      -3.830  10.987  17.636  0.00  0.00    +0.000 A 
ATOM     10  C   UNL     1      -3.117  10.122  16.775  0.00  0.00    +0.000 A 
ATOM     11  C   UNL     1      -1.771   9.749  17.026  0.00  0.00    +0.000 A 
ATOM     12  C   UNL     1      -1.125  10.344  18.091  0.00  0.00    +0.000 A 
ATOM     13  H   UNL     1       0.464   7.923  18.267  0.00  0.00    +0.000 HD
ENDROOT
BRANCH   1  17
ATOM     14  C   UNL     1       4.747   5.646  18.536  0.00  0.00    +0.000 A 
ATOM     15  C   UNL     1       4.651   6.528  17.462  0.00  0.00    +0.000 A 
ATOM     16  C   UNL     1       3.568   7.424  17.336  0.00  0.00    +0.000 A 
ATOM     17  C   UNL     1       2.523   7.460  18.271  0.00  0.00    +0.000 A 
ATOM     18  C   UNL     1       2.637   6.568  19.354  0.00  0.00    +0.000 A 
ATOM     19  C   UNL     1       3.731   5.668  19.486  0.00  0.00    +0.000 A 
BRANCH  14  21
ATOM     20  C   UNL     1       6.719   4.898  17.398  0.00  0.00    +0.000 C 
ATOM     21  O   UNL     1       5.840   4.826  18.516  0.00  0.00    +0.000 OA
ENDBRANCH  14  21
ENDBRANCH   1  17
BRANCH   8  22
ATOM     22  C   UNL     1      -3.952  12.451  19.674  0.00  0.00    +0.000 C 
ATOM     23  O   UNL     1      -3.572  12.610  20.830  0.00  0.00    +0.000 OA
ATOM     24  N   UNL     1      -5.045  13.088  19.104  0.00  0.00    +0.000 N 
ATOM     25  H   UNL     1      -5.168  13.017  18.102  0.00  0.00    +0.000 HD
BRANCH  24  26
ATOM     26  C   UNL     1      -5.913  13.998  19.794  0.00  0.00    +0.000 C 
ATOM     27  C   UNL     1      -6.972  14.743  19.023  0.00  0.00    +0.000 C 
ATOM     28  C   UNL     1      -7.373  13.656  19.975  0.00  0.00    +0.000 C 
ENDBRANCH  24  26
ENDBRANCH   8  22
TORSDOF 4
ENDMDL
MODEL 3
REMARK VINA RESULT:      -6.8      3.072      3.564
REMARK  Name = 
REMARK  5 active torsions:
REMARK  status: ('A' for Active; 'I' for Inactive)
REMARK    1  A    between atoms: C_1  and  O_2
REMARK    2  A    between atoms: O_2  and  C_3
REMARK    3  A    between atoms: C_6  and  N_7
REMARK    4  A    between atoms: C_14  and  C_15
REMARK    5  A    between atoms: N_17  and  C_18
REMARK                            x       y       z     vdW  Elec       q    Type
REMARK                         _______ _______ _______ _____ _____    ______ ____
ROOT
ATOM      1  N   UNL     1       1.636   7.508  18.529  0.00  0.00    +0.000 N 
ATOM      2  C   UNL     1       2.064   8.625  17.830  0.00  0.00    +0.000 C 
ATOM      3  O   UNL     1       3.061   8.614  17.104  0.00  0.00    +0.000 OA
ATOM      4  N   UNL     1       1.474   9.852  18.113  0.00  0.00    +0.000 N 
ATOM      5  C   UNL     1       2.270  11.060  17.824  0.00  0.00    +0.000 C 
ATOM      6  C   UNL     1       1.762  12.099  18.810  0.00  0.00    +0.000 C 
ATOM      7  C   UNL     1       0.313  11.701  18.851  0.00  0.00    +0.000 A 
ATOM      8  C   UNL     1      -0.765  12.549  19.097  0.00  0.00    +0.000 A 
ATOM      9  C   UNL     1      -2.022  12.090  18.701  0.00  0.00    +0.000 A 
ATOM     10  C   UNL     1      -2.165  10.793  18.161  0.00  0.00    +0.000 A 
ATOM     11  C   UNL     1      -1.072   9.894  18.056  0.00  0.00    +0.000 A 
ATOM     12  C   UNL     1       0.181  10.360  18.399  0.00  0.00    +0.000 A 
ATOM     13  H   UNL     1       0.821   7.622  19.115  0.00  0.00    +0.000 HD
ENDROOT
BRANCH   1  17
ATOM     14  C   UNL     1       3.772   3.753  18.834  0.00  0.00    +0.000 A 
ATOM     15  C   UNL     1       2.733   3.905  17.918  0.00  0.00    +0.000 A 
ATOM     16  C   UNL     1       2.031   5.123  17.794  0.00  0.00    +0.000 A 
ATOM     17  C   UNL     1       2.325   6.234  18.597  0.00  0.00    +0.000 A 
ATOM     18  C   UNL     1       3.381   6.067  19.512  0.00  0.00    +0.000 A 
ATOM     19  C   UNL     1       4.094   4.843  19.635  0.00  0.00    +0.000 A 
BRANCH  14  21
ATOM     20  C   UNL     1       3.532   1.383  18.563  0.00  0.00    +0.000 C 
ATOM     21  O   UNL     1       4.348   2.514  18.854  0.00  0.00    +0.000 OA
ENDBRANCH  14  21
ENDBRANCH   1  17
BRANCH   8  22
ATOM     22  C   UNL     1      -0.608  13.916  19.693  0.00  0.00    +0.000 C 
ATOM     23  O   UNL     1      -0.414  14.051  20.897  0.00  0.00    +0.000 OA
ATOM     24  N   UNL     1      -0.655  14.956  18.775  0.00  0.00    +0.000 N 
ATOM     25  H   UNL     1      -0.648  14.723  17.791  0.00  0.00    +0.000 HD
BRANCH  24  26
ATOM     26  C   UNL     1      -0.522  16.345  19.107  0.00  0.00    +0.000 C 
ATOM     27  C   UNL     1       0.621  17.141  18.530  0.00  0.00    +0.000 C 
ATOM     28  C   UNL     1      -0.778  17.399  18.055  0.00  0.00    +0.000 C 
ENDBRANCH  24  26
ENDBRANCH   8  22
TORSDOF 4
ENDMDL
MODEL 4
REMARK VINA RESULT:      -6.7      2.698      3.457
REMARK  Name = 
REMARK  5 active torsions:
REMARK  status: ('A' for Active; 'I' for Inactive)
REMARK    1  A    between atoms: C_1  and  O_2
REMARK    2  A    between atoms: O_2  and  C_3
REMARK    3  A    between atoms: C_6  and  N_7
REMARK    4  A    between atoms: C_14  and  C_15
REMARK    5  A    between atoms: N_17  and  C_18
REMARK                            x       y       z     vdW  Elec       q    Type
REMARK                         _______ _______ _______ _____ _____    ______ ____
ROOT
ATOM      1  N   UNL     1       2.398   8.143  18.198  0.00  0.00    +0.000 N 
ATOM      2  C   UNL     1       1.932   8.374  19.482  0.00  0.00    +0.000 C 
ATOM      3  O   UNL     1       2.200   7.634  20.431  0.00  0.00    +0.000 OA
ATOM      4  N   UNL     1       0.965   9.356  19.670  0.00  0.00    +0.000 N 
ATOM      5  C   UNL     1       0.093   9.219  20.852  0.00  0.00    +0.000 C 
ATOM      6  C   UNL     1      -1.203   9.907  20.455  0.00  0.00    +0.000 C 
ATOM      7  C   UNL     1      -0.635  11.013  19.610  0.00  0.00    +0.000 A 
ATOM      8  C   UNL     1      -1.197  12.274  19.422  0.00  0.00    +0.000 A 
ATOM      9  C   UNL     1      -0.345  13.273  18.950  0.00  0.00    +0.000 A 
ATOM     10  C   UNL     1       0.990  12.962  18.608  0.00  0.00    +0.000 A 
ATOM     11  C   UNL     1       1.496  11.638  18.670  0.00  0.00    +0.000 A 
ATOM     12  C   UNL     1       0.673  10.657  19.185  0.00  0.00    +0.000 A 
ATOM     13  H   UNL     1       2.107   8.794  17.484  0.00  0.00    +0.000 HD
ENDROOT
BRANCH   1  17
ATOM     14  C   UNL     1       4.551   4.600  16.944  0.00  0.00    +0.000 A 
ATOM     15  C   UNL     1       5.123   5.863  16.806  0.00  0.00    +0.000 A 
ATOM     16  C   UNL     1       4.444   7.030  17.218  0.00  0.00    +0.000 A 
ATOM     17  C   UNL     1       3.154   6.984  17.766  0.00  0.00    +0.000 A 
ATOM     18  C   UNL     1       2.593   5.701  17.906  0.00  0.00    +0.000 A 
ATOM     19  C   UNL     1       3.277   4.523  17.497  0.00  0.00    +0.000 A 
BRANCH  14  21
ATOM     20  C   UNL     1       6.126   3.780  15.334  0.00  0.00    +0.000 C 
ATOM     21  O   UNL     1       5.316   3.565  16.486  0.00  0.00    +0.000 OA
ENDBRANCH  14  21
ENDBRANCH   1  17
BRANCH   8  22
ATOM     22  C   UNL     1      -2.622  12.591  19.765  0.00  0.00    +0.000 C 
ATOM     23  O   UNL     1      -2.891  13.220  20.784  0.00  0.00    +0.000 OA
ATOM     24  N   UNL     1      -3.552  12.161  18.830  0.00  0.00    +0.000 N 
ATOM     25  H   UNL     1      -3.210  11.804  17.947  0.00  0.00    +0.000 HD
BRANCH  24  26
ATOM     26  C   UNL     1      -4.969  12.354  18.937  0.00  0.00    +0.000 C 
ATOM     27  C   UNL     1      -5.820  12.318  17.694  0.00  0.00    +0.000 C 
ATOM     28  C   UNL     1      -5.909  11.199  18.687  0.00  0.00    +0.000 C 
ENDBRANCH  24  26
ENDBRANCH   8  22
TORSDOF 4
ENDMDL
MODEL 5
REMARK VINA RESULT:      -6.7      2.319      2.779
REMARK  Name = 
REMARK  5 active torsions:
REMARK  status: ('A' for Active; 'I' for Inactive)
REMARK    1  A    between atoms: C_1  and  O_2
REMARK    2  A    between atoms: O_2  and  C_3
REMARK    3  A    between atoms: C_6  and  N_7
REMARK    4  A    between atoms: C_14  and  C_15
REMARK    5  A    between atoms: N_17  and  C_18
REMARK                            x       y       z     vdW  Elec       q    Type
REMARK                         _______ _______ _______ _____ _____    ______ ____
ROOT
ATOM      1  N   UNL     1       1.391   8.637  18.488  0.00  0.00    +0.000 N 
ATOM      2  C   UNL     1       1.521  10.015  18.420  0.00  0.00    +0.000 C 
ATOM      3  O   UNL     1       2.593  10.571  18.170  0.00  0.00    +0.000 OA
ATOM      4  N   UNL     1       0.460  10.804  18.849  0.00  0.00    +0.000 N 
ATOM      5  C   UNL     1       0.782  12.170  19.306  0.00  0.00    +0.000 C 
ATOM      6  C   UNL     1      -0.309  12.506  20.310  0.00  0.00    +0.000 C 
ATOM      7  C   UNL     1      -1.459  11.790  19.661  0.00  0.00    +0.000 A 
ATOM      8  C   UNL     1      -2.803  12.149  19.746  0.00  0.00    +0.000 A 
ATOM      9  C   UNL     1      -3.652  11.620  18.773  0.00  0.00    +0.000 A 
ATOM     10  C   UNL     1      -3.155  10.703  17.820  0.00  0.00    +0.000 A 
ATOM     11  C   UNL     1      -1.813  10.242  17.845  0.00  0.00    +0.000 A 
ATOM     12  C   UNL     1      -0.957  10.800  18.774  0.00  0.00    +0.000 A 
ATOM     13  H   UNL     1       0.477   8.278  18.721  0.00  0.00    +0.000 HD
ENDROOT
BRANCH   1  17
ATOM     14  C   UNL     1       4.577   5.710  18.295  0.00  0.00    +0.000 A 
ATOM     15  C   UNL     1       4.427   6.663  17.289  0.00  0.00    +0.000 A 
ATOM     16  C   UNL     1       3.403   7.633  17.337  0.00  0.00    +0.000 A 
ATOM     17  C   UNL     1       2.471   7.677  18.384  0.00  0.00    +0.000 A 
ATOM     18  C   UNL     1       2.640   6.713  19.396  0.00  0.00    +0.000 A 
ATOM     19  C   UNL     1       3.675   5.738  19.353  0.00  0.00    +0.000 A 
BRANCH  14  21
ATOM     20  C   UNL     1       6.686   5.215  17.270  0.00  0.00    +0.000 C 
ATOM     21  O   UNL     1       5.601   4.825  18.106  0.00  0.00    +0.000 OA
ENDBRANCH  14  21
ENDBRANCH   1  17
BRANCH   8  22
ATOM     22  C   UNL     1      -3.329  13.104  20.775  0.00  0.00    +0.000 C 
ATOM     23  O   UNL     1      -3.643  14.247  20.459  0.00  0.00    +0.000 OA
ATOM     24  N   UNL     1      -3.459  12.569  22.049  0.00  0.00    +0.000 N 
ATOM     25  H   UNL     1      -3.332  11.571  22.161  0.00  0.00    +0.000 HD
BRANCH  24  26
ATOM     26  C   UNL     1      -3.945  13.286  23.191  0.00  0.00    +0.000 C 
ATOM     27  C   UNL     1      -5.356  13.057  23.668  0.00  0.00    +0.000 C 
ATOM     28  C   UNL     1      -4.206  12.554  24.487  0.00  0.00    +0.000 C 
ENDBRANCH  24  26
ENDBRANCH   8  22
TORSDOF 4
ENDMDL
MODEL 6
REMARK VINA RESULT:      -6.7      3.238      4.029
REMARK  Name = 
REMARK  5 active torsions:
REMARK  status: ('A' for Active; 'I' for Inactive)
REMARK    1  A    between atoms: C_1  and  O_2
REMARK    2  A    between atoms: O_2  and  C_3
REMARK    3  A    between atoms: C_6  and  N_7
REMARK    4  A    between atoms: C_14  and  C_15
REMARK    5  A    between atoms: N_17  and  C_18
REMARK                            x       y       z     vdW  Elec       q    Type
REMARK                         _______ _______ _______ _____ _____    ______ ____
ROOT
ATOM      1  N   UNL     1       1.118   8.415  18.158  0.00  0.00    +0.000 N 
ATOM      2  C   UNL     1       1.145   9.799  18.212  0.00  0.00    +0.000 C 
ATOM      3  O   UNL     1       2.193  10.442  18.296  0.00  0.00    +0.000 OA
ATOM      4  N   UNL     1      -0.056  10.480  18.384  0.00  0.00    +0.000 N 
ATOM      5  C   UNL     1       0.017  11.822  18.993  0.00  0.00    +0.000 C 
ATOM      6  C   UNL     1      -1.326  12.003  19.683  0.00  0.00    +0.000 C 
ATOM      7  C   UNL     1      -2.198  11.268  18.703  0.00  0.00    +0.000 A 
ATOM      8  C   UNL     1      -3.541  11.531  18.442  0.00  0.00    +0.000 A 
ATOM      9  C   UNL     1      -4.053  11.029  17.245  0.00  0.00    +0.000 A 
ATOM     10  C   UNL     1      -3.244  10.228  16.409  0.00  0.00    +0.000 A 
ATOM     11  C   UNL     1      -1.924   9.854  16.769  0.00  0.00    +0.000 A 
ATOM     12  C   UNL     1      -1.396  10.389  17.927  0.00  0.00    +0.000 A 
ATOM     13  H   UNL     1       0.209   7.978  18.112  0.00  0.00    +0.000 HD
ENDROOT
BRANCH   1  17
ATOM     14  C   UNL     1       4.596   5.849  18.444  0.00  0.00    +0.000 A 
ATOM     15  C   UNL     1       3.610   5.819  19.428  0.00  0.00    +0.000 A 
ATOM     16  C   UNL     1       2.463   6.638  19.350  0.00  0.00    +0.000 A 
ATOM     17  C   UNL     1       2.265   7.539  18.293  0.00  0.00    +0.000 A 
ATOM     18  C   UNL     1       3.266   7.553  17.304  0.00  0.00    +0.000 A 
ATOM     19  C   UNL     1       4.420   6.724  17.377  0.00  0.00    +0.000 A 
BRANCH  14  21
ATOM     20  C   UNL     1       6.945   5.594  18.846  0.00  0.00    +0.000 C 
ATOM     21  O   UNL     1       5.656   5.015  18.662  0.00  0.00    +0.000 OA
ENDBRANCH  14  21
ENDBRANCH   1  17
BRANCH   8  22
ATOM     22  C   UNL     1      -4.401  12.362  19.347  0.00  0.00    +0.000 C 
ATOM     23  O   UNL     1      -4.210  12.362  20.559  0.00  0.00    +0.000 OA
ATOM     24  N   UNL     1      -5.355  13.130  18.694  0.00  0.00    +0.000 N 
ATOM     25  H   UNL     1      -5.313  13.184  17.685  0.00  0.00    +0.000 HD
BRANCH  24  26
ATOM     26  C   UNL     1      -6.284  14.007  19.346  0.00  0.00    +0.000 C 
ATOM     27  C   UNL     1      -5.845  15.393  19.741  0.00  0.00    +0.000 C 
ATOM     28  C   UNL     1      -6.819  15.216  18.615  0.00  0.00    +0.000 C 
ENDBRANCH  24  26
ENDBRANCH   8  22
TORSDOF 4
ENDMDL
MODEL 7
REMARK VINA RESULT:      -6.6      2.970      3.661
REMARK  Name = 
REMARK  5 active torsions:
REMARK  status: ('A' for Active; 'I' for Inactive)
REMARK    1  A    between atoms: C_1  and  O_2
REMARK    2  A    between atoms: O_2  and  C_3
REMARK    3  A    between atoms: C_6  and  N_7
REMARK    4  A    between atoms: C_14  and  C_15
REMARK    5  A    between atoms: N_17  and  C_18
REMARK                            x       y       z     vdW  Elec       q    Type
REMARK                         _______ _______ _______ _____ _____    ______ ____
ROOT
ATOM      1  N   UNL     1       1.450   8.307  18.253  0.00  0.00    +0.000 N 
ATOM      2  C   UNL     1       1.516   9.691  18.213  0.00  0.00    +0.000 C 
ATOM      3  O   UNL     1       2.583  10.305  18.149  0.00  0.00    +0.000 OA
ATOM      4  N   UNL     1       0.356  10.417  18.461  0.00  0.00    +0.000 N 
ATOM      5  C   UNL     1       0.523  11.792  18.970  0.00  0.00    +0.000 C 
ATOM      6  C   UNL     1      -0.737  12.058  19.778  0.00  0.00    +0.000 C 
ATOM      7  C   UNL     1      -1.722  11.290  18.942  0.00  0.00    +0.000 A 
ATOM      8  C   UNL     1      -3.079  11.577  18.801  0.00  0.00    +0.000 A 
ATOM      9  C   UNL     1      -3.723  11.017  17.697  0.00  0.00    +0.000 A 
ATOM     10  C   UNL     1      -3.024  10.140  16.838  0.00  0.00    +0.000 A 
ATOM     11  C   UNL     1      -1.683   9.750  17.087  0.00  0.00    +0.000 A 
ATOM     12  C   UNL     1      -1.026  10.339  18.148  0.00  0.00    +0.000 A 
ATOM     13  H   UNL     1       0.531   7.897  18.328  0.00  0.00    +0.000 HD
ENDROOT
BRANCH   1  17
ATOM     14  C   UNL     1       4.884   5.671  18.362  0.00  0.00    +0.000 A 
ATOM     15  C   UNL     1       3.927   5.630  19.373  0.00  0.00    +0.000 A 
ATOM     16  C   UNL     1       2.794   6.472  19.353  0.00  0.00    +0.000 A 
ATOM     17  C   UNL     1       2.583   7.406  18.329  0.00  0.00    +0.000 A 
ATOM     18  C   UNL     1       3.555   7.431  17.311  0.00  0.00    +0.000 A 
ATOM     19  C   UNL     1       4.694   6.579  17.327  0.00  0.00    +0.000 A 
BRANCH  14  21
ATOM     20  C   UNL     1       7.220   5.220  18.067  0.00  0.00    +0.000 C 
ATOM     21  O   UNL     1       5.934   4.811  18.524  0.00  0.00    +0.000 OA
ENDBRANCH  14  21
ENDBRANCH   1  17
BRANCH   8  22
ATOM     22  C   UNL     1      -3.820  12.490  19.732  0.00  0.00    +0.000 C 
ATOM     23  O   UNL     1      -3.228  13.385  20.326  0.00  0.00    +0.000 OA
ATOM     24  N   UNL     1      -5.185  12.255  19.808  0.00  0.00    +0.000 N 
ATOM     25  H   UNL     1      -5.594  11.604  19.149  0.00  0.00    +0.000 HD
BRANCH  24  26
ATOM     26  C   UNL     1      -6.100  13.001  20.622  0.00  0.00    +0.000 C 
ATOM     27  C   UNL     1      -7.551  13.081  20.228  0.00  0.00    +0.000 C 
ATOM     28  C   UNL     1      -7.152  12.280  21.430  0.00  0.00    +0.000 C 
ENDBRANCH  24  26
ENDBRANCH   8  22
TORSDOF 4
ENDMDL
MODEL 8
REMARK VINA RESULT:      -6.6      2.356      2.883
REMARK  Name = 
REMARK  5 active torsions:
REMARK  status: ('A' for Active; 'I' for Inactive)
REMARK    1  A    between atoms: C_1  and  O_2
REMARK    2  A    between atoms: O_2  and  C_3
REMARK    3  A    between atoms: C_6  and  N_7
REMARK    4  A    between atoms: C_14  and  C_15
REMARK    5  A    between atoms: N_17  and  C_18
REMARK                            x       y       z     vdW  Elec       q    Type
REMARK                         _______ _______ _______ _____ _____    ______ ____
ROOT
ATOM      1  N   UNL     1       1.862   7.774  20.196  0.00  0.00    +0.000 N 
ATOM      2  C   UNL     1       1.470   8.718  19.260  0.00  0.00    +0.000 C 
ATOM      3  O   UNL     1       1.516   8.510  18.046  0.00  0.00    +0.000 OA
ATOM      4  N   UNL     1       1.210  10.013  19.693  0.00  0.00    +0.000 N 
ATOM      5  C   UNL     1       1.356  11.094  18.699  0.00  0.00    +0.000 C 
ATOM      6  C   UNL     1       1.715  12.323  19.518  0.00  0.00    +0.000 C 
ATOM      7  C   UNL     1       0.894  12.040  20.745  0.00  0.00    +0.000 A 
ATOM      8  C   UNL     1       0.341  12.991  21.601  0.00  0.00    +0.000 A 
ATOM      9  C   UNL     1      -0.698  12.558  22.425  0.00  0.00    +0.000 A 
ATOM     10  C   UNL     1      -1.083  11.199  22.427  0.00  0.00    +0.000 A 
ATOM     11  C   UNL     1      -0.406  10.222  21.652  0.00  0.00    +0.000 A 
ATOM     12  C   UNL     1       0.589  10.653  20.797  0.00  0.00    +0.000 A 
ATOM     13  H   UNL     1       1.808   8.046  21.167  0.00  0.00    +0.000 HD
ENDROOT
BRANCH   1  17
ATOM     14  C   UNL     1       3.566   3.871  19.407  0.00  0.00    +0.000 A 
ATOM     15  C   UNL     1       4.052   5.002  18.754  0.00  0.00    +0.000 A 
ATOM     16  C   UNL     1       3.520   6.285  19.004  0.00  0.00    +0.000 A 
ATOM     17  C   UNL     1       2.462   6.487  19.903  0.00  0.00    +0.000 A 
ATOM     18  C   UNL     1       1.986   5.337  20.559  0.00  0.00    +0.000 A 
ATOM     19  C   UNL     1       2.526   4.044  20.314  0.00  0.00    +0.000 A 
BRANCH  14  21
ATOM     20  C   UNL     1       3.398   1.735  18.334  0.00  0.00    +0.000 C 
ATOM     21  O   UNL     1       4.166   2.696  19.052  0.00  0.00    +0.000 OA
ENDBRANCH  14  21
ENDBRANCH   1  17
BRANCH   8  22
ATOM     22  C   UNL     1       0.772  14.427  21.610  0.00  0.00    +0.000 C 
ATOM     23  O   UNL     1       1.680  14.798  22.346  0.00  0.00    +0.000 OA
ATOM     24  N   UNL     1       0.098  15.240  20.709  0.00  0.00    +0.000 N 
ATOM     25  H   UNL     1      -0.512  14.797  20.034  0.00  0.00    +0.000 HD
BRANCH  24  26
ATOM     26  C   UNL     1       0.340  16.642  20.534  0.00  0.00    +0.000 C 
ATOM     27  C   UNL     1       0.973  17.133  19.258  0.00  0.00    +0.000 C 
ATOM     28  C   UNL     1      -0.472  17.427  19.531  0.00  0.00    +0.000 C 
ENDBRANCH  24  26
ENDBRANCH   8  22
TORSDOF 4
ENDMDL
MODEL 9
REMARK VINA RESULT:      -6.6      2.847      3.536
REMARK  Name = 
REMARK  5 active torsions:
REMARK  status: ('A' for Active; 'I' for Inactive)
REMARK    1  A    between atoms: C_1  and  O_2
REMARK    2  A    between atoms: O_2  and  C_3
REMARK    3  A    between atoms: C_6  and  N_7
REMARK    4  A    between atoms: C_14  and  C_15
REMARK    5  A    between atoms: N_17  and  C_18
REMARK                            x       y       z     vdW  Elec       q    Type
REMARK                         _______ _______ _______ _____ _____    ______ ____
ROOT
ATOM      1  N   UNL     1       1.122   8.498  18.082  0.00  0.00    +0.000 N 
ATOM      2  C   UNL     1       1.122   9.880  18.189  0.00  0.00    +0.000 C 
ATOM      3  O   UNL     1       2.157  10.539  18.299  0.00  0.00    +0.000 OA
ATOM      4  N   UNL     1      -0.092  10.529  18.386  0.00  0.00    +0.000 N 
ATOM      5  C   UNL     1      -0.047  11.848  19.046  0.00  0.00    +0.000 C 
ATOM      6  C   UNL     1      -1.393  11.977  19.740  0.00  0.00    +0.000 C 
ATOM      7  C   UNL     1      -2.249  11.263  18.732  0.00  0.00    +0.000 A 
ATOM      8  C   UNL     1      -3.598  11.508  18.480  0.00  0.00    +0.000 A 
ATOM      9  C   UNL     1      -4.099  11.042  17.264  0.00  0.00    +0.000 A 
ATOM     10  C   UNL     1      -3.274  10.290  16.399  0.00  0.00    +0.000 A 
ATOM     11  C   UNL     1      -1.947   9.929  16.746  0.00  0.00    +0.000 A 
ATOM     12  C   UNL     1      -1.430  10.429  17.924  0.00  0.00    +0.000 A 
ATOM     13  H   UNL     1       0.222   8.046  18.019  0.00  0.00    +0.000 HD
ENDROOT
BRANCH   1  17
ATOM     14  C   UNL     1       4.549   5.884  18.506  0.00  0.00    +0.000 A 
ATOM     15  C   UNL     1       4.435   6.730  17.405  0.00  0.00    +0.000 A 
ATOM     16  C   UNL     1       3.333   7.599  17.252  0.00  0.00    +0.000 A 
ATOM     17  C   UNL     1       2.286   7.640  18.185  0.00  0.00    +0.000 A 
ATOM     18  C   UNL     1       2.419   6.785  19.294  0.00  0.00    +0.000 A 
ATOM     19  C   UNL     1       3.532   5.913  19.454  0.00  0.00    +0.000 A 
BRANCH  14  21
ATOM     20  C   UNL     1       6.207   4.682  17.260  0.00  0.00    +0.000 C 
ATOM     21  O   UNL     1       5.660   5.088  18.511  0.00  0.00    +0.000 OA
ENDBRANCH  14  21
ENDBRANCH   1  17
BRANCH   8  22
ATOM     22  C   UNL     1      -4.474  12.288  19.415  0.00  0.00    +0.000 C 
ATOM     23  O   UNL     1      -5.550  11.830  19.784  0.00  0.00    +0.000 OA
ATOM     24  N   UNL     1      -3.941  13.499  19.832  0.00  0.00    +0.000 N 
ATOM     25  H   UNL     1      -2.977  13.700  19.601  0.00  0.00    +0.000 HD
BRANCH  24  26
ATOM     26  C   UNL     1      -4.590  14.412  20.728  0.00  0.00    +0.000 C 
ATOM     27  C   UNL     1      -4.501  14.183  22.215  0.00  0.00    +0.000 C 
ATOM     28  C   UNL     1      -3.763  15.331  21.596  0.00  0.00    +0.000 C 
ENDBRANCH  24  26
ENDBRANCH   8  22
TORSDOF 4
ENDMDL
