MODEL 1
REMARK VINA RESULT:      -7.5      0.000      0.000
REMARK  Name = 
REMARK  12 active torsions:
REMARK  status: ('A' for Active; 'I' for Inactive)
REMARK    1  A    between atoms: C_1  and  C_2
REMARK    2  A    between atoms: C_2  and  O_3
REMARK    3  A    between atoms: O_3  and  C_4
REMARK    4  A    between atoms: C_4  and  C_6
REMARK    5  A    between atoms: C_6  and  C_7
REMARK    6  A    between atoms: C_6  and  C_8
REMARK    7  A    between atoms: C_6  and  S_9
REMARK    8  A    between atoms: S_9  and  C_10
REMARK    9  A    between atoms: N_18  and  C_19
REMARK   10  A    between atoms: C_20  and  C_21
REMARK   11  A    between atoms: C_23  and  C_24
REMARK   12  A    between atoms: C_26  and  C_27
REMARK                            x       y       z     vdW  Elec       q    Type
REMARK                         _______ _______ _______ _____ _____    ______ ____
ROOT
ATOM      1  C   UNL     1       3.951   5.719  17.510  0.00  0.00    +0.000 A 
ATOM      2  N   UNL     1       4.176   4.562  16.924  0.00  0.00    +0.000 NA
ATOM      3  C   UNL     1       3.213   3.733  17.405  0.00  0.00    +0.000 A 
ATOM      4  C   UNL     1       3.058   2.354  17.233  0.00  0.00    +0.000 A 
ATOM      5  C   UNL     1       2.029   1.728  17.932  0.00  0.00    +0.000 A 
ATOM      6  C   UNL     1       1.174   2.511  18.695  0.00  0.00    +0.000 A 
ATOM      7  N   UNL     1       1.244   3.861  18.839  0.00  0.00    +0.000 NA
ATOM      8  C   UNL     1       2.323   4.412  18.231  0.00  0.00    +0.000 A 
ATOM      9  N   UNL     1       2.800   5.727  18.313  0.00  0.00    +0.000 N 
ENDROOT
BRANCH   9  10
ATOM     10  C   UNL     1       2.266   6.792  19.137  0.00  0.00    +0.000 A 
ATOM     11  C   UNL     1       2.008   8.082  18.583  0.00  0.00    +0.000 A 
ATOM     12  C   UNL     1       2.185   8.510  17.146  0.00  0.00    +0.000 C 
ATOM     13  C   UNL     1       1.507   9.114  19.411  0.00  0.00    +0.000 A 
ATOM     14  C   UNL     1       1.176   8.895  20.740  0.00  0.00    +0.000 A 
ATOM     15  C   UNL     1       0.603   9.989  21.592  0.00  0.00    +0.000 C 
ATOM     16  C   UNL     1       1.398   7.632  21.275  0.00  0.00    +0.000 A 
ATOM     17  C   UNL     1       1.986   6.589  20.522  0.00  0.00    +0.000 A 
ATOM     18  C   UNL     1       2.312   5.359  21.336  0.00  0.00    +0.000 C 
ENDBRANCH   9  10
BRANCH   1  19
ATOM     19  S   UNL     1       5.165   6.968  17.486  0.00  0.00    +0.000 S 
BRANCH  19  20
ATOM     20  C   UNL     1       6.710   6.085  17.957  0.00  0.00    +0.000 C 
ATOM     21  C   UNL     1       6.403   5.294  19.234  0.00  0.00    +0.000 C 
ATOM     22  C   UNL     1       7.777   7.154  18.256  0.00  0.00    +0.000 C 
BRANCH  20  23
ATOM     23  C   UNL     1       7.280   5.226  16.814  0.00  0.00    +0.000 C 
ATOM     24  O   UNL     1       7.938   4.206  16.953  0.00  0.00    +0.000 OA
BRANCH  23  25
ATOM     25  O   UNL     1       6.823   5.688  15.610  0.00  0.00    +0.000 OA
BRANCH  25  27
ATOM     26  C   UNL     1       5.999   4.070  14.016  0.00  0.00    +0.000 C 
ATOM     27  C   UNL     1       7.171   4.933  14.442  0.00  0.00    +0.000 C 
ENDBRANCH  25  27
ENDBRANCH  23  25
ENDBRANCH  20  23
ENDBRANCH  19  20
ENDBRANCH   1  19
TORSDOF 6
ENDMDL
MODEL 2
REMARK VINA RESULT:      -7.4      0.052      1.704
REMARK  Name = 
REMARK  12 active torsions:
REMARK  status: ('A' for Active; 'I' for Inactive)
REMARK    1  A    between atoms: C_1  and  C_2
REMARK    2  A    between atoms: C_2  and  O_3
REMARK    3  A    between atoms: O_3  and  C_4
REMARK    4  A    between atoms: C_4  and  C_6
REMARK    5  A    between atoms: C_6  and  C_7
REMARK    6  A    between atoms: C_6  and  C_8
REMARK    7  A    between atoms: C_6  and  S_9
REMARK    8  A    between atoms: S_9  and  C_10
REMARK    9  A    between atoms: N_18  and  C_19
REMARK   10  A    between atoms: C_20  and  C_21
REMARK   11  A    between atoms: C_23  and  C_24
REMARK   12  A    between atoms: C_26  and  C_27
REMARK                            x       y       z     vdW  Elec       q    Type
REMARK                         _______ _______ _______ _____ _____    ______ ____
ROOT
ATOM      1  C   UNL     1       3.976   5.741  17.536  0.00  0.00    +0.000 A 
ATOM      2  N   UNL     1       4.211   4.587  16.947  0.00  0.00    +0.000 NA
ATOM      3  C   UNL     1       3.242   3.754  17.410  0.00  0.00    +0.000 A 
ATOM      4  C   UNL     1       3.092   2.376  17.228  0.00  0.00    +0.000 A 
ATOM      5  C   UNL     1       2.054   1.745  17.910  0.00  0.00    +0.000 A 
ATOM      6  C   UNL     1       1.188   2.522  18.665  0.00  0.00    +0.000 A 
ATOM      7  N   UNL     1       1.254   3.871  18.817  0.00  0.00    +0.000 NA
ATOM      8  C   UNL     1       2.339   4.427  18.227  0.00  0.00    +0.000 A 
ATOM      9  N   UNL     1       2.813   5.743  18.323  0.00  0.00    +0.000 N 
ENDROOT
BRANCH   9  10
ATOM     10  C   UNL     1       2.266   6.802  19.145  0.00  0.00    +0.000 A 
ATOM     11  C   UNL     1       1.982   6.580  20.526  0.00  0.00    +0.000 A 
ATOM     12  C   UNL     1       2.230   5.317  21.317  0.00  0.00    +0.000 C 
ATOM     13  C   UNL     1       1.428   7.621  21.306  0.00  0.00    +0.000 A 
ATOM     14  C   UNL     1       1.222   8.894  20.793  0.00  0.00    +0.000 A 
ATOM     15  C   UNL     1       0.676  10.000  21.646  0.00  0.00    +0.000 C 
ATOM     16  C   UNL     1       1.526   9.123  19.456  0.00  0.00    +0.000 A 
ATOM     17  C   UNL     1       1.991   8.094  18.605  0.00  0.00    +0.000 A 
ATOM     18  C   UNL     1       2.084   8.501  17.153  0.00  0.00    +0.000 C 
ENDBRANCH   9  10
BRANCH   1  19
ATOM     19  S   UNL     1       5.188   6.991  17.536  0.00  0.00    +0.000 S 
BRANCH  19  20
ATOM     20  C   UNL     1       6.735   6.101  17.983  0.00  0.00    +0.000 C 
ATOM     21  C   UNL     1       6.439   5.298  19.255  0.00  0.00    +0.000 C 
ATOM     22  C   UNL     1       7.808   7.164  18.282  0.00  0.00    +0.000 C 
BRANCH  20  23
ATOM     23  C   UNL     1       7.292   5.251  16.826  0.00  0.00    +0.000 C 
ATOM     24  O   UNL     1       7.938   4.221  16.948  0.00  0.00    +0.000 OA
BRANCH  23  25
ATOM     25  O   UNL     1       6.837   5.737  15.630  0.00  0.00    +0.000 OA
BRANCH  25  27
ATOM     26  C   UNL     1       5.963   4.084  14.099  0.00  0.00    +0.000 C 
ATOM     27  C   UNL     1       7.139   4.973  14.454  0.00  0.00    +0.000 C 
ENDBRANCH  25  27
ENDBRANCH  23  25
ENDBRANCH  20  23
ENDBRANCH  19  20
ENDBRANCH   1  19
TORSDOF 6
ENDMDL
MODEL 3
REMARK VINA RESULT:      -7.2      0.987      1.178
REMARK  Name = 
REMARK  12 active torsions:
REMARK  status: ('A' for Active; 'I' for Inactive)
REMARK    1  A    between atoms: C_1  and  C_2
REMARK    2  A    between atoms: C_2  and  O_3
REMARK    3  A    between atoms: O_3  and  C_4
REMARK    4  A    between atoms: C_4  and  C_6
REMARK    5  A    between atoms: C_6  and  C_7
REMARK    6  A    between atoms: C_6  and  C_8
REMARK    7  A    between atoms: C_6  and  S_9
REMARK    8  A    between atoms: S_9  and  C_10
REMARK    9  A    between atoms: N_18  and  C_19
REMARK   10  A    between atoms: C_20  and  C_21
REMARK   11  A    between atoms: C_23  and  C_24
REMARK   12  A    between atoms: C_26  and  C_27
REMARK                            x       y       z     vdW  Elec       q    Type
REMARK                         _______ _______ _______ _____ _____    ______ ____
ROOT
ATOM      1  C   UNL     1       4.458   5.006  18.517  0.00  0.00    +0.000 A 
ATOM      2  N   UNL     1       4.694   3.768  18.136  0.00  0.00    +0.000 NA
ATOM      3  C   UNL     1       3.492   3.140  18.225  0.00  0.00    +0.000 A 
ATOM      4  C   UNL     1       3.183   1.784  18.078  0.00  0.00    +0.000 A 
ATOM      5  C   UNL     1       1.871   1.391  18.329  0.00  0.00    +0.000 A 
ATOM      6  C   UNL     1       0.933   2.367  18.634  0.00  0.00    +0.000 A 
ATOM      7  N   UNL     1       1.172   3.703  18.721  0.00  0.00    +0.000 NA
ATOM      8  C   UNL     1       2.480   4.026  18.578  0.00  0.00    +0.000 A 
ATOM      9  N   UNL     1       3.104   5.265  18.778  0.00  0.00    +0.000 N 
ENDROOT
BRANCH   9  10
ATOM     10  C   UNL     1       2.480   6.483  19.254  0.00  0.00    +0.000 A 
ATOM     11  C   UNL     1       2.437   7.649  18.432  0.00  0.00    +0.000 A 
ATOM     12  C   UNL     1       2.950   7.788  17.018  0.00  0.00    +0.000 C 
ATOM     13  C   UNL     1       1.843   8.834  18.925  0.00  0.00    +0.000 A 
ATOM     14  C   UNL     1       1.218   8.883  20.163  0.00  0.00    +0.000 A 
ATOM     15  C   UNL     1       0.553  10.135  20.652  0.00  0.00    +0.000 C 
ATOM     16  C   UNL     1       1.232   7.740  20.954  0.00  0.00    +0.000 A 
ATOM     17  C   UNL     1       1.895   6.557  20.553  0.00  0.00    +0.000 A 
ATOM     18  C   UNL     1       1.951   5.498  21.629  0.00  0.00    +0.000 C 
ENDBRANCH   9  10
BRANCH   1  19
ATOM     19  S   UNL     1       5.778   6.067  18.924  0.00  0.00    +0.000 S 
BRANCH  19  20
ATOM     20  C   UNL     1       6.931   5.897  17.499  0.00  0.00    +0.000 C 
ATOM     21  C   UNL     1       7.863   4.722  17.813  0.00  0.00    +0.000 C 
ATOM     22  C   UNL     1       7.751   7.197  17.413  0.00  0.00    +0.000 C 
BRANCH  20  23
ATOM     23  C   UNL     1       6.200   5.768  16.150  0.00  0.00    +0.000 C 
ATOM     24  O   UNL     1       5.499   6.628  15.636  0.00  0.00    +0.000 OA
BRANCH  23  25
ATOM     25  O   UNL     1       6.562   4.602  15.533  0.00  0.00    +0.000 OA
BRANCH  25  27
ATOM     26  C   UNL     1       5.937   3.791  13.344  0.00  0.00    +0.000 C 
ATOM     27  C   UNL     1       6.884   4.671  14.137  0.00  0.00    +0.000 C 
ENDBRANCH  25  27
ENDBRANCH  23  25
ENDBRANCH  20  23
ENDBRANCH  19  20
ENDBRANCH   1  19
TORSDOF 6
ENDMDL
MODEL 4
REMARK VINA RESULT:      -7.2      0.920      1.164
REMARK  Name = 
REMARK  12 active torsions:
REMARK  status: ('A' for Active; 'I' for Inactive)
REMARK    1  A    between atoms: C_1  and  C_2
REMARK    2  A    between atoms: C_2  and  O_3
REMARK    3  A    between atoms: O_3  and  C_4
REMARK    4  A    between atoms: C_4  and  C_6
REMARK    5  A    between atoms: C_6  and  C_7
REMARK    6  A    between atoms: C_6  and  C_8
REMARK    7  A    between atoms: C_6  and  S_9
REMARK    8  A    between atoms: S_9  and  C_10
REMARK    9  A    between atoms: N_18  and  C_19
REMARK   10  A    between atoms: C_20  and  C_21
REMARK   11  A    between atoms: C_23  and  C_24
REMARK   12  A    between atoms: C_26  and  C_27
REMARK                            x       y       z     vdW  Elec       q    Type
REMARK                         _______ _______ _______ _____ _____    ______ ____
ROOT
ATOM      1  C   UNL     1       4.517   4.999  18.477  0.00  0.00    +0.000 A 
ATOM      2  N   UNL     1       4.751   3.770  18.071  0.00  0.00    +0.000 NA
ATOM      3  C   UNL     1       3.550   3.140  18.152  0.00  0.00    +0.000 A 
ATOM      4  C   UNL     1       3.240   1.787  17.979  0.00  0.00    +0.000 A 
ATOM      5  C   UNL     1       1.929   1.390  18.226  0.00  0.00    +0.000 A 
ATOM      6  C   UNL     1       0.992   2.359  18.554  0.00  0.00    +0.000 A 
ATOM      7  N   UNL     1       1.231   3.693  18.668  0.00  0.00    +0.000 NA
ATOM      8  C   UNL     1       2.539   4.019  18.526  0.00  0.00    +0.000 A 
ATOM      9  N   UNL     1       3.164   5.254  18.749  0.00  0.00    +0.000 N 
ENDROOT
BRANCH   9  10
ATOM     10  C   UNL     1       2.542   6.461  19.252  0.00  0.00    +0.000 A 
ATOM     11  C   UNL     1       2.477   7.637  18.445  0.00  0.00    +0.000 A 
ATOM     12  C   UNL     1       2.962   7.797  17.024  0.00  0.00    +0.000 C 
ATOM     13  C   UNL     1       1.885   8.812  18.964  0.00  0.00    +0.000 A 
ATOM     14  C   UNL     1       1.284   8.843  20.215  0.00  0.00    +0.000 A 
ATOM     15  C   UNL     1       0.620  10.084  20.731  0.00  0.00    +0.000 C 
ATOM     16  C   UNL     1       1.319   7.690  20.991  0.00  0.00    +0.000 A 
ATOM     17  C   UNL     1       1.981   6.516  20.563  0.00  0.00    +0.000 A 
ATOM     18  C   UNL     1       2.064   5.443  21.624  0.00  0.00    +0.000 C 
ENDBRANCH   9  10
BRANCH   1  19
ATOM     19  S   UNL     1       5.839   6.052  18.901  0.00  0.00    +0.000 S 
BRANCH  19  20
ATOM     20  C   UNL     1       6.686   6.358  17.295  0.00  0.00    +0.000 C 
ATOM     21  C   UNL     1       7.564   7.601  17.481  0.00  0.00    +0.000 C 
ATOM     22  C   UNL     1       5.595   6.648  16.248  0.00  0.00    +0.000 C 
BRANCH  20  23
ATOM     23  C   UNL     1       7.452   5.127  16.778  0.00  0.00    +0.000 C 
ATOM     24  O   UNL     1       8.079   4.338  17.470  0.00  0.00    +0.000 OA
BRANCH  23  25
ATOM     25  O   UNL     1       7.211   4.955  15.442  0.00  0.00    +0.000 OA
BRANCH  25  27
ATOM     26  C   UNL     1       5.907   3.936  13.681  0.00  0.00    +0.000 C 
ATOM     27  C   UNL     1       6.542   3.750  15.045  0.00  0.00    +0.000 C 
ENDBRANCH  25  27
ENDBRANCH  23  25
ENDBRANCH  20  23
ENDBRANCH  19  20
ENDBRANCH   1  19
TORSDOF 6
ENDMDL
MODEL 5
REMARK VINA RESULT:      -7.2      1.024      2.067
REMARK  Name = 
REMARK  12 active torsions:
REMARK  status: ('A' for Active; 'I' for Inactive)
REMARK    1  A    between atoms: C_1  and  C_2
REMARK    2  A    between atoms: C_2  and  O_3
REMARK    3  A    between atoms: O_3  and  C_4
REMARK    4  A    between atoms: C_4  and  C_6
REMARK    5  A    between atoms: C_6  and  C_7
REMARK    6  A    between atoms: C_6  and  C_8
REMARK    7  A    between atoms: C_6  and  S_9
REMARK    8  A    between atoms: S_9  and  C_10
REMARK    9  A    between atoms: N_18  and  C_19
REMARK   10  A    between atoms: C_20  and  C_21
REMARK   11  A    between atoms: C_23  and  C_24
REMARK   12  A    between atoms: C_26  and  C_27
REMARK                            x       y       z     vdW  Elec       q    Type
REMARK                         _______ _______ _______ _____ _____    ______ ____
ROOT
ATOM      1  C   UNL     1       4.449   5.017  18.507  0.00  0.00    +0.000 A 
ATOM      2  N   UNL     1       4.691   3.785  18.111  0.00  0.00    +0.000 NA
ATOM      3  C   UNL     1       3.493   3.148  18.195  0.00  0.00    +0.000 A 
ATOM      4  C   UNL     1       3.192   1.793  18.032  0.00  0.00    +0.000 A 
ATOM      5  C   UNL     1       1.883   1.389  18.280  0.00  0.00    +0.000 A 
ATOM      6  C   UNL     1       0.939   2.355  18.599  0.00  0.00    +0.000 A 
ATOM      7  N   UNL     1       1.170   3.691  18.702  0.00  0.00    +0.000 NA
ATOM      8  C   UNL     1       2.476   4.024  18.560  0.00  0.00    +0.000 A 
ATOM      9  N   UNL     1       3.093   5.265  18.774  0.00  0.00    +0.000 N 
ENDROOT
BRANCH   9  10
ATOM     10  C   UNL     1       2.463   6.472  19.266  0.00  0.00    +0.000 A 
ATOM     11  C   UNL     1       1.863   6.505  20.561  0.00  0.00    +0.000 A 
ATOM     12  C   UNL     1       1.830   5.391  21.580  0.00  0.00    +0.000 C 
ATOM     13  C   UNL     1       1.234   7.688  21.014  0.00  0.00    +0.000 A 
ATOM     14  C   UNL     1       1.248   8.860  20.270  0.00  0.00    +0.000 A 
ATOM     15  C   UNL     1       0.615  10.118  20.784  0.00  0.00    +0.000 C 
ATOM     16  C   UNL     1       1.857   8.839  19.020  0.00  0.00    +0.000 A 
ATOM     17  C   UNL     1       2.417   7.660  18.476  0.00  0.00    +0.000 A 
ATOM     18  C   UNL     1       2.860   7.804  17.039  0.00  0.00    +0.000 C 
ENDBRANCH   9  10
BRANCH   1  19
ATOM     19  S   UNL     1       5.763   6.081  18.924  0.00  0.00    +0.000 S 
BRANCH  19  20
ATOM     20  C   UNL     1       6.924   5.919  17.505  0.00  0.00    +0.000 C 
ATOM     21  C   UNL     1       7.816   4.706  17.791  0.00  0.00    +0.000 C 
ATOM     22  C   UNL     1       7.784   7.195  17.466  0.00  0.00    +0.000 C 
BRANCH  20  23
ATOM     23  C   UNL     1       6.202   5.854  16.146  0.00  0.00    +0.000 C 
ATOM     24  O   UNL     1       5.504   6.737  15.670  0.00  0.00    +0.000 OA
BRANCH  23  25
ATOM     25  O   UNL     1       6.571   4.719  15.476  0.00  0.00    +0.000 OA
BRANCH  25  27
ATOM     26  C   UNL     1       6.195   3.784  13.280  0.00  0.00    +0.000 C 
ATOM     27  C   UNL     1       5.587   4.107  14.631  0.00  0.00    +0.000 C 
ENDBRANCH  25  27
ENDBRANCH  23  25
ENDBRANCH  20  23
ENDBRANCH  19  20
ENDBRANCH   1  19
TORSDOF 6
ENDMDL
MODEL 6
REMARK VINA RESULT:      -7.1      0.854      2.020
REMARK  Name = 
REMARK  12 active torsions:
REMARK  status: ('A' for Active; 'I' for Inactive)
REMARK    1  A    between atoms: C_1  and  C_2
REMARK    2  A    between atoms: C_2  and  O_3
REMARK    3  A    between atoms: O_3  and  C_4
REMARK    4  A    between atoms: C_4  and  C_6
REMARK    5  A    between atoms: C_6  and  C_7
REMARK    6  A    between atoms: C_6  and  C_8
REMARK    7  A    between atoms: C_6  and  S_9
REMARK    8  A    between atoms: S_9  and  C_10
REMARK    9  A    between atoms: N_18  and  C_19
REMARK   10  A    between atoms: C_20  and  C_21
REMARK   11  A    between atoms: C_23  and  C_24
REMARK   12  A    between atoms: C_26  and  C_27
REMARK                            x       y       z     vdW  Elec       q    Type
REMARK                         _______ _______ _______ _____ _____    ______ ____
ROOT
ATOM      1  C   UNL     1       4.501   5.053  18.446  0.00  0.00    +0.000 A 
ATOM      2  N   UNL     1       4.744   3.839  17.997  0.00  0.00    +0.000 NA
ATOM      3  C   UNL     1       3.552   3.191  18.077  0.00  0.00    +0.000 A 
ATOM      4  C   UNL     1       3.257   1.841  17.866  0.00  0.00    +0.000 A 
ATOM      5  C   UNL     1       1.954   1.418  18.121  0.00  0.00    +0.000 A 
ATOM      6  C   UNL     1       1.011   2.364  18.494  0.00  0.00    +0.000 A 
ATOM      7  N   UNL     1       1.235   3.697  18.647  0.00  0.00    +0.000 NA
ATOM      8  C   UNL     1       2.536   4.045  18.494  0.00  0.00    +0.000 A 
ATOM      9  N   UNL     1       3.149   5.280  18.746  0.00  0.00    +0.000 N 
ENDROOT
BRANCH   9  10
ATOM     10  C   UNL     1       2.520   6.463  19.297  0.00  0.00    +0.000 A 
ATOM     11  C   UNL     1       1.992   6.456  20.623  0.00  0.00    +0.000 A 
ATOM     12  C   UNL     1       2.039   5.322  21.619  0.00  0.00    +0.000 C 
ATOM     13  C   UNL     1       1.362   7.615  21.134  0.00  0.00    +0.000 A 
ATOM     14  C   UNL     1       1.309   8.801  20.414  0.00  0.00    +0.000 A 
ATOM     15  C   UNL     1       0.678  10.034  20.988  0.00  0.00    +0.000 C 
ATOM     16  C   UNL     1       1.849   8.819  19.133  0.00  0.00    +0.000 A 
ATOM     17  C   UNL     1       2.404   7.664  18.536  0.00  0.00    +0.000 A 
ATOM     18  C   UNL     1       2.765   7.846  17.080  0.00  0.00    +0.000 C 
ENDBRANCH   9  10
BRANCH   1  19
ATOM     19  S   UNL     1       5.816   6.109  18.881  0.00  0.00    +0.000 S 
BRANCH  19  20
ATOM     20  C   UNL     1       6.557   6.574  17.262  0.00  0.00    +0.000 C 
ATOM     21  C   UNL     1       7.405   7.829  17.501  0.00  0.00    +0.000 C 
ATOM     22  C   UNL     1       5.399   6.908  16.305  0.00  0.00    +0.000 C 
BRANCH  20  23
ATOM     23  C   UNL     1       7.331   5.417  16.604  0.00  0.00    +0.000 C 
ATOM     24  O   UNL     1       7.835   4.473  17.193  0.00  0.00    +0.000 OA
BRANCH  23  25
ATOM     25  O   UNL     1       7.251   5.519  15.241  0.00  0.00    +0.000 OA
BRANCH  25  27
ATOM     26  C   UNL     1       5.579   4.145  14.165  0.00  0.00    +0.000 C 
ATOM     27  C   UNL     1       7.049   4.305  14.503  0.00  0.00    +0.000 C 
ENDBRANCH  25  27
ENDBRANCH  23  25
ENDBRANCH  20  23
ENDBRANCH  19  20
ENDBRANCH   1  19
TORSDOF 6
ENDMDL
MODEL 7
REMARK VINA RESULT:      -7.0      1.599      2.643
REMARK  Name = 
REMARK  12 active torsions:
REMARK  status: ('A' for Active; 'I' for Inactive)
REMARK    1  A    between atoms: C_1  and  C_2
REMARK    2  A    between atoms: C_2  and  O_3
REMARK    3  A    between atoms: O_3  and  C_4
REMARK    4  A    between atoms: C_4  and  C_6
REMARK    5  A    between atoms: C_6  and  C_7
REMARK    6  A    between atoms: C_6  and  C_8
REMARK    7  A    between atoms: C_6  and  S_9
REMARK    8  A    between atoms: S_9  and  C_10
REMARK    9  A    between atoms: N_18  and  C_19
REMARK   10  A    between atoms: C_20  and  C_21
REMARK   11  A    between atoms: C_23  and  C_24
REMARK   12  A    between atoms: C_26  and  C_27
REMARK                            x       y       z     vdW  Elec       q    Type
REMARK                         _______ _______ _______ _____ _____    ______ ____
ROOT
ATOM      1  C   UNL     1       4.636   4.609  18.870  0.00  0.00    +0.000 A 
ATOM      2  N   UNL     1       4.689   3.294  18.890  0.00  0.00    +0.000 NA
ATOM      3  C   UNL     1       3.394   2.890  18.824  0.00  0.00    +0.000 A 
ATOM      4  C   UNL     1       2.854   1.606  18.952  0.00  0.00    +0.000 A 
ATOM      5  C   UNL     1       1.466   1.487  18.948  0.00  0.00    +0.000 A 
ATOM      6  C   UNL     1       0.703   2.628  18.743  0.00  0.00    +0.000 A 
ATOM      7  N   UNL     1       1.184   3.884  18.547  0.00  0.00    +0.000 NA
ATOM      8  C   UNL     1       2.531   3.970  18.667  0.00  0.00    +0.000 A 
ATOM      9  N   UNL     1       3.338   5.116  18.699  0.00  0.00    +0.000 N 
ENDROOT
BRANCH   9  10
ATOM     10  C   UNL     1       2.889   6.492  18.673  0.00  0.00    +0.000 A 
ATOM     11  C   UNL     1       3.288   7.369  17.620  0.00  0.00    +0.000 A 
ATOM     12  C   UNL     1       4.138   7.026  16.419  0.00  0.00    +0.000 C 
ATOM     13  C   UNL     1       2.856   8.716  17.625  0.00  0.00    +0.000 A 
ATOM     14  C   UNL     1       1.980   9.203  18.585  0.00  0.00    +0.000 A 
ATOM     15  C   UNL     1       1.496  10.622  18.551  0.00  0.00    +0.000 C 
ATOM     16  C   UNL     1       1.566   8.344  19.596  0.00  0.00    +0.000 A 
ATOM     17  C   UNL     1       2.042   7.016  19.695  0.00  0.00    +0.000 A 
ATOM     18  C   UNL     1       1.618   6.311  20.963  0.00  0.00    +0.000 C 
ENDBRANCH   9  10
BRANCH   1  19
ATOM     19  S   UNL     1       6.029   5.553  19.319  0.00  0.00    +0.000 S 
BRANCH  19  20
ATOM     20  C   UNL     1       7.183   5.330  17.903  0.00  0.00    +0.000 C 
ATOM     21  C   UNL     1       6.485   4.410  16.896  0.00  0.00    +0.000 C 
ATOM     22  C   UNL     1       8.448   4.638  18.444  0.00  0.00    +0.000 C 
BRANCH  20  23
ATOM     23  C   UNL     1       7.657   6.666  17.301  0.00  0.00    +0.000 C 
ATOM     24  O   UNL     1       7.835   6.886  16.112  0.00  0.00    +0.000 OA
BRANCH  23  25
ATOM     25  O   UNL     1       7.713   7.623  18.278  0.00  0.00    +0.000 OA
BRANCH  25  27
ATOM     26  C   UNL     1       8.993   9.609  18.785  0.00  0.00    +0.000 C 
ATOM     27  C   UNL     1       7.973   8.971  17.861  0.00  0.00    +0.000 C 
ENDBRANCH  25  27
ENDBRANCH  23  25
ENDBRANCH  20  23
ENDBRANCH  19  20
ENDBRANCH   1  19
TORSDOF 6
ENDMDL
MODEL 8
REMARK VINA RESULT:      -6.9      6.313      9.637
REMARK  Name = 
REMARK  12 active torsions:
REMARK  status: ('A' for Active; 'I' for Inactive)
REMARK    1  A    between atoms: C_1  and  C_2
REMARK    2  A    between atoms: C_2  and  O_3
REMARK    3  A    between atoms: O_3  and  C_4
REMARK    4  A    between atoms: C_4  and  C_6
REMARK    5  A    between atoms: C_6  and  C_7
REMARK    6  A    between atoms: C_6  and  C_8
REMARK    7  A    between atoms: C_6  and  S_9
REMARK    8  A    between atoms: S_9  and  C_10
REMARK    9  A    between atoms: N_18  and  C_19
REMARK   10  A    between atoms: C_20  and  C_21
REMARK   11  A    between atoms: C_23  and  C_24
REMARK   12  A    between atoms: C_26  and  C_27
REMARK                            x       y       z     vdW  Elec       q    Type
REMARK                         _______ _______ _______ _____ _____    ______ ____
ROOT
ATOM      1  C   UNL     1      -0.956  12.821  20.180  0.00  0.00    +0.000 A 
ATOM      2  N   UNL     1      -0.939  14.135  20.255  0.00  0.00    +0.000 NA
ATOM      3  C   UNL     1       0.318  14.445  20.669  0.00  0.00    +0.000 A 
ATOM      4  C   UNL     1       0.850  15.681  21.050  0.00  0.00    +0.000 A 
ATOM      5  C   UNL     1       2.154  15.698  21.538  0.00  0.00    +0.000 A 
ATOM      6  C   UNL     1       2.874  14.513  21.549  0.00  0.00    +0.000 A 
ATOM      7  N   UNL     1       2.423  13.302  21.126  0.00  0.00    +0.000 NA
ATOM      8  C   UNL     1       1.117  13.311  20.763  0.00  0.00    +0.000 A 
ATOM      9  N   UNL     1       0.288  12.226  20.446  0.00  0.00    +0.000 N 
ENDROOT
BRANCH   9  10
ATOM     10  C   UNL     1       0.638  10.822  20.501  0.00  0.00    +0.000 A 
ATOM     11  C   UNL     1       0.302  10.032  21.641  0.00  0.00    +0.000 A 
ATOM     12  C   UNL     1      -0.462  10.476  22.866  0.00  0.00    +0.000 C 
ATOM     13  C   UNL     1       0.673   8.668  21.684  0.00  0.00    +0.000 A 
ATOM     14  C   UNL     1       1.288   8.039  20.611  0.00  0.00    +0.000 A 
ATOM     15  C   UNL     1       1.635   6.581  20.655  0.00  0.00    +0.000 C 
ATOM     16  C   UNL     1       1.591   8.799  19.487  0.00  0.00    +0.000 A 
ATOM     17  C   UNL     1       1.331  10.188  19.427  0.00  0.00    +0.000 A 
ATOM     18  C   UNL     1       1.901  10.861  18.200  0.00  0.00    +0.000 C 
ENDBRANCH   9  10
BRANCH   1  19
ATOM     19  S   UNL     1      -2.469  11.967  20.060  0.00  0.00    +0.000 S 
BRANCH  19  20
ATOM     20  C   UNL     1      -2.469  11.316  18.338  0.00  0.00    +0.000 C 
ATOM     21  C   UNL     1      -1.965   9.870  18.405  0.00  0.00    +0.000 C 
ATOM     22  C   UNL     1      -1.479  12.170  17.524  0.00  0.00    +0.000 C 
BRANCH  20  23
ATOM     23  C   UNL     1      -3.833  11.469  17.640  0.00  0.00    +0.000 C 
ATOM     24  O   UNL     1      -4.914  11.546  18.204  0.00  0.00    +0.000 OA
BRANCH  23  25
ATOM     25  O   UNL     1      -3.651  11.652  16.296  0.00  0.00    +0.000 OA
BRANCH  25  27
ATOM     26  C   UNL     1      -2.825  10.032  14.704  0.00  0.00    +0.000 C 
ATOM     27  C   UNL     1      -4.040  10.578  15.429  0.00  0.00    +0.000 C 
ENDBRANCH  25  27
ENDBRANCH  23  25
ENDBRANCH  20  23
ENDBRANCH  19  20
ENDBRANCH   1  19
TORSDOF 6
ENDMDL
MODEL 9
REMARK VINA RESULT:      -6.7      6.428     10.118
REMARK  Name = 
REMARK  12 active torsions:
REMARK  status: ('A' for Active; 'I' for Inactive)
REMARK    1  A    between atoms: C_1  and  C_2
REMARK    2  A    between atoms: C_2  and  O_3
REMARK    3  A    between atoms: O_3  and  C_4
REMARK    4  A    between atoms: C_4  and  C_6
REMARK    5  A    between atoms: C_6  and  C_7
REMARK    6  A    between atoms: C_6  and  C_8
REMARK    7  A    between atoms: C_6  and  S_9
REMARK    8  A    between atoms: S_9  and  C_10
REMARK    9  A    between atoms: N_18  and  C_19
REMARK   10  A    between atoms: C_20  and  C_21
REMARK   11  A    between atoms: C_23  and  C_24
REMARK   12  A    between atoms: C_26  and  C_27
REMARK                            x       y       z     vdW  Elec       q    Type
REMARK                         _______ _______ _______ _____ _____    ______ ____
ROOT
ATOM      1  C   UNL     1      -1.211  12.828  20.018  0.00  0.00    +0.000 A 
ATOM      2  N   UNL     1      -1.252  14.142  20.071  0.00  0.00    +0.000 NA
ATOM      3  C   UNL     1      -0.053  14.509  20.594  0.00  0.00    +0.000 A 
ATOM      4  C   UNL     1       0.393  15.770  21.001  0.00  0.00    +0.000 A 
ATOM      5  C   UNL     1       1.644  15.847  21.607  0.00  0.00    +0.000 A 
ATOM      6  C   UNL     1       2.406  14.692  21.704  0.00  0.00    +0.000 A 
ATOM      7  N   UNL     1       2.044  13.458  21.263  0.00  0.00    +0.000 NA
ATOM      8  C   UNL     1       0.778  13.409  20.780  0.00  0.00    +0.000 A 
ATOM      9  N   UNL     1       0.024  12.288  20.407  0.00  0.00    +0.000 N 
ENDROOT
BRANCH   9  10
ATOM     10  C   UNL     1       0.423  10.900  20.519  0.00  0.00    +0.000 A 
ATOM     11  C   UNL     1       0.084  10.136  21.676  0.00  0.00    +0.000 A 
ATOM     12  C   UNL     1      -0.728  10.592  22.865  0.00  0.00    +0.000 C 
ATOM     13  C   UNL     1       0.502   8.788  21.774  0.00  0.00    +0.000 A 
ATOM     14  C   UNL     1       1.168   8.147  20.739  0.00  0.00    +0.000 A 
ATOM     15  C   UNL     1       1.565   6.705  20.842  0.00  0.00    +0.000 C 
ATOM     16  C   UNL     1       1.474   8.881  19.599  0.00  0.00    +0.000 A 
ATOM     17  C   UNL     1       1.166  10.256  19.485  0.00  0.00    +0.000 A 
ATOM     18  C   UNL     1       1.745  10.909  18.251  0.00  0.00    +0.000 C 
ENDBRANCH   9  10
BRANCH   1  19
ATOM     19  S   UNL     1      -2.672  11.911  19.773  0.00  0.00    +0.000 S 
BRANCH  19  20
ATOM     20  C   UNL     1      -2.528  11.314  18.038  0.00  0.00    +0.000 C 
ATOM     21  C   UNL     1      -2.075   9.851  18.104  0.00  0.00    +0.000 C 
ATOM     22  C   UNL     1      -1.443  12.160  17.349  0.00  0.00    +0.000 C 
BRANCH  20  23
ATOM     23  C   UNL     1      -3.816  11.531  17.222  0.00  0.00    +0.000 C 
ATOM     24  O   UNL     1      -4.017  11.118  16.089  0.00  0.00    +0.000 OA
BRANCH  23  25
ATOM     25  O   UNL     1      -4.766  12.132  18.001  0.00  0.00    +0.000 OA
BRANCH  25  27
ATOM     26  C   UNL     1      -7.105  11.642  18.359  0.00  0.00    +0.000 C 
ATOM     27  C   UNL     1      -6.079  12.277  17.441  0.00  0.00    +0.000 C 
ENDBRANCH  25  27
ENDBRANCH  23  25
ENDBRANCH  20  23
ENDBRANCH  19  20
ENDBRANCH   1  19
TORSDOF 6
ENDMDL
