MODEL 1
REMARK VINA RESULT:      -7.4      0.000      0.000
REMARK  Name = 
REMARK  7 active torsions:
REMARK  status: ('A' for Active; 'I' for Inactive)
REMARK    1  A    between atoms: C_1  and  N_2
REMARK    2  A    between atoms: N_2  and  S_3
REMARK    3  A    between atoms: S_3  and  C_6
REMARK    4  A    between atoms: C_9  and  C_10
REMARK    5  A    between atoms: C_10  and  N_11
REMARK    6  A    between atoms: C_12  and  C_14
REMARK    7  A    between atoms: C_16  and  C_17
REMARK                            x       y       z     vdW  Elec       q    Type
REMARK                         _______ _______ _______ _____ _____    ______ ____
ROOT
ATOM      1  C   UNL     1       2.966   4.751  19.708  0.00  0.00    +0.000 A 
ATOM      2  C   UNL     1       2.458   5.672  18.789  0.00  0.00    +0.000 A 
ATOM      3  C   UNL     1       3.337   6.381  17.965  0.00  0.00    +0.000 A 
ATOM      4  C   UNL     1       4.723   6.172  18.051  0.00  0.00    +0.000 A 
ATOM      5  C   UNL     1       5.219   5.282  19.015  0.00  0.00    +0.000 A 
ATOM      6  C   UNL     1       4.346   4.577  19.847  0.00  0.00    +0.000 A 
ENDROOT
BRANCH   1   7
ATOM      7  S   UNL     1       1.858   3.836  20.751  0.00  0.00    +0.000 S 
ATOM      8  O   UNL     1       0.530   4.385  20.586  0.00  0.00    +0.000 OA
ATOM      9  O   UNL     1       2.464   3.691  22.057  0.00  0.00    +0.000 OA
BRANCH   7  11
ATOM     10  C   UNL     1       1.019   2.162  18.805  0.00  0.00    +0.000 C 
ATOM     11  N   UNL     1       1.825   2.327  20.008  0.00  0.00    +0.000 NA
ATOM     12  H   UNL     1       2.736   1.870  20.039  0.00  0.00    +0.000 HD
ENDBRANCH   7  11
ENDBRANCH   1   7
BRANCH   4  13
ATOM     13  C   UNL     1       5.661   6.899  17.122  0.00  0.00    +0.000 C 
BRANCH  13  14
ATOM     14  N   UNL     1       5.787   6.235  15.851  0.00  0.00    +0.000 N 
ATOM     15  C   UNL     1       6.796   5.324  15.618  0.00  0.00    +0.000 C 
ATOM     16  O   UNL     1       7.627   5.040  16.479  0.00  0.00    +0.000 OA
ATOM     17  H   UNL     1       5.104   6.410  15.122  0.00  0.00    +0.000 HD
BRANCH  15  18
ATOM     18  C   UNL     1       6.789   4.734  14.301  0.00  0.00    +0.000 A 
ATOM     19  C   UNL     1       6.098   3.669  13.768  0.00  0.00    +0.000 A 
ATOM     20  C   UNL     1       6.530   3.601  12.425  0.00  0.00    +0.000 A 
ATOM     21  C   UNL     1       6.117   2.654  11.364  0.00  0.00    +0.000 C 
ATOM     22  N   UNL     1       7.429   4.555  12.156  0.00  0.00    +0.000 NA
ATOM     23  O   UNL     1       7.588   5.264  13.331  0.00  0.00    +0.000 OA
ENDBRANCH  15  18
ENDBRANCH  13  14
ENDBRANCH   4  13
TORSDOF 5
ENDMDL
MODEL 2
REMARK VINA RESULT:      -7.2      3.856      4.596
REMARK  Name = 
REMARK  7 active torsions:
REMARK  status: ('A' for Active; 'I' for Inactive)
REMARK    1  A    between atoms: C_1  and  N_2
REMARK    2  A    between atoms: N_2  and  S_3
REMARK    3  A    between atoms: S_3  and  C_6
REMARK    4  A    between atoms: C_9  and  C_10
REMARK    5  A    between atoms: C_10  and  N_11
REMARK    6  A    between atoms: C_12  and  C_14
REMARK    7  A    between atoms: C_16  and  C_17
REMARK                            x       y       z     vdW  Elec       q    Type
REMARK                         _______ _______ _______ _____ _____    ______ ____
ROOT
ATOM      1  C   UNL     1       1.374   9.039  18.947  0.00  0.00    +0.000 A 
ATOM      2  C   UNL     1       2.188   8.776  17.843  0.00  0.00    +0.000 A 
ATOM      3  C   UNL     1       2.997   7.636  17.839  0.00  0.00    +0.000 A 
ATOM      4  C   UNL     1       2.995   6.753  18.931  0.00  0.00    +0.000 A 
ATOM      5  C   UNL     1       2.211   7.060  20.053  0.00  0.00    +0.000 A 
ATOM      6  C   UNL     1       1.406   8.202  20.066  0.00  0.00    +0.000 A 
ENDROOT
BRANCH   1   7
ATOM      7  S   UNL     1       0.333  10.478  18.959  0.00  0.00    +0.000 S 
ATOM      8  O   UNL     1       1.144  11.621  18.602  0.00  0.00    +0.000 OA
ATOM      9  O   UNL     1      -0.469  10.460  20.162  0.00  0.00    +0.000 OA
BRANCH   7  11
ATOM     10  C   UNL     1      -1.956  10.900  17.587  0.00  0.00    +0.000 C 
ATOM     11  N   UNL     1      -0.676  10.204  17.641  0.00  0.00    +0.000 NA
ATOM     12  H   UNL     1      -0.148  10.107  16.774  0.00  0.00    +0.000 HD
ENDBRANCH   7  11
ENDBRANCH   1   7
BRANCH   4  13
ATOM     13  C   UNL     1       3.827   5.497  18.897  0.00  0.00    +0.000 C 
BRANCH  13  14
ATOM     14  N   UNL     1       4.407   5.267  17.599  0.00  0.00    +0.000 N 
ATOM     15  C   UNL     1       5.774   5.275  17.416  0.00  0.00    +0.000 C 
ATOM     16  O   UNL     1       6.553   5.478  18.346  0.00  0.00    +0.000 OA
ATOM     17  H   UNL     1       3.806   5.059  16.809  0.00  0.00    +0.000 HD
BRANCH  15  18
ATOM     18  C   UNL     1       6.207   5.022  16.063  0.00  0.00    +0.000 A 
ATOM     19  C   UNL     1       5.720   4.194  15.077  0.00  0.00    +0.000 A 
ATOM     20  C   UNL     1       6.583   4.403  13.979  0.00  0.00    +0.000 A 
ATOM     21  C   UNL     1       6.540   3.785  12.633  0.00  0.00    +0.000 C 
ATOM     22  N   UNL     1       7.538   5.292  14.275  0.00  0.00    +0.000 NA
ATOM     23  O   UNL     1       7.299   5.680  15.579  0.00  0.00    +0.000 OA
ENDBRANCH  15  18
ENDBRANCH  13  14
ENDBRANCH   4  13
TORSDOF 5
ENDMDL
MODEL 3
REMARK VINA RESULT:      -7.1      1.050      1.120
REMARK  Name = 
REMARK  7 active torsions:
REMARK  status: ('A' for Active; 'I' for Inactive)
REMARK    1  A    between atoms: C_1  and  N_2
REMARK    2  A    between atoms: N_2  and  S_3
REMARK    3  A    between atoms: S_3  and  C_6
REMARK    4  A    between atoms: C_9  and  C_10
REMARK    5  A    between atoms: C_10  and  N_11
REMARK    6  A    between atoms: C_12  and  C_14
REMARK    7  A    between atoms: C_16  and  C_17
REMARK                            x       y       z     vdW  Elec       q    Type
REMARK                         _______ _______ _______ _____ _____    ______ ____
ROOT
ATOM      1  C   UNL     1       3.240   4.187  20.005  0.00  0.00    +0.000 A 
ATOM      2  C   UNL     1       3.334   5.546  19.694  0.00  0.00    +0.000 A 
ATOM      3  C   UNL     1       4.464   6.025  19.025  0.00  0.00    +0.000 A 
ATOM      4  C   UNL     1       5.502   5.152  18.659  0.00  0.00    +0.000 A 
ATOM      5  C   UNL     1       5.415   3.800  19.025  0.00  0.00    +0.000 A 
ATOM      6  C   UNL     1       4.292   3.318  19.701  0.00  0.00    +0.000 A 
ENDROOT
BRANCH   1   7
ATOM      7  S   UNL     1       1.804   3.566  20.844  0.00  0.00    +0.000 S 
ATOM      8  O   UNL     1       0.712   4.485  20.604  0.00  0.00    +0.000 OA
ATOM      9  O   UNL     1       2.184   3.169  22.182  0.00  0.00    +0.000 OA
BRANCH   7  11
ATOM     10  C   UNL     1       0.827   2.338  18.645  0.00  0.00    +0.000 C 
ATOM     11  N   UNL     1       1.439   2.183  19.959  0.00  0.00    +0.000 NA
ATOM     12  H   UNL     1       2.152   1.463  20.073  0.00  0.00    +0.000 HD
ENDBRANCH   7  11
ENDBRANCH   1   7
BRANCH   4  13
ATOM     13  C   UNL     1       6.692   5.664  17.890  0.00  0.00    +0.000 C 
BRANCH  13  14
ATOM     14  N   UNL     1       6.806   5.046  16.594  0.00  0.00    +0.000 N 
ATOM     15  C   UNL     1       6.146   5.561  15.498  0.00  0.00    +0.000 C 
ATOM     16  O   UNL     1       5.436   6.562  15.577  0.00  0.00    +0.000 OA
ATOM     17  H   UNL     1       7.408   4.240  16.473  0.00  0.00    +0.000 HD
BRANCH  15  18
ATOM     18  C   UNL     1       6.361   4.839  14.267  0.00  0.00    +0.000 A 
ATOM     19  C   UNL     1       5.732   3.747  13.713  0.00  0.00    +0.000 A 
ATOM     20  C   UNL     1       6.410   3.527  12.493  0.00  0.00    +0.000 A 
ATOM     21  C   UNL     1       6.160   2.489  11.467  0.00  0.00    +0.000 C 
ATOM     22  N   UNL     1       7.391   4.420  12.316  0.00  0.00    +0.000 NA
ATOM     23  O   UNL     1       7.358   5.240  13.426  0.00  0.00    +0.000 OA
ENDBRANCH  15  18
ENDBRANCH  13  14
ENDBRANCH   4  13
TORSDOF 5
ENDMDL
MODEL 4
REMARK VINA RESULT:      -7.1      3.852      4.589
REMARK  Name = 
REMARK  7 active torsions:
REMARK  status: ('A' for Active; 'I' for Inactive)
REMARK    1  A    between atoms: C_1  and  N_2
REMARK    2  A    between atoms: N_2  and  S_3
REMARK    3  A    between atoms: S_3  and  C_6
REMARK    4  A    between atoms: C_9  and  C_10
REMARK    5  A    between atoms: C_10  and  N_11
REMARK    6  A    between atoms: C_12  and  C_14
REMARK    7  A    between atoms: C_16  and  C_17
REMARK                            x       y       z     vdW  Elec       q    Type
REMARK                         _______ _______ _______ _____ _____    ______ ____
ROOT
ATOM      1  C   UNL     1       1.513   8.903  19.651  0.00  0.00    +0.000 A 
ATOM      2  C   UNL     1       1.483   7.944  20.666  0.00  0.00    +0.000 A 
ATOM      3  C   UNL     1       2.054   6.688  20.445  0.00  0.00    +0.000 A 
ATOM      4  C   UNL     1       2.661   6.384  19.216  0.00  0.00    +0.000 A 
ATOM      5  C   UNL     1       2.636   7.341  18.190  0.00  0.00    +0.000 A 
ATOM      6  C   UNL     1       2.060   8.595  18.402  0.00  0.00    +0.000 A 
ENDROOT
BRANCH   1   7
ATOM      7  S   UNL     1       0.801  10.507  19.925  0.00  0.00    +0.000 S 
ATOM      8  O   UNL     1       1.254  11.385  18.868  0.00  0.00    +0.000 OA
ATOM      9  O   UNL     1       0.959  10.853  21.321  0.00  0.00    +0.000 OA
BRANCH   7  11
ATOM     10  C   UNL     1      -1.313  10.337  18.252  0.00  0.00    +0.000 C 
ATOM     11  N   UNL     1      -0.831  10.233  19.624  0.00  0.00    +0.000 NA
ATOM     12  H   UNL     1      -1.202   9.483  20.206  0.00  0.00    +0.000 HD
ENDBRANCH   7  11
ENDBRANCH   1   7
BRANCH   4  13
ATOM     13  C   UNL     1       3.324   5.047  19.003  0.00  0.00    +0.000 C 
BRANCH  13  14
ATOM     14  N   UNL     1       4.062   5.000  17.768  0.00  0.00    +0.000 N 
ATOM     15  C   UNL     1       5.405   4.684  17.750  0.00  0.00    +0.000 C 
ATOM     16  O   UNL     1       6.027   4.430  18.781  0.00  0.00    +0.000 OA
ATOM     17  H   UNL     1       3.584   5.166  16.890  0.00  0.00    +0.000 HD
BRANCH  15  18
ATOM     18  C   UNL     1       6.007   4.668  16.439  0.00  0.00    +0.000 A 
ATOM     19  C   UNL     1       5.607   4.112  15.245  0.00  0.00    +0.000 A 
ATOM     20  C   UNL     1       6.632   4.451  14.334  0.00  0.00    +0.000 A 
ATOM     21  C   UNL     1       6.737   4.128  12.893  0.00  0.00    +0.000 C 
ATOM     22  N   UNL     1       7.598   5.159  14.932  0.00  0.00    +0.000 NA
ATOM     23  O   UNL     1       7.203   5.295  16.249  0.00  0.00    +0.000 OA
ENDBRANCH  15  18
ENDBRANCH  13  14
ENDBRANCH   4  13
TORSDOF 5
ENDMDL
MODEL 5
REMARK VINA RESULT:      -7.0      0.331      1.106
REMARK  Name = 
REMARK  7 active torsions:
REMARK  status: ('A' for Active; 'I' for Inactive)
REMARK    1  A    between atoms: C_1  and  N_2
REMARK    2  A    between atoms: N_2  and  S_3
REMARK    3  A    between atoms: S_3  and  C_6
REMARK    4  A    between atoms: C_9  and  C_10
REMARK    5  A    between atoms: C_10  and  N_11
REMARK    6  A    between atoms: C_12  and  C_14
REMARK    7  A    between atoms: C_16  and  C_17
REMARK                            x       y       z     vdW  Elec       q    Type
REMARK                         _______ _______ _______ _____ _____    ______ ____
ROOT
ATOM      1  C   UNL     1       2.984   4.477  19.762  0.00  0.00    +0.000 A 
ATOM      2  C   UNL     1       4.342   4.162  19.846  0.00  0.00    +0.000 A 
ATOM      3  C   UNL     1       5.259   4.841  19.039  0.00  0.00    +0.000 A 
ATOM      4  C   UNL     1       4.828   5.839  18.150  0.00  0.00    +0.000 A 
ATOM      5  C   UNL     1       3.455   6.106  18.041  0.00  0.00    +0.000 A 
ATOM      6  C   UNL     1       2.533   5.425  18.839  0.00  0.00    +0.000 A 
ENDROOT
BRANCH   1   7
ATOM      7  S   UNL     1       1.811   3.629  20.792  0.00  0.00    +0.000 S 
ATOM      8  O   UNL     1       0.554   4.342  20.720  0.00  0.00    +0.000 OA
ATOM      9  O   UNL     1       2.441   3.324  22.058  0.00  0.00    +0.000 OA
BRANCH   7  11
ATOM     10  C   UNL     1       1.640   2.212  18.499  0.00  0.00    +0.000 C 
ATOM     11  N   UNL     1       1.569   2.191  19.954  0.00  0.00    +0.000 NA
ATOM     12  H   UNL     1       1.982   1.396  20.441  0.00  0.00    +0.000 HD
ENDBRANCH   7  11
ENDBRANCH   1   7
BRANCH   4  13
ATOM     13  C   UNL     1       5.827   6.605  17.323  0.00  0.00    +0.000 C 
BRANCH  13  14
ATOM     14  N   UNL     1       5.961   6.063  15.996  0.00  0.00    +0.000 N 
ATOM     15  C   UNL     1       6.911   5.106  15.708  0.00  0.00    +0.000 C 
ATOM     16  O   UNL     1       7.682   4.676  16.565  0.00  0.00    +0.000 OA
ATOM     17  H   UNL     1       5.324   6.360  15.265  0.00  0.00    +0.000 HD
BRANCH  15  18
ATOM     18  C   UNL     1       6.920   4.652  14.338  0.00  0.00    +0.000 A 
ATOM     19  C   UNL     1       6.359   3.556  13.724  0.00  0.00    +0.000 A 
ATOM     20  C   UNL     1       6.728   3.681  12.366  0.00  0.00    +0.000 A 
ATOM     21  C   UNL     1       6.398   2.792  11.229  0.00  0.00    +0.000 C 
ATOM     22  N   UNL     1       7.471   4.776  12.165  0.00  0.00    +0.000 NA
ATOM     23  O   UNL     1       7.588   5.383  13.400  0.00  0.00    +0.000 OA
ENDBRANCH  15  18
ENDBRANCH  13  14
ENDBRANCH   4  13
TORSDOF 5
ENDMDL
MODEL 6
REMARK VINA RESULT:      -7.0      4.323      5.366
REMARK  Name = 
REMARK  7 active torsions:
REMARK  status: ('A' for Active; 'I' for Inactive)
REMARK    1  A    between atoms: C_1  and  N_2
REMARK    2  A    between atoms: N_2  and  S_3
REMARK    3  A    between atoms: S_3  and  C_6
REMARK    4  A    between atoms: C_9  and  C_10
REMARK    5  A    between atoms: C_10  and  N_11
REMARK    6  A    between atoms: C_12  and  C_14
REMARK    7  A    between atoms: C_16  and  C_17
REMARK                            x       y       z     vdW  Elec       q    Type
REMARK                         _______ _______ _______ _____ _____    ______ ____
ROOT
ATOM      1  C   UNL     1       0.861   9.736  19.336  0.00  0.00    +0.000 A 
ATOM      2  C   UNL     1       1.623   9.290  18.254  0.00  0.00    +0.000 A 
ATOM      3  C   UNL     1       2.328   8.087  18.355  0.00  0.00    +0.000 A 
ATOM      4  C   UNL     1       2.271   7.322  19.531  0.00  0.00    +0.000 A 
ATOM      5  C   UNL     1       1.543   7.810  20.627  0.00  0.00    +0.000 A 
ATOM      6  C   UNL     1       0.844   9.016  20.534  0.00  0.00    +0.000 A 
ENDROOT
BRANCH   1   7
ATOM      7  S   UNL     1      -0.048  11.257  19.215  0.00  0.00    +0.000 S 
ATOM      8  O   UNL     1       0.899  12.329  18.998  0.00  0.00    +0.000 OA
ATOM      9  O   UNL     1      -1.019  11.304  20.286  0.00  0.00    +0.000 OA
BRANCH   7  11
ATOM     10  C   UNL     1      -1.955  10.102  17.690  0.00  0.00    +0.000 C 
ATOM     11  N   UNL     1      -0.869  11.072  17.759  0.00  0.00    +0.000 NA
ATOM     12  H   UNL     1      -0.992  11.962  17.278  0.00  0.00    +0.000 HD
ENDBRANCH   7  11
ENDBRANCH   1   7
BRANCH   4  13
ATOM     13  C   UNL     1       2.988   5.999  19.614  0.00  0.00    +0.000 C 
BRANCH  13  14
ATOM     14  N   UNL     1       3.923   5.821  18.534  0.00  0.00    +0.000 N 
ATOM     15  C   UNL     1       4.788   4.747  18.508  0.00  0.00    +0.000 C 
ATOM     16  O   UNL     1       4.800   3.900  19.400  0.00  0.00    +0.000 OA
ATOM     17  H   UNL     1       3.926   6.474  17.759  0.00  0.00    +0.000 HD
BRANCH  15  18
ATOM     18  C   UNL     1       5.661   4.698  17.359  0.00  0.00    +0.000 A 
ATOM     19  C   UNL     1       5.411   4.753  16.007  0.00  0.00    +0.000 A 
ATOM     20  C   UNL     1       6.686   4.658  15.406  0.00  0.00    +0.000 A 
ATOM     21  C   UNL     1       7.039   4.673  13.968  0.00  0.00    +0.000 C 
ATOM     22  N   UNL     1       7.650   4.546  16.329  0.00  0.00    +0.000 NA
ATOM     23  O   UNL     1       7.005   4.574  17.550  0.00  0.00    +0.000 OA
ENDBRANCH  15  18
ENDBRANCH  13  14
ENDBRANCH   4  13
TORSDOF 5
ENDMDL
MODEL 7
REMARK VINA RESULT:      -7.0      3.942      4.682
REMARK  Name = 
REMARK  7 active torsions:
REMARK  status: ('A' for Active; 'I' for Inactive)
REMARK    1  A    between atoms: C_1  and  N_2
REMARK    2  A    between atoms: N_2  and  S_3
REMARK    3  A    between atoms: S_3  and  C_6
REMARK    4  A    between atoms: C_9  and  C_10
REMARK    5  A    between atoms: C_10  and  N_11
REMARK    6  A    between atoms: C_12  and  C_14
REMARK    7  A    between atoms: C_16  and  C_17
REMARK                            x       y       z     vdW  Elec       q    Type
REMARK                         _______ _______ _______ _____ _____    ______ ____
ROOT
ATOM      1  C   UNL     1       1.475   8.982  19.170  0.00  0.00    +0.000 A 
ATOM      2  C   UNL     1       2.062   8.611  17.958  0.00  0.00    +0.000 A 
ATOM      3  C   UNL     1       2.707   7.375  17.853  0.00  0.00    +0.000 A 
ATOM      4  C   UNL     1       2.765   6.503  18.952  0.00  0.00    +0.000 A 
ATOM      5  C   UNL     1       2.217   6.914  20.177  0.00  0.00    +0.000 A 
ATOM      6  C   UNL     1       1.578   8.152  20.290  0.00  0.00    +0.000 A 
ENDROOT
BRANCH   1   7
ATOM      7  S   UNL     1       0.644  10.545  19.311  0.00  0.00    +0.000 S 
ATOM      8  O   UNL     1      -0.763  10.329  19.048  0.00  0.00    +0.000 OA
ATOM      9  O   UNL     1       1.407  11.544  18.596  0.00  0.00    +0.000 OA
BRANCH   7  11
ATOM     10  C   UNL     1      -0.395  11.455  21.633  0.00  0.00    +0.000 C 
ATOM     11  N   UNL     1       0.756  10.866  20.959  0.00  0.00    +0.000 NA
ATOM     12  H   UNL     1       1.279  10.142  21.450  0.00  0.00    +0.000 HD
ENDBRANCH   7  11
ENDBRANCH   1   7
BRANCH   4  13
ATOM     13  C   UNL     1       3.413   5.150  18.817  0.00  0.00    +0.000 C 
BRANCH  13  14
ATOM     14  N   UNL     1       4.111   5.006  17.566  0.00  0.00    +0.000 N 
ATOM     15  C   UNL     1       5.478   5.175  17.488  0.00  0.00    +0.000 C 
ATOM     16  O   UNL     1       6.156   5.454  18.475  0.00  0.00    +0.000 OA
ATOM     17  H   UNL     1       3.599   4.741  16.732  0.00  0.00    +0.000 HD
BRANCH  15  18
ATOM     18  C   UNL     1       6.037   4.992  16.170  0.00  0.00    +0.000 A 
ATOM     19  C   UNL     1       5.639   4.231  15.095  0.00  0.00    +0.000 A 
ATOM     20  C   UNL     1       6.608   4.487  14.099  0.00  0.00    +0.000 A 
ATOM     21  C   UNL     1       6.689   3.949  12.722  0.00  0.00    +0.000 C 
ATOM     22  N   UNL     1       7.540   5.342  14.539  0.00  0.00    +0.000 NA
ATOM     23  O   UNL     1       7.179   5.657  15.834  0.00  0.00    +0.000 OA
ENDBRANCH  15  18
ENDBRANCH  13  14
ENDBRANCH   4  13
TORSDOF 5
ENDMDL
MODEL 8
REMARK VINA RESULT:      -7.0      3.446      4.162
REMARK  Name = 
REMARK  7 active torsions:
REMARK  status: ('A' for Active; 'I' for Inactive)
REMARK    1  A    between atoms: C_1  and  N_2
REMARK    2  A    between atoms: N_2  and  S_3
REMARK    3  A    between atoms: S_3  and  C_6
REMARK    4  A    between atoms: C_9  and  C_10
REMARK    5  A    between atoms: C_10  and  N_11
REMARK    6  A    between atoms: C_12  and  C_14
REMARK    7  A    between atoms: C_16  and  C_17
REMARK                            x       y       z     vdW  Elec       q    Type
REMARK                         _______ _______ _______ _____ _____    ______ ____
ROOT
ATOM      1  C   UNL     1       1.584   8.006  20.037  0.00  0.00    +0.000 A 
ATOM      2  C   UNL     1       2.313   7.935  18.847  0.00  0.00    +0.000 A 
ATOM      3  C   UNL     1       2.936   6.736  18.491  0.00  0.00    +0.000 A 
ATOM      4  C   UNL     1       2.833   5.603  19.314  0.00  0.00    +0.000 A 
ATOM      5  C   UNL     1       2.141   5.707  20.531  0.00  0.00    +0.000 A 
ATOM      6  C   UNL     1       1.522   6.905  20.896  0.00  0.00    +0.000 A 
ENDROOT
BRANCH   1   7
ATOM      7  S   UNL     1       0.777   9.520  20.494  0.00  0.00    +0.000 S 
ATOM      8  O   UNL     1      -0.652   9.293  20.469  0.00  0.00    +0.000 OA
ATOM      9  O   UNL     1       1.387  10.610  19.763  0.00  0.00    +0.000 OA
BRANCH   7  11
ATOM     10  C   UNL     1       0.133   9.545  23.117  0.00  0.00    +0.000 C 
ATOM     11  N   UNL     1       1.187   9.672  22.118  0.00  0.00    +0.000 NA
ATOM     12  H   UNL     1       2.092   9.248  22.321  0.00  0.00    +0.000 HD
ENDBRANCH   7  11
ENDBRANCH   1   7
BRANCH   4  13
ATOM     13  C   UNL     1       3.461   4.298  18.897  0.00  0.00    +0.000 C 
BRANCH  13  14
ATOM     14  N   UNL     1       4.168   4.413  17.648  0.00  0.00    +0.000 N 
ATOM     15  C   UNL     1       5.547   4.398  17.605  0.00  0.00    +0.000 C 
ATOM     16  O   UNL     1       6.228   4.288  18.622  0.00  0.00    +0.000 OA
ATOM     17  H   UNL     1       3.649   4.470  16.780  0.00  0.00    +0.000 HD
BRANCH  15  18
ATOM     18  C   UNL     1       6.113   4.514  16.282  0.00  0.00    +0.000 A 
ATOM     19  C   UNL     1       5.751   3.968  15.071  0.00  0.00    +0.000 A 
ATOM     20  C   UNL     1       6.705   4.468  14.157  0.00  0.00    +0.000 A 
ATOM     21  C   UNL     1       6.811   4.226  12.700  0.00  0.00    +0.000 C 
ATOM     22  N   UNL     1       7.595   5.259  14.769  0.00  0.00    +0.000 NA
ATOM     23  O   UNL     1       7.220   5.288  16.098  0.00  0.00    +0.000 OA
ENDBRANCH  15  18
ENDBRANCH  13  14
ENDBRANCH   4  13
TORSDOF 5
ENDMDL
MODEL 9
REMARK VINA RESULT:      -6.9      3.712      4.697
REMARK  Name = 
REMARK  7 active torsions:
REMARK  status: ('A' for Active; 'I' for Inactive)
REMARK    1  A    between atoms: C_1  and  N_2
REMARK    2  A    between atoms: N_2  and  S_3
REMARK    3  A    between atoms: S_3  and  C_6
REMARK    4  A    between atoms: C_9  and  C_10
REMARK    5  A    between atoms: C_10  and  N_11
REMARK    6  A    between atoms: C_12  and  C_14
REMARK    7  A    between atoms: C_16  and  C_17
REMARK                            x       y       z     vdW  Elec       q    Type
REMARK                         _______ _______ _______ _____ _____    ______ ____
ROOT
ATOM      1  C   UNL     1       1.355   8.839  19.274  0.00  0.00    +0.000 A 
ATOM      2  C   UNL     1       2.092   8.605  18.110  0.00  0.00    +0.000 A 
ATOM      3  C   UNL     1       2.918   7.481  18.031  0.00  0.00    +0.000 A 
ATOM      4  C   UNL     1       3.010   6.584  19.107  0.00  0.00    +0.000 A 
ATOM      5  C   UNL     1       2.304   6.862  20.288  0.00  0.00    +0.000 A 
ATOM      6  C   UNL     1       1.483   7.988  20.375  0.00  0.00    +0.000 A 
ENDROOT
BRANCH   1   7
ATOM      7  S   UNL     1       0.292  10.258  19.381  0.00  0.00    +0.000 S 
ATOM      8  O   UNL     1      -0.265  10.301  20.715  0.00  0.00    +0.000 OA
ATOM      9  O   UNL     1      -0.548  10.298  18.204  0.00  0.00    +0.000 OA
BRANCH   7  11
ATOM     10  C   UNL     1       0.902  12.837  18.860  0.00  0.00    +0.000 C 
ATOM     11  N   UNL     1       1.385  11.534  19.300  0.00  0.00    +0.000 NA
ATOM     12  H   UNL     1       2.055  11.507  20.068  0.00  0.00    +0.000 HD
ENDBRANCH   7  11
ENDBRANCH   1   7
BRANCH   4  13
ATOM     13  C   UNL     1       3.861   5.344  18.995  0.00  0.00    +0.000 C 
BRANCH  13  14
ATOM     14  N   UNL     1       4.420   5.189  17.678  0.00  0.00    +0.000 N 
ATOM     15  C   UNL     1       5.752   4.878  17.500  0.00  0.00    +0.000 C 
ATOM     16  O   UNL     1       6.515   4.721  18.451  0.00  0.00    +0.000 OA
ATOM     17  H   UNL     1       3.821   5.273  16.864  0.00  0.00    +0.000 HD
BRANCH  15  18
ATOM     18  C   UNL     1       6.165   4.746  16.123  0.00  0.00    +0.000 A 
ATOM     19  C   UNL     1       5.711   3.954  15.094  0.00  0.00    +0.000 A 
ATOM     20  C   UNL     1       6.529   4.296  13.994  0.00  0.00    +0.000 A 
ATOM     21  C   UNL     1       6.493   3.769  12.611  0.00  0.00    +0.000 C 
ATOM     22  N   UNL     1       7.428   5.229  14.331  0.00  0.00    +0.000 NA
ATOM     23  O   UNL     1       7.197   5.510  15.663  0.00  0.00    +0.000 OA
ENDBRANCH  15  18
ENDBRANCH  13  14
ENDBRANCH   4  13
TORSDOF 5
ENDMDL
