MODEL 1
REMARK VINA RESULT:      -6.5      0.000      0.000
REMARK  Name = 
REMARK  4 active torsions:
REMARK  status: ('A' for Active; 'I' for Inactive)
REMARK    1  A    between atoms: C_2  and  O_3
REMARK    2  A    between atoms: C_2  and  C_4
REMARK    3  A    between atoms: C_7  and  C_8
REMARK    4  A    between atoms: C_14  and  O_15
REMARK                            x       y       z     vdW  Elec       q    Type
REMARK                         _______ _______ _______ _____ _____    ______ ____
ROOT
ATOM      1  C   UNL     1       6.026   4.410  16.119  0.00  0.00    +0.000 A 
ATOM      2  C   UNL     1       4.682   4.048  15.971  0.00  0.00    +0.000 A 
ATOM      3  C   UNL     1       3.870   3.853  17.094  0.00  0.00    +0.000 A 
ATOM      4  C   UNL     1       4.388   3.995  18.390  0.00  0.00    +0.000 A 
ATOM      5  C   UNL     1       5.733   4.383  18.532  0.00  0.00    +0.000 A 
ATOM      6  C   UNL     1       6.540   4.587  17.408  0.00  0.00    +0.000 A 
ENDROOT
BRANCH   4   7
ATOM      7  C   UNL     1       3.580   3.766  19.600  0.00  0.00    +0.000 A 
ATOM      8  N   UNL     1       3.581   2.639  20.289  0.00  0.00    +0.000 NA
ATOM      9  C   UNL     1       2.698   2.726  21.347  0.00  0.00    +0.000 A 
ATOM     10  C   UNL     1       2.000   3.908  21.443  0.00  0.00    +0.000 A 
ATOM     11  S   UNL     1       2.474   4.959  20.180  0.00  0.00    +0.000 S 
ENDBRANCH   4   7
BRANCH   1  13
ATOM     12  O   UNL     1       7.711   5.405  14.765  0.00  0.00    +0.000 OA
ATOM     13  C   UNL     1       6.832   4.564  14.876  0.00  0.00    +0.000 C 
BRANCH  13  14
ATOM     14  O   UNL     1       6.555   3.663  13.911  0.00  0.00    +0.000 OA
ATOM     15  H   UNL     1       7.338   3.119  13.675  0.00  0.00    +0.000 HD
ENDBRANCH  13  14
ENDBRANCH   1  13
BRANCH   6  16
ATOM     16  O   UNL     1       7.846   4.969  17.576  0.00  0.00    +0.000 OA
ATOM     17  H   UNL     1       8.421   4.312  17.137  0.00  0.00    +0.000 HD
ENDBRANCH   6  16
TORSDOF 4
ENDMDL
MODEL 2
REMARK VINA RESULT:      -6.4      2.520      2.920
REMARK  Name = 
REMARK  4 active torsions:
REMARK  status: ('A' for Active; 'I' for Inactive)
REMARK    1  A    between atoms: C_2  and  O_3
REMARK    2  A    between atoms: C_2  and  C_4
REMARK    3  A    between atoms: C_7  and  C_8
REMARK    4  A    between atoms: C_14  and  O_15
REMARK                            x       y       z     vdW  Elec       q    Type
REMARK                         _______ _______ _______ _____ _____    ______ ____
ROOT
ATOM      1  C   UNL     1       6.366   6.216  18.075  0.00  0.00    +0.000 A 
ATOM      2  C   UNL     1       5.263   6.400  17.235  0.00  0.00    +0.000 A 
ATOM      3  C   UNL     1       4.071   5.704  17.461  0.00  0.00    +0.000 A 
ATOM      4  C   UNL     1       3.962   4.790  18.520  0.00  0.00    +0.000 A 
ATOM      5  C   UNL     1       5.067   4.626  19.376  0.00  0.00    +0.000 A 
ATOM      6  C   UNL     1       6.253   5.331  19.154  0.00  0.00    +0.000 A 
ENDROOT
BRANCH   4   7
ATOM      7  C   UNL     1       2.740   4.008  18.775  0.00  0.00    +0.000 A 
ATOM      8  N   UNL     1       1.861   4.294  19.718  0.00  0.00    +0.000 NA
ATOM      9  C   UNL     1       0.846   3.357  19.725  0.00  0.00    +0.000 A 
ATOM     10  C   UNL     1       0.971   2.340  18.807  0.00  0.00    +0.000 A 
ATOM     11  S   UNL     1       2.396   2.566  17.889  0.00  0.00    +0.000 S 
ENDBRANCH   4   7
BRANCH   1  13
ATOM     12  O   UNL     1       7.910   7.267  16.601  0.00  0.00    +0.000 OA
ATOM     13  C   UNL     1       7.609   6.968  17.746  0.00  0.00    +0.000 C 
BRANCH  13  14
ATOM     14  O   UNL     1       8.339   7.342  18.818  0.00  0.00    +0.000 OA
ATOM     15  H   UNL     1       8.916   6.618  19.146  0.00  0.00    +0.000 HD
ENDBRANCH  13  14
ENDBRANCH   1  13
BRANCH   6  16
ATOM     16  O   UNL     1       7.312   5.155  20.007  0.00  0.00    +0.000 OA
ATOM     17  H   UNL     1       7.512   6.011  20.435  0.00  0.00    +0.000 HD
ENDBRANCH   6  16
TORSDOF 4
ENDMDL
MODEL 3
REMARK VINA RESULT:      -6.4      0.988      1.096
REMARK  Name = 
REMARK  4 active torsions:
REMARK  status: ('A' for Active; 'I' for Inactive)
REMARK    1  A    between atoms: C_2  and  O_3
REMARK    2  A    between atoms: C_2  and  C_4
REMARK    3  A    between atoms: C_7  and  C_8
REMARK    4  A    between atoms: C_14  and  O_15
REMARK                            x       y       z     vdW  Elec       q    Type
REMARK                         _______ _______ _______ _____ _____    ______ ____
ROOT
ATOM      1  C   UNL     1       6.010   4.459  16.073  0.00  0.00    +0.000 A 
ATOM      2  C   UNL     1       4.626   4.332  15.911  0.00  0.00    +0.000 A 
ATOM      3  C   UNL     1       3.786   4.221  17.024  0.00  0.00    +0.000 A 
ATOM      4  C   UNL     1       4.312   4.213  18.325  0.00  0.00    +0.000 A 
ATOM      5  C   UNL     1       5.702   4.366  18.483  0.00  0.00    +0.000 A 
ATOM      6  C   UNL     1       6.539   4.487  17.369  0.00  0.00    +0.000 A 
ENDROOT
BRANCH   4   7
ATOM      7  C   UNL     1       3.470   4.063  19.524  0.00  0.00    +0.000 A 
ATOM      8  N   UNL     1       2.777   5.045  20.070  0.00  0.00    +0.000 NA
ATOM      9  C   UNL     1       2.119   4.594  21.198  0.00  0.00    +0.000 A 
ATOM     10  C   UNL     1       2.338   3.276  21.527  0.00  0.00    +0.000 A 
ATOM     11  S   UNL     1       3.389   2.565  20.381  0.00  0.00    +0.000 S 
ENDBRANCH   4   7
BRANCH   1  13
ATOM     12  O   UNL     1       7.729   5.362  14.698  0.00  0.00    +0.000 OA
ATOM     13  C   UNL     1       6.839   4.538  14.838  0.00  0.00    +0.000 C 
BRANCH  13  14
ATOM     14  O   UNL     1       6.567   3.589  13.918  0.00  0.00    +0.000 OA
ATOM     15  H   UNL     1       6.553   3.951  13.005  0.00  0.00    +0.000 HD
ENDBRANCH  13  14
ENDBRANCH   1  13
BRANCH   6  16
ATOM     16  O   UNL     1       7.889   4.639  17.553  0.00  0.00    +0.000 OA
ATOM     17  H   UNL     1       8.355   3.995  16.986  0.00  0.00    +0.000 HD
ENDBRANCH   6  16
TORSDOF 4
ENDMDL
MODEL 4
REMARK VINA RESULT:      -6.4      4.016      6.128
REMARK  Name = 
REMARK  4 active torsions:
REMARK  status: ('A' for Active; 'I' for Inactive)
REMARK    1  A    between atoms: C_2  and  O_3
REMARK    2  A    between atoms: C_2  and  C_4
REMARK    3  A    between atoms: C_7  and  C_8
REMARK    4  A    between atoms: C_14  and  O_15
REMARK                            x       y       z     vdW  Elec       q    Type
REMARK                         _______ _______ _______ _____ _____    ______ ____
ROOT
ATOM      1  C   UNL     1       2.653   3.461  19.862  0.00  0.00    +0.000 A 
ATOM      2  C   UNL     1       3.376   4.659  19.864  0.00  0.00    +0.000 A 
ATOM      3  C   UNL     1       4.237   4.974  18.808  0.00  0.00    +0.000 A 
ATOM      4  C   UNL     1       4.412   4.087  17.734  0.00  0.00    +0.000 A 
ATOM      5  C   UNL     1       3.664   2.895  17.725  0.00  0.00    +0.000 A 
ATOM      6  C   UNL     1       2.797   2.588  18.777  0.00  0.00    +0.000 A 
ENDROOT
BRANCH   4   7
ATOM      7  C   UNL     1       5.334   4.360  16.618  0.00  0.00    +0.000 A 
ATOM      8  N   UNL     1       5.005   4.259  15.343  0.00  0.00    +0.000 NA
ATOM      9  C   UNL     1       6.094   4.547  14.545  0.00  0.00    +0.000 A 
ATOM     10  C   UNL     1       7.262   4.836  15.214  0.00  0.00    +0.000 A 
ATOM     11  S   UNL     1       6.990   4.763  16.901  0.00  0.00    +0.000 S 
ENDBRANCH   4   7
BRANCH   1  13
ATOM     12  O   UNL     1       2.214   3.168  22.182  0.00  0.00    +0.000 OA
ATOM     13  C   UNL     1       1.784   3.184  21.039  0.00  0.00    +0.000 C 
BRANCH  13  14
ATOM     14  O   UNL     1       0.478   3.013  20.746  0.00  0.00    +0.000 OA
ATOM     15  H   UNL     1       0.346   2.425  19.970  0.00  0.00    +0.000 HD
ENDBRANCH  13  14
ENDBRANCH   1  13
BRANCH   6  16
ATOM     16  O   UNL     1       2.077   1.421  18.739  0.00  0.00    +0.000 OA
ATOM     17  H   UNL     1       1.181   1.619  18.404  0.00  0.00    +0.000 HD
ENDBRANCH   6  16
TORSDOF 4
ENDMDL
MODEL 5
REMARK VINA RESULT:      -6.3      0.781      1.128
REMARK  Name = 
REMARK  4 active torsions:
REMARK  status: ('A' for Active; 'I' for Inactive)
REMARK    1  A    between atoms: C_2  and  O_3
REMARK    2  A    between atoms: C_2  and  C_4
REMARK    3  A    between atoms: C_7  and  C_8
REMARK    4  A    between atoms: C_14  and  O_15
REMARK                            x       y       z     vdW  Elec       q    Type
REMARK                         _______ _______ _______ _____ _____    ______ ____
ROOT
ATOM      1  C   UNL     1       5.878   4.480  16.555  0.00  0.00    +0.000 A 
ATOM      2  C   UNL     1       4.537   4.245  16.234  0.00  0.00    +0.000 A 
ATOM      3  C   UNL     1       3.609   3.934  17.234  0.00  0.00    +0.000 A 
ATOM      4  C   UNL     1       4.007   3.830  18.576  0.00  0.00    +0.000 A 
ATOM      5  C   UNL     1       5.352   4.091  18.896  0.00  0.00    +0.000 A 
ATOM      6  C   UNL     1       6.275   4.411  17.895  0.00  0.00    +0.000 A 
ENDROOT
BRANCH   4   7
ATOM      7  C   UNL     1       3.073   3.470  19.658  0.00  0.00    +0.000 A 
ATOM      8  N   UNL     1       3.424   2.825  20.755  0.00  0.00    +0.000 NA
ATOM      9  C   UNL     1       2.320   2.609  21.555  0.00  0.00    +0.000 A 
ATOM     10  C   UNL     1       1.122   3.063  21.051  0.00  0.00    +0.000 A 
ATOM     11  S   UNL     1       1.382   3.801  19.531  0.00  0.00    +0.000 S 
ENDBRANCH   4   7
BRANCH   1  13
ATOM     12  O   UNL     1       6.816   4.116  14.398  0.00  0.00    +0.000 OA
ATOM     13  C   UNL     1       6.809   4.771  15.429  0.00  0.00    +0.000 C 
BRANCH  13  14
ATOM     14  O   UNL     1       7.598   5.849  15.617  0.00  0.00    +0.000 OA
ATOM     15  H   UNL     1       7.120   6.587  16.056  0.00  0.00    +0.000 HD
ENDBRANCH  13  14
ENDBRANCH   1  13
BRANCH   6  16
ATOM     16  O   UNL     1       7.578   4.665  18.237  0.00  0.00    +0.000 OA
ATOM     17  H   UNL     1       8.123   3.896  17.978  0.00  0.00    +0.000 HD
ENDBRANCH   6  16
TORSDOF 4
ENDMDL
MODEL 6
REMARK VINA RESULT:      -6.3      1.676      1.828
REMARK  Name = 
REMARK  4 active torsions:
REMARK  status: ('A' for Active; 'I' for Inactive)
REMARK    1  A    between atoms: C_2  and  O_3
REMARK    2  A    between atoms: C_2  and  C_4
REMARK    3  A    between atoms: C_7  and  C_8
REMARK    4  A    between atoms: C_14  and  O_15
REMARK                            x       y       z     vdW  Elec       q    Type
REMARK                         _______ _______ _______ _____ _____    ______ ____
ROOT
ATOM      1  C   UNL     1       5.687   4.660  15.564  0.00  0.00    +0.000 A 
ATOM      2  C   UNL     1       5.313   3.439  16.136  0.00  0.00    +0.000 A 
ATOM      3  C   UNL     1       4.400   3.398  17.195  0.00  0.00    +0.000 A 
ATOM      4  C   UNL     1       3.854   4.579  17.720  0.00  0.00    +0.000 A 
ATOM      5  C   UNL     1       4.214   5.802  17.125  0.00  0.00    +0.000 A 
ATOM      6  C   UNL     1       5.120   5.840  16.061  0.00  0.00    +0.000 A 
ENDROOT
BRANCH   4   7
ATOM      7  C   UNL     1       2.917   4.587  18.856  0.00  0.00    +0.000 A 
ATOM      8  N   UNL     1       3.154   5.189  20.008  0.00  0.00    +0.000 NA
ATOM      9  C   UNL     1       2.100   4.987  20.877  0.00  0.00    +0.000 A 
ATOM     10  C   UNL     1       1.075   4.203  20.398  0.00  0.00    +0.000 A 
ATOM     11  S   UNL     1       1.428   3.713  18.798  0.00  0.00    +0.000 S 
ENDBRANCH   4   7
BRANCH   1  13
ATOM     12  O   UNL     1       7.627   5.403  14.404  0.00  0.00    +0.000 OA
ATOM     13  C   UNL     1       6.690   4.621  14.464  0.00  0.00    +0.000 C 
BRANCH  13  14
ATOM     14  O   UNL     1       6.515   3.619  13.579  0.00  0.00    +0.000 OA
ATOM     15  H   UNL     1       5.566   3.467  13.373  0.00  0.00    +0.000 HD
ENDBRANCH  13  14
ENDBRANCH   1  13
BRANCH   6  16
ATOM     16  O   UNL     1       5.449   7.046  15.497  0.00  0.00    +0.000 OA
ATOM     17  H   UNL     1       6.172   6.902  14.856  0.00  0.00    +0.000 HD
ENDBRANCH   6  16
TORSDOF 4
ENDMDL
MODEL 7
REMARK VINA RESULT:      -6.3      1.867      2.158
REMARK  Name = 
REMARK  4 active torsions:
REMARK  status: ('A' for Active; 'I' for Inactive)
REMARK    1  A    between atoms: C_2  and  O_3
REMARK    2  A    between atoms: C_2  and  C_4
REMARK    3  A    between atoms: C_7  and  C_8
REMARK    4  A    between atoms: C_14  and  O_15
REMARK                            x       y       z     vdW  Elec       q    Type
REMARK                         _______ _______ _______ _____ _____    ______ ____
ROOT
ATOM      1  C   UNL     1       6.016   6.008  17.451  0.00  0.00    +0.000 A 
ATOM      2  C   UNL     1       4.745   6.593  17.402  0.00  0.00    +0.000 A 
ATOM      3  C   UNL     1       3.646   5.958  17.991  0.00  0.00    +0.000 A 
ATOM      4  C   UNL     1       3.789   4.714  18.625  0.00  0.00    +0.000 A 
ATOM      5  C   UNL     1       5.073   4.143  18.691  0.00  0.00    +0.000 A 
ATOM      6  C   UNL     1       6.171   4.784  18.111  0.00  0.00    +0.000 A 
ENDROOT
BRANCH   4   7
ATOM      7  C   UNL     1       2.655   3.993  19.227  0.00  0.00    +0.000 A 
ATOM      8  N   UNL     1       1.832   3.210  18.553  0.00  0.00    +0.000 NA
ATOM      9  C   UNL     1       0.857   2.708  19.391  0.00  0.00    +0.000 A 
ATOM     10  C   UNL     1       0.919   3.134  20.698  0.00  0.00    +0.000 A 
ATOM     11  S   UNL     1       2.252   4.187  20.896  0.00  0.00    +0.000 S 
ENDBRANCH   4   7
BRANCH   1  13
ATOM     12  O   UNL     1       7.534   7.816  17.152  0.00  0.00    +0.000 OA
ATOM     13  C   UNL     1       7.127   6.730  16.770  0.00  0.00    +0.000 C 
BRANCH  13  14
ATOM     14  O   UNL     1       7.684   6.060  15.739  0.00  0.00    +0.000 OA
ATOM     15  H   UNL     1       7.230   5.206  15.563  0.00  0.00    +0.000 HD
ENDBRANCH  13  14
ENDBRANCH   1  13
BRANCH   6  16
ATOM     16  O   UNL     1       7.412   4.206  18.195  0.00  0.00    +0.000 OA
ATOM     17  H   UNL     1       7.482   3.745  19.054  0.00  0.00    +0.000 HD
ENDBRANCH   6  16
TORSDOF 4
ENDMDL
MODEL 8
REMARK VINA RESULT:      -6.1      2.373      2.723
REMARK  Name = 
REMARK  4 active torsions:
REMARK  status: ('A' for Active; 'I' for Inactive)
REMARK    1  A    between atoms: C_2  and  O_3
REMARK    2  A    between atoms: C_2  and  C_4
REMARK    3  A    between atoms: C_7  and  C_8
REMARK    4  A    between atoms: C_14  and  O_15
REMARK                            x       y       z     vdW  Elec       q    Type
REMARK                         _______ _______ _______ _____ _____    ______ ____
ROOT
ATOM      1  C   UNL     1       6.458   6.244  18.088  0.00  0.00    +0.000 A 
ATOM      2  C   UNL     1       5.385   6.285  17.190  0.00  0.00    +0.000 A 
ATOM      3  C   UNL     1       4.264   5.471  17.382  0.00  0.00    +0.000 A 
ATOM      4  C   UNL     1       4.198   4.581  18.465  0.00  0.00    +0.000 A 
ATOM      5  C   UNL     1       5.269   4.561  19.378  0.00  0.00    +0.000 A 
ATOM      6  C   UNL     1       6.384   5.383  19.189  0.00  0.00    +0.000 A 
ENDROOT
BRANCH   4   7
ATOM      7  C   UNL     1       3.055   3.679  18.687  0.00  0.00    +0.000 A 
ATOM      8  N   UNL     1       3.147   2.492  19.259  0.00  0.00    +0.000 NA
ATOM      9  C   UNL     1       1.910   1.881  19.291  0.00  0.00    +0.000 A 
ATOM     10  C   UNL     1       0.881   2.589  18.714  0.00  0.00    +0.000 A 
ATOM     11  S   UNL     1       1.472   4.082  18.124  0.00  0.00    +0.000 S 
ENDBRANCH   4   7
BRANCH   1  13
ATOM     12  O   UNL     1       8.349   7.563  18.673  0.00  0.00    +0.000 OA
ATOM     13  C   UNL     1       7.628   7.117  17.794  0.00  0.00    +0.000 C 
BRANCH  13  14
ATOM     14  O   UNL     1       7.861   7.322  16.481  0.00  0.00    +0.000 OA
ATOM     15  H   UNL     1       7.822   6.488  15.963  0.00  0.00    +0.000 HD
ENDBRANCH  13  14
ENDBRANCH   1  13
BRANCH   6  16
ATOM     16  O   UNL     1       7.411   5.347  20.098  0.00  0.00    +0.000 OA
ATOM     17  H   UNL     1       8.257   5.368  19.611  0.00  0.00    +0.000 HD
ENDBRANCH   6  16
TORSDOF 4
ENDMDL
MODEL 9
REMARK VINA RESULT:      -6.1      3.931      5.985
REMARK  Name = 
REMARK  4 active torsions:
REMARK  status: ('A' for Active; 'I' for Inactive)
REMARK    1  A    between atoms: C_2  and  O_3
REMARK    2  A    between atoms: C_2  and  C_4
REMARK    3  A    between atoms: C_7  and  C_8
REMARK    4  A    between atoms: C_14  and  O_15
REMARK                            x       y       z     vdW  Elec       q    Type
REMARK                         _______ _______ _______ _____ _____    ______ ____
ROOT
ATOM      1  C   UNL     1       2.623   3.504  19.849  0.00  0.00    +0.000 A 
ATOM      2  C   UNL     1       2.940   2.483  18.945  0.00  0.00    +0.000 A 
ATOM      3  C   UNL     1       3.823   2.718  17.886  0.00  0.00    +0.000 A 
ATOM      4  C   UNL     1       4.393   3.986  17.692  0.00  0.00    +0.000 A 
ATOM      5  C   UNL     1       4.089   5.002  18.618  0.00  0.00    +0.000 A 
ATOM      6  C   UNL     1       3.215   4.761  19.682  0.00  0.00    +0.000 A 
ENDROOT
BRANCH   4   7
ATOM      7  C   UNL     1       5.298   4.290  16.571  0.00  0.00    +0.000 A 
ATOM      8  N   UNL     1       4.954   4.210  15.298  0.00  0.00    +0.000 NA
ATOM      9  C   UNL     1       6.031   4.525  14.493  0.00  0.00    +0.000 A 
ATOM     10  C   UNL     1       7.203   4.812  15.153  0.00  0.00    +0.000 A 
ATOM     11  S   UNL     1       6.953   4.704  16.841  0.00  0.00    +0.000 S 
ENDBRANCH   4   7
BRANCH   1  13
ATOM     12  O   UNL     1       1.972   3.123  22.105  0.00  0.00    +0.000 OA
ATOM     13  C   UNL     1       1.649   3.182  20.929  0.00  0.00    +0.000 C 
BRANCH  13  14
ATOM     14  O   UNL     1       0.377   3.024  20.509  0.00  0.00    +0.000 OA
ATOM     15  H   UNL     1       0.292   3.126  19.535  0.00  0.00    +0.000 HD
ENDBRANCH  13  14
ENDBRANCH   1  13
BRANCH   6  16
ATOM     16  O   UNL     1       2.941   5.769  20.571  0.00  0.00    +0.000 OA
ATOM     17  H   UNL     1       3.077   5.429  21.477  0.00  0.00    +0.000 HD
ENDBRANCH   6  16
TORSDOF 4
ENDMDL
