MODEL 1
REMARK VINA RESULT:      -6.8      0.000      0.000
REMARK  Name = 
REMARK  7 active torsions:
REMARK  status: ('A' for Active; 'I' for Inactive)
REMARK    1  A    between atoms: C_1  and  O_2
REMARK    2  A    between atoms: O_2  and  C_3
REMARK    3  A    between atoms: C_5  and  N_6
REMARK    4  A    between atoms: C_11  and  N_12
REMARK    5  A    between atoms: C_13  and  C_15
REMARK    6  A    between atoms: N_19  and  S_20
REMARK    7  A    between atoms: S_20  and  C_21
REMARK                            x       y       z     vdW  Elec       q    Type
REMARK                         _______ _______ _______ _____ _____    ______ ____
ROOT
ATOM      1  N   UNL     1       3.123   6.156  18.021  0.00  0.00    +0.000 N 
ATOM      2  C   UNL     1       2.515   4.991  17.587  0.00  0.00    +0.000 C 
ATOM      3  O   UNL     1       1.297   4.819  17.493  0.00  0.00    +0.000 OA
ATOM      4  H   UNL     1       4.115   6.287  17.829  0.00  0.00    +0.000 HD
ENDROOT
BRANCH   1  10
ATOM      5  C   UNL     1       2.109   7.265  19.976  0.00  0.00    +0.000 A 
ATOM      6  C   UNL     1       1.392   8.345  20.526  0.00  0.00    +0.000 A 
ATOM      7  C   UNL     1       1.062   9.450  19.733  0.00  0.00    +0.000 A 
ATOM      8  C   UNL     1       1.433   9.490  18.393  0.00  0.00    +0.000 A 
ATOM      9  C   UNL     1       2.111   8.402  17.840  0.00  0.00    +0.000 A 
ATOM     10  C   UNL     1       2.460   7.278  18.605  0.00  0.00    +0.000 A 
BRANCH   7  11
ATOM     11  N   UNL     1       0.304  10.566  20.310  0.00  0.00    +0.000 N 
ATOM     12  O   UNL     1      -0.635  11.029  19.645  0.00  0.00    +0.000 OA
ATOM     13  O   UNL     1       0.649  10.984  21.423  0.00  0.00    +0.000 OA
ENDBRANCH   7  11
BRANCH   5  15
ATOM     14  C   UNL     1       1.454   5.174  20.894  0.00  0.00    +0.000 C 
ATOM     15  O   UNL     1       2.475   6.165  20.722  0.00  0.00    +0.000 OA
ENDBRANCH   5  15
ENDBRANCH   1  10
BRANCH   2  16
ATOM     16  C   UNL     1       3.416   3.821  17.203  0.00  0.00    +0.000 C 
ATOM     17  C   UNL     1       3.290   2.595  18.103  0.00  0.00    +0.000 C 
ATOM     18  C   UNL     1       4.103   2.706  19.384  0.00  0.00    +0.000 C 
ATOM     19  C   UNL     1       5.539   3.146  19.124  0.00  0.00    +0.000 C 
ATOM     20  N   UNL     1       5.581   4.371  18.279  0.00  0.00    +0.000 NA
ATOM     21  C   UNL     1       4.856   4.243  16.988  0.00  0.00    +0.000 C 
BRANCH  20  22
ATOM     22  S   UNL     1       7.118   5.116  18.152  0.00  0.00    +0.000 S 
ATOM     23  C   UNL     1       6.722   6.718  17.455  0.00  0.00    +0.000 C 
ATOM     24  O   UNL     1       7.622   5.326  19.494  0.00  0.00    +0.000 OA
ATOM     25  O   UNL     1       7.883   4.378  17.176  0.00  0.00    +0.000 OA
ENDBRANCH  20  22
ENDBRANCH   2  16
TORSDOF 5
ENDMDL
MODEL 2
REMARK VINA RESULT:      -6.7      0.803      1.159
REMARK  Name = 
REMARK  7 active torsions:
REMARK  status: ('A' for Active; 'I' for Inactive)
REMARK    1  A    between atoms: C_1  and  O_2
REMARK    2  A    between atoms: O_2  and  C_3
REMARK    3  A    between atoms: C_5  and  N_6
REMARK    4  A    between atoms: C_11  and  N_12
REMARK    5  A    between atoms: C_13  and  C_15
REMARK    6  A    between atoms: N_19  and  S_20
REMARK    7  A    between atoms: S_20  and  C_21
REMARK                            x       y       z     vdW  Elec       q    Type
REMARK                         _______ _______ _______ _____ _____    ______ ____
ROOT
ATOM      1  N   UNL     1       3.050   6.270  18.060  0.00  0.00    +0.000 N 
ATOM      2  C   UNL     1       2.455   5.099  17.624  0.00  0.00    +0.000 C 
ATOM      3  O   UNL     1       1.239   4.911  17.535  0.00  0.00    +0.000 OA
ATOM      4  H   UNL     1       4.040   6.414  17.865  0.00  0.00    +0.000 HD
ENDROOT
BRANCH   1  10
ATOM      5  C   UNL     1       2.031   7.359  20.024  0.00  0.00    +0.000 A 
ATOM      6  C   UNL     1       1.303   8.428  20.580  0.00  0.00    +0.000 A 
ATOM      7  C   UNL     1       0.955   9.531  19.793  0.00  0.00    +0.000 A 
ATOM      8  C   UNL     1       1.320   9.580  18.452  0.00  0.00    +0.000 A 
ATOM      9  C   UNL     1       2.009   8.503  17.892  0.00  0.00    +0.000 A 
ATOM     10  C   UNL     1       2.376   7.381  18.651  0.00  0.00    +0.000 A 
BRANCH   7  11
ATOM     11  N   UNL     1       0.185  10.635  20.377  0.00  0.00    +0.000 N 
ATOM     12  O   UNL     1       0.629  11.167  21.405  0.00  0.00    +0.000 OA
ATOM     13  O   UNL     1      -0.865  10.968  19.811  0.00  0.00    +0.000 OA
ENDBRANCH   7  11
BRANCH   5  15
ATOM     14  C   UNL     1       1.427   5.231  20.889  0.00  0.00    +0.000 C 
ATOM     15  O   UNL     1       2.414   6.261  20.764  0.00  0.00    +0.000 OA
ENDBRANCH   5  15
ENDBRANCH   1  10
BRANCH   2  16
ATOM     16  C   UNL     1       3.370   3.941  17.232  0.00  0.00    +0.000 C 
ATOM     17  C   UNL     1       3.518   2.856  18.295  0.00  0.00    +0.000 C 
ATOM     18  C   UNL     1       4.539   3.204  19.368  0.00  0.00    +0.000 C 
ATOM     19  C   UNL     1       5.860   3.687  18.778  0.00  0.00    +0.000 C 
ATOM     20  N   UNL     1       5.639   4.774  17.785  0.00  0.00    +0.000 NA
ATOM     21  C   UNL     1       4.703   4.414  16.688  0.00  0.00    +0.000 C 
BRANCH  20  22
ATOM     22  S   UNL     1       7.055   5.584  17.264  0.00  0.00    +0.000 S 
ATOM     23  C   UNL     1       7.806   6.095  18.808  0.00  0.00    +0.000 C 
ATOM     24  O   UNL     1       7.926   4.603  16.648  0.00  0.00    +0.000 OA
ATOM     25  O   UNL     1       6.645   6.768  16.550  0.00  0.00    +0.000 OA
ENDBRANCH  20  22
ENDBRANCH   2  16
TORSDOF 5
ENDMDL
MODEL 3
REMARK VINA RESULT:      -6.6      2.903      7.338
REMARK  Name = 
REMARK  7 active torsions:
REMARK  status: ('A' for Active; 'I' for Inactive)
REMARK    1  A    between atoms: C_1  and  O_2
REMARK    2  A    between atoms: O_2  and  C_3
REMARK    3  A    between atoms: C_5  and  N_6
REMARK    4  A    between atoms: C_11  and  N_12
REMARK    5  A    between atoms: C_13  and  C_15
REMARK    6  A    between atoms: N_19  and  S_20
REMARK    7  A    between atoms: S_20  and  C_21
REMARK                            x       y       z     vdW  Elec       q    Type
REMARK                         _______ _______ _______ _____ _____    ______ ____
ROOT
ATOM      1  N   UNL     1       1.532   8.403  18.671  0.00  0.00    +0.000 N 
ATOM      2  C   UNL     1       1.471   9.687  18.159  0.00  0.00    +0.000 C 
ATOM      3  O   UNL     1       2.269  10.166  17.349  0.00  0.00    +0.000 OA
ATOM      4  H   UNL     1       0.705   8.023  19.130  0.00  0.00    +0.000 HD
ENDROOT
BRANCH   1  10
ATOM      5  C   UNL     1       2.776   6.402  19.398  0.00  0.00    +0.000 A 
ATOM      6  C   UNL     1       3.886   5.545  19.265  0.00  0.00    +0.000 A 
ATOM      7  C   UNL     1       4.804   5.733  18.225  0.00  0.00    +0.000 A 
ATOM      8  C   UNL     1       4.633   6.773  17.317  0.00  0.00    +0.000 A 
ATOM      9  C   UNL     1       3.553   7.644  17.472  0.00  0.00    +0.000 A 
ATOM     10  C   UNL     1       2.613   7.485  18.501  0.00  0.00    +0.000 A 
BRANCH   7  11
ATOM     11  N   UNL     1       5.964   4.844  18.101  0.00  0.00    +0.000 N 
ATOM     12  O   UNL     1       6.248   4.128  19.072  0.00  0.00    +0.000 OA
ATOM     13  O   UNL     1       6.595   4.865  17.035  0.00  0.00    +0.000 OA
ENDBRANCH   7  11
BRANCH   5  15
ATOM     14  C   UNL     1       1.755   4.929  20.957  0.00  0.00    +0.000 C 
ATOM     15  O   UNL     1       1.835   6.244  20.391  0.00  0.00    +0.000 OA
ENDBRANCH   5  15
ENDBRANCH   1  10
BRANCH   2  16
ATOM     16  C   UNL     1       0.337  10.589  18.639  0.00  0.00    +0.000 C 
ATOM     17  C   UNL     1       0.695  12.070  18.734  0.00  0.00    +0.000 C 
ATOM     18  C   UNL     1       1.426  12.428  20.019  0.00  0.00    +0.000 C 
ATOM     19  C   UNL     1       0.731  11.871  21.257  0.00  0.00    +0.000 C 
ATOM     20  N   UNL     1       0.455  10.416  21.109  0.00  0.00    +0.000 NA
ATOM     21  C   UNL     1      -0.328  10.066  19.896  0.00  0.00    +0.000 C 
BRANCH  20  22
ATOM     22  S   UNL     1      -0.066   9.625  22.535  0.00  0.00    +0.000 S 
ATOM     23  C   UNL     1      -1.289  10.759  23.189  0.00  0.00    +0.000 C 
ATOM     24  O   UNL     1      -0.751   8.409  22.144  0.00  0.00    +0.000 OA
ATOM     25  O   UNL     1       1.049   9.591  23.451  0.00  0.00    +0.000 OA
ENDBRANCH  20  22
ENDBRANCH   2  16
TORSDOF 5
ENDMDL
MODEL 4
REMARK VINA RESULT:      -6.6      1.122      1.195
REMARK  Name = 
REMARK  7 active torsions:
REMARK  status: ('A' for Active; 'I' for Inactive)
REMARK    1  A    between atoms: C_1  and  O_2
REMARK    2  A    between atoms: O_2  and  C_3
REMARK    3  A    between atoms: C_5  and  N_6
REMARK    4  A    between atoms: C_11  and  N_12
REMARK    5  A    between atoms: C_13  and  C_15
REMARK    6  A    between atoms: N_19  and  S_20
REMARK    7  A    between atoms: S_20  and  C_21
REMARK                            x       y       z     vdW  Elec       q    Type
REMARK                         _______ _______ _______ _____ _____    ______ ____
ROOT
ATOM      1  N   UNL     1       3.029   6.152  17.999  0.00  0.00    +0.000 N 
ATOM      2  C   UNL     1       2.388   4.983  17.627  0.00  0.00    +0.000 C 
ATOM      3  O   UNL     1       1.167   4.850  17.509  0.00  0.00    +0.000 OA
ATOM      4  H   UNL     1       4.030   6.233  17.829  0.00  0.00    +0.000 HD
ENDROOT
BRANCH   1  10
ATOM      5  C   UNL     1       2.055   7.450  19.856  0.00  0.00    +0.000 A 
ATOM      6  C   UNL     1       1.366   8.589  20.312  0.00  0.00    +0.000 A 
ATOM      7  C   UNL     1       1.052   9.628  19.428  0.00  0.00    +0.000 A 
ATOM      8  C   UNL     1       1.413   9.541  18.088  0.00  0.00    +0.000 A 
ATOM      9  C   UNL     1       2.064   8.394  17.628  0.00  0.00    +0.000 A 
ATOM     10  C   UNL     1       2.395   7.335  18.487  0.00  0.00    +0.000 A 
BRANCH   7  11
ATOM     11  N   UNL     1       0.322  10.806  19.908  0.00  0.00    +0.000 N 
ATOM     12  O   UNL     1      -0.836  10.640  20.317  0.00  0.00    +0.000 OA
ATOM     13  O   UNL     1       0.904  11.899  19.873  0.00  0.00    +0.000 OA
ENDBRANCH   7  11
BRANCH   5  15
ATOM     14  C   UNL     1       1.391   5.417  20.891  0.00  0.00    +0.000 C 
ATOM     15  O   UNL     1       2.403   6.412  20.693  0.00  0.00    +0.000 OA
ENDBRANCH   5  15
ENDBRANCH   1  10
BRANCH   2  16
ATOM     16  C   UNL     1       3.253   3.757  17.350  0.00  0.00    +0.000 C 
ATOM     17  C   UNL     1       3.601   2.928  18.583  0.00  0.00    +0.000 C 
ATOM     18  C   UNL     1       4.776   3.489  19.370  0.00  0.00    +0.000 C 
ATOM     19  C   UNL     1       5.970   3.815  18.478  0.00  0.00    +0.000 C 
ATOM     20  N   UNL     1       5.561   4.662  17.323  0.00  0.00    +0.000 NA
ATOM     21  C   UNL     1       4.467   4.082  16.502  0.00  0.00    +0.000 C 
BRANCH  20  22
ATOM     22  S   UNL     1       6.852   5.320  16.411  0.00  0.00    +0.000 S 
ATOM     23  C   UNL     1       6.383   4.931  14.727  0.00  0.00    +0.000 C 
ATOM     24  O   UNL     1       6.814   6.761  16.563  0.00  0.00    +0.000 OA
ATOM     25  O   UNL     1       8.042   4.569  16.731  0.00  0.00    +0.000 OA
ENDBRANCH  20  22
ENDBRANCH   2  16
TORSDOF 5
ENDMDL
MODEL 5
REMARK VINA RESULT:      -6.2      3.825      8.385
REMARK  Name = 
REMARK  7 active torsions:
REMARK  status: ('A' for Active; 'I' for Inactive)
REMARK    1  A    between atoms: C_1  and  O_2
REMARK    2  A    between atoms: O_2  and  C_3
REMARK    3  A    between atoms: C_5  and  N_6
REMARK    4  A    between atoms: C_11  and  N_12
REMARK    5  A    between atoms: C_13  and  C_15
REMARK    6  A    between atoms: N_19  and  S_20
REMARK    7  A    between atoms: S_20  and  C_21
REMARK                            x       y       z     vdW  Elec       q    Type
REMARK                         _______ _______ _______ _____ _____    ______ ____
ROOT
ATOM      1  N   UNL     1       0.536  10.467  18.421  0.00  0.00    +0.000 N 
ATOM      2  C   UNL     1       0.825  11.720  18.931  0.00  0.00    +0.000 C 
ATOM      3  O   UNL     1       1.835  12.007  19.578  0.00  0.00    +0.000 OA
ATOM      4  H   UNL     1      -0.182  10.388  17.702  0.00  0.00    +0.000 HD
ENDROOT
BRANCH   1  10
ATOM      5  C   UNL     1       1.159   8.669  19.989  0.00  0.00    +0.000 A 
ATOM      6  C   UNL     1       1.921   7.523  20.284  0.00  0.00    +0.000 A 
ATOM      7  C   UNL     1       2.733   6.942  19.303  0.00  0.00    +0.000 A 
ATOM      8  C   UNL     1       2.800   7.496  18.029  0.00  0.00    +0.000 A 
ATOM      9  C   UNL     1       2.073   8.654  17.749  0.00  0.00    +0.000 A 
ATOM     10  C   UNL     1       1.248   9.263  18.707  0.00  0.00    +0.000 A 
BRANCH   7  11
ATOM     11  N   UNL     1       3.534   5.755  19.621  0.00  0.00    +0.000 N 
ATOM     12  O   UNL     1       4.688   5.701  19.172  0.00  0.00    +0.000 OA
ATOM     13  O   UNL     1       3.009   4.874  20.316  0.00  0.00    +0.000 OA
ENDBRANCH   7  11
BRANCH   5  15
ATOM     14  C   UNL     1       0.840   9.311  22.254  0.00  0.00    +0.000 C 
ATOM     15  O   UNL     1       0.330   9.264  20.915  0.00  0.00    +0.000 OA
ENDBRANCH   5  15
ENDBRANCH   1  10
BRANCH   2  16
ATOM     16  C   UNL     1      -0.187  12.836  18.686  0.00  0.00    +0.000 C 
ATOM     17  C   UNL     1      -0.701  13.522  19.949  0.00  0.00    +0.000 C 
ATOM     18  C   UNL     1      -1.822  12.754  20.633  0.00  0.00    +0.000 C 
ATOM     19  C   UNL     1      -2.918  12.336  19.659  0.00  0.00    +0.000 C 
ATOM     20  N   UNL     1      -2.346  11.635  18.476  0.00  0.00    +0.000 NA
ATOM     21  C   UNL     1      -1.305  12.412  17.755  0.00  0.00    +0.000 C 
BRANCH  20  22
ATOM     22  S   UNL     1      -3.492  10.876  17.456  0.00  0.00    +0.000 S 
ATOM     23  C   UNL     1      -2.712  10.974  15.846  0.00  0.00    +0.000 C 
ATOM     24  O   UNL     1      -3.564   9.478  17.831  0.00  0.00    +0.000 OA
ATOM     25  O   UNL     1      -4.674  11.703  17.433  0.00  0.00    +0.000 OA
ENDBRANCH  20  22
ENDBRANCH   2  16
TORSDOF 5
ENDMDL
MODEL 6
REMARK VINA RESULT:      -6.2      3.565      7.881
REMARK  Name = 
REMARK  7 active torsions:
REMARK  status: ('A' for Active; 'I' for Inactive)
REMARK    1  A    between atoms: C_1  and  O_2
REMARK    2  A    between atoms: O_2  and  C_3
REMARK    3  A    between atoms: C_5  and  N_6
REMARK    4  A    between atoms: C_11  and  N_12
REMARK    5  A    between atoms: C_13  and  C_15
REMARK    6  A    between atoms: N_19  and  S_20
REMARK    7  A    between atoms: S_20  and  C_21
REMARK                            x       y       z     vdW  Elec       q    Type
REMARK                         _______ _______ _______ _____ _____    ______ ____
ROOT
ATOM      1  N   UNL     1       1.939   7.423  20.946  0.00  0.00    +0.000 N 
ATOM      2  C   UNL     1       0.851   8.174  21.355  0.00  0.00    +0.000 C 
ATOM      3  O   UNL     1      -0.322   7.792  21.337  0.00  0.00    +0.000 OA
ATOM      4  H   UNL     1       2.871   7.723  21.228  0.00  0.00    +0.000 HD
ENDROOT
BRANCH   1  10
ATOM      5  C   UNL     1       2.297   6.067  18.917  0.00  0.00    +0.000 A 
ATOM      6  C   UNL     1       2.168   4.842  18.236  0.00  0.00    +0.000 A 
ATOM      7  C   UNL     1       1.672   3.713  18.897  0.00  0.00    +0.000 A 
ATOM      8  C   UNL     1       1.294   3.792  20.233  0.00  0.00    +0.000 A 
ATOM      9  C   UNL     1       1.387   5.016  20.898  0.00  0.00    +0.000 A 
ATOM     10  C   UNL     1       1.881   6.168  20.267  0.00  0.00    +0.000 A 
BRANCH   7  11
ATOM     11  N   UNL     1       1.529   2.443  18.176  0.00  0.00    +0.000 N 
ATOM     12  O   UNL     1       2.496   2.047  17.509  0.00  0.00    +0.000 OA
ATOM     13  O   UNL     1       0.449   1.844  18.272  0.00  0.00    +0.000 OA
ENDBRANCH   7  11
BRANCH   5  15
ATOM     14  C   UNL     1       3.943   6.993  17.477  0.00  0.00    +0.000 C 
ATOM     15  O   UNL     1       2.799   7.199  18.315  0.00  0.00    +0.000 OA
ENDBRANCH   5  15
ENDBRANCH   1  10
BRANCH   2  16
ATOM     16  C   UNL     1       1.115   9.590  21.860  0.00  0.00    +0.000 C 
ATOM     17  C   UNL     1       0.493   9.912  23.215  0.00  0.00    +0.000 C 
ATOM     18  C   UNL     1      -0.976  10.298  23.123  0.00  0.00    +0.000 C 
ATOM     19  C   UNL     1      -1.233  11.350  22.050  0.00  0.00    +0.000 C 
ATOM     20  N   UNL     1      -0.637  10.946  20.747  0.00  0.00    +0.000 NA
ATOM     21  C   UNL     1       0.817  10.644  20.813  0.00  0.00    +0.000 C 
BRANCH  20  22
ATOM     22  S   UNL     1      -1.096  11.907  19.407  0.00  0.00    +0.000 S 
ATOM     23  C   UNL     1      -2.601  12.690  19.982  0.00  0.00    +0.000 C 
ATOM     24  O   UNL     1      -0.094  12.940  19.236  0.00  0.00    +0.000 OA
ATOM     25  O   UNL     1      -1.438  11.015  18.325  0.00  0.00    +0.000 OA
ENDBRANCH  20  22
ENDBRANCH   2  16
TORSDOF 5
ENDMDL
MODEL 7
REMARK VINA RESULT:      -6.2      3.538      7.826
REMARK  Name = 
REMARK  7 active torsions:
REMARK  status: ('A' for Active; 'I' for Inactive)
REMARK    1  A    between atoms: C_1  and  O_2
REMARK    2  A    between atoms: O_2  and  C_3
REMARK    3  A    between atoms: C_5  and  N_6
REMARK    4  A    between atoms: C_11  and  N_12
REMARK    5  A    between atoms: C_13  and  C_15
REMARK    6  A    between atoms: N_19  and  S_20
REMARK    7  A    between atoms: S_20  and  C_21
REMARK                            x       y       z     vdW  Elec       q    Type
REMARK                         _______ _______ _______ _____ _____    ______ ____
ROOT
ATOM      1  N   UNL     1       1.919   7.624  21.127  0.00  0.00    +0.000 N 
ATOM      2  C   UNL     1       0.796   8.342  21.500  0.00  0.00    +0.000 C 
ATOM      3  O   UNL     1      -0.370   7.979  21.322  0.00  0.00    +0.000 OA
ATOM      4  H   UNL     1       2.818   7.881  21.532  0.00  0.00    +0.000 HD
ENDROOT
BRANCH   1  10
ATOM      5  C   UNL     1       2.384   6.505  18.979  0.00  0.00    +0.000 A 
ATOM      6  C   UNL     1       2.322   5.356  18.168  0.00  0.00    +0.000 A 
ATOM      7  C   UNL     1       1.853   4.146  18.691  0.00  0.00    +0.000 A 
ATOM      8  C   UNL     1       1.436   4.068  20.016  0.00  0.00    +0.000 A 
ATOM      9  C   UNL     1       1.462   5.218  20.809  0.00  0.00    +0.000 A 
ATOM     10  C   UNL     1       1.928   6.447  20.318  0.00  0.00    +0.000 A 
BRANCH   7  11
ATOM     11  N   UNL     1       1.779   2.956  17.836  0.00  0.00    +0.000 N 
ATOM     12  O   UNL     1       2.452   2.952  16.795  0.00  0.00    +0.000 OA
ATOM     13  O   UNL     1       1.045   2.028  18.202  0.00  0.00    +0.000 OA
ENDBRANCH   7  11
BRANCH   5  15
ATOM     14  C   UNL     1       1.909   8.510  17.797  0.00  0.00    +0.000 C 
ATOM     15  O   UNL     1       2.859   7.713  18.515  0.00  0.00    +0.000 OA
ENDBRANCH   5  15
ENDBRANCH   1  10
BRANCH   2  16
ATOM     16  C   UNL     1       1.011   9.694  22.174  0.00  0.00    +0.000 C 
ATOM     17  C   UNL     1       0.151   9.935  23.412  0.00  0.00    +0.000 C 
ATOM     18  C   UNL     1      -1.257  10.405  23.080  0.00  0.00    +0.000 C 
ATOM     19  C   UNL     1      -1.265  11.557  22.080  0.00  0.00    +0.000 C 
ATOM     20  N   UNL     1      -0.443  11.231  20.882  0.00  0.00    +0.000 NA
ATOM     21  C   UNL     1       0.958  10.847  21.193  0.00  0.00    +0.000 C 
BRANCH  20  22
ATOM     22  S   UNL     1      -0.600  12.325  19.574  0.00  0.00    +0.000 S 
ATOM     23  C   UNL     1       1.031  13.060  19.478  0.00  0.00    +0.000 C 
ATOM     24  O   UNL     1      -0.810  11.548  18.368  0.00  0.00    +0.000 OA
ATOM     25  O   UNL     1      -1.533  13.351  19.970  0.00  0.00    +0.000 OA
ENDBRANCH  20  22
ENDBRANCH   2  16
TORSDOF 5
ENDMDL
MODEL 8
REMARK VINA RESULT:      -6.1      2.596      3.713
REMARK  Name = 
REMARK  7 active torsions:
REMARK  status: ('A' for Active; 'I' for Inactive)
REMARK    1  A    between atoms: C_1  and  O_2
REMARK    2  A    between atoms: O_2  and  C_3
REMARK    3  A    between atoms: C_5  and  N_6
REMARK    4  A    between atoms: C_11  and  N_12
REMARK    5  A    between atoms: C_13  and  C_15
REMARK    6  A    between atoms: N_19  and  S_20
REMARK    7  A    between atoms: S_20  and  C_21
REMARK                            x       y       z     vdW  Elec       q    Type
REMARK                         _______ _______ _______ _____ _____    ______ ____
ROOT
ATOM      1  N   UNL     1       2.769   7.206  19.322  0.00  0.00    +0.000 N 
ATOM      2  C   UNL     1       3.754   6.825  18.428  0.00  0.00    +0.000 C 
ATOM      3  O   UNL     1       4.066   7.447  17.409  0.00  0.00    +0.000 OA
ATOM      4  H   UNL     1       2.755   6.773  20.244  0.00  0.00    +0.000 HD
ENDROOT
BRANCH   1  10
ATOM      5  C   UNL     1       1.161   8.835  20.240  0.00  0.00    +0.000 A 
ATOM      6  C   UNL     1       0.184   9.828  20.034  0.00  0.00    +0.000 A 
ATOM      7  C   UNL     1      -0.099  10.284  18.742  0.00  0.00    +0.000 A 
ATOM      8  C   UNL     1       0.578   9.757  17.647  0.00  0.00    +0.000 A 
ATOM      9  C   UNL     1       1.520   8.746  17.849  0.00  0.00    +0.000 A 
ATOM     10  C   UNL     1       1.829   8.265  19.131  0.00  0.00    +0.000 A 
BRANCH   7  11
ATOM     11  N   UNL     1      -1.127  11.310  18.534  0.00  0.00    +0.000 N 
ATOM     12  O   UNL     1      -0.752  12.486  18.419  0.00  0.00    +0.000 OA
ATOM     13  O   UNL     1      -2.308  10.942  18.490  0.00  0.00    +0.000 OA
ENDBRANCH   7  11
BRANCH   5  15
ATOM     14  C   UNL     1       1.078   9.204  22.586  0.00  0.00    +0.000 C 
ATOM     15  O   UNL     1       1.488   8.369  21.495  0.00  0.00    +0.000 OA
ENDBRANCH   5  15
ENDBRANCH   1  10
BRANCH   2  16
ATOM     16  C   UNL     1       4.508   5.530  18.713  0.00  0.00    +0.000 C 
ATOM     17  C   UNL     1       5.031   4.808  17.474  0.00  0.00    +0.000 C 
ATOM     18  C   UNL     1       3.973   3.956  16.788  0.00  0.00    +0.000 C 
ATOM     19  C   UNL     1       3.226   3.057  17.768  0.00  0.00    +0.000 C 
ATOM     20  N   UNL     1       2.709   3.838  18.925  0.00  0.00    +0.000 NA
ATOM     21  C   UNL     1       3.751   4.611  19.650  0.00  0.00    +0.000 C 
BRANCH  20  22
ATOM     22  S   UNL     1       1.622   2.994  19.944  0.00  0.00    +0.000 S 
ATOM     23  C   UNL     1       2.600   2.715  21.418  0.00  0.00    +0.000 C 
ATOM     24  O   UNL     1       0.544   3.900  20.290  0.00  0.00    +0.000 OA
ATOM     25  O   UNL     1       1.352   1.715  19.334  0.00  0.00    +0.000 OA
ENDBRANCH  20  22
ENDBRANCH   2  16
TORSDOF 5
ENDMDL
MODEL 9
REMARK VINA RESULT:      -6.1      3.562      7.835
REMARK  Name = 
REMARK  7 active torsions:
REMARK  status: ('A' for Active; 'I' for Inactive)
REMARK    1  A    between atoms: C_1  and  O_2
REMARK    2  A    between atoms: O_2  and  C_3
REMARK    3  A    between atoms: C_5  and  N_6
REMARK    4  A    between atoms: C_11  and  N_12
REMARK    5  A    between atoms: C_13  and  C_15
REMARK    6  A    between atoms: N_19  and  S_20
REMARK    7  A    between atoms: S_20  and  C_21
REMARK                            x       y       z     vdW  Elec       q    Type
REMARK                         _______ _______ _______ _____ _____    ______ ____
ROOT
ATOM      1  N   UNL     1       1.910   7.554  21.086  0.00  0.00    +0.000 N 
ATOM      2  C   UNL     1       0.804   8.312  21.429  0.00  0.00    +0.000 C 
ATOM      3  O   UNL     1      -0.370   7.972  21.262  0.00  0.00    +0.000 OA
ATOM      4  H   UNL     1       2.814   7.804  21.483  0.00  0.00    +0.000 HD
ENDROOT
BRANCH   1  10
ATOM      5  C   UNL     1       2.357   6.344  18.984  0.00  0.00    +0.000 A 
ATOM      6  C   UNL     1       2.268   5.168  18.215  0.00  0.00    +0.000 A 
ATOM      7  C   UNL     1       1.762   3.992  18.779  0.00  0.00    +0.000 A 
ATOM      8  C   UNL     1       1.336   3.974  20.103  0.00  0.00    +0.000 A 
ATOM      9  C   UNL     1       1.389   5.151  20.853  0.00  0.00    +0.000 A 
ATOM     10  C   UNL     1       1.891   6.348  20.321  0.00  0.00    +0.000 A 
BRANCH   7  11
ATOM     11  N   UNL     1       1.661   2.773  17.968  0.00  0.00    +0.000 N 
ATOM     12  O   UNL     1       0.744   1.981  18.230  0.00  0.00    +0.000 OA
ATOM     13  O   UNL     1       2.500   2.605  17.072  0.00  0.00    +0.000 OA
ENDBRANCH   7  11
BRANCH   5  15
ATOM     14  C   UNL     1       1.915   8.374  17.831  0.00  0.00    +0.000 C 
ATOM     15  O   UNL     1       2.867   7.521  18.479  0.00  0.00    +0.000 OA
ENDBRANCH   5  15
ENDBRANCH   1  10
BRANCH   2  16
ATOM     16  C   UNL     1       1.051   9.683  22.053  0.00  0.00    +0.000 C 
ATOM     17  C   UNL     1       0.274   9.948  23.340  0.00  0.00    +0.000 C 
ATOM     18  C   UNL     1      -1.158  10.400  23.092  0.00  0.00    +0.000 C 
ATOM     19  C   UNL     1      -1.243  11.525  22.066  0.00  0.00    +0.000 C 
ATOM     20  N   UNL     1      -0.501  11.175  20.824  0.00  0.00    +0.000 NA
ATOM     21  C   UNL     1       0.922  10.810  21.049  0.00  0.00    +0.000 C 
BRANCH  20  22
ATOM     22  S   UNL     1      -0.755  12.234  19.502  0.00  0.00    +0.000 S 
ATOM     23  C   UNL     1      -2.067  11.421  18.593  0.00  0.00    +0.000 C 
ATOM     24  O   UNL     1      -1.281  13.479  20.025  0.00  0.00    +0.000 OA
ATOM     25  O   UNL     1       0.436  12.212  18.688  0.00  0.00    +0.000 OA
ENDBRANCH  20  22
ENDBRANCH   2  16
TORSDOF 5
ENDMDL
