MODEL 1
REMARK VINA RESULT:      -7.6      0.000      0.000
REMARK  Name = 
REMARK  3 active torsions:
REMARK  status: ('A' for Active; 'I' for Inactive)
REMARK    1  A    between atoms: C_1  and  C_2
REMARK    2  A    between atoms: C_8  and  C_10
REMARK    3  A    between atoms: C_13  and  C_14
REMARK                            x       y       z     vdW  Elec       q    Type
REMARK                         _______ _______ _______ _____ _____    ______ ____
ROOT
ATOM      1  C   UNL     1       2.302   7.878  18.857  0.00  0.00    +0.000 A 
ATOM      2  C   UNL     1       3.188   7.268  17.963  0.00  0.00    +0.000 A 
ATOM      3  C   UNL     1       3.684   5.984  18.233  0.00  0.00    +0.000 A 
ATOM      4  C   UNL     1       3.325   5.290  19.408  0.00  0.00    +0.000 A 
ATOM      5  C   UNL     1       2.476   5.959  20.312  0.00  0.00    +0.000 A 
ATOM      6  C   UNL     1       1.981   7.238  20.051  0.00  0.00    +0.000 A 
ENDROOT
BRANCH   1  14
ATOM      7  C   UNL     1      -2.476  12.516  21.781  0.00  0.00    +0.000 C 
ATOM      8  C   UNL     1      -1.501  12.264  20.673  0.00  0.00    +0.000 A 
ATOM      9  C   UNL     1      -1.353  13.168  19.623  0.00  0.00    +0.000 A 
ATOM     10  C   UNL     1      -0.460  12.856  18.612  0.00  0.00    +0.000 A 
ATOM     11  N   UNL     1       0.263  11.719  18.575  0.00  0.00    +0.000 NA
ATOM     12  C   UNL     1       0.124  10.849  19.586  0.00  0.00    +0.000 A 
ATOM     13  N   UNL     1       0.817   9.629  19.584  0.00  0.00    +0.000 N 
ATOM     14  C   UNL     1       1.615   9.169  18.557  0.00  0.00    +0.000 C 
ATOM     15  O   UNL     1       1.857   9.702  17.484  0.00  0.00    +0.000 OA
ATOM     16  C   UNL     1      -0.722  11.100  20.665  0.00  0.00    +0.000 A 
ATOM     17  H   UNL     1       0.747   9.076  20.424  0.00  0.00    +0.000 HD
ENDBRANCH   1  14
BRANCH   4  18
ATOM     18  C   UNL     1       3.655   3.811  19.647  0.00  0.00    +0.000 C 
ATOM     19  S   UNL     1       2.746   2.926  20.949  0.00  0.00    +0.000 S 
ATOM     20  C   UNL     1       1.098   2.785  20.204  0.00  0.00    +0.000 C 
ATOM     21  C   UNL     1       0.952   2.381  18.739  0.00  0.00    +0.000 C 
ATOM     22  C   UNL     1       1.922   2.941  17.711  0.00  0.00    +0.000 C 
ATOM     23  S   UNL     1       3.658   2.753  18.167  0.00  0.00    +0.000 S 
ENDBRANCH   4  18
TORSDOF 2
ENDMDL
MODEL 2
REMARK VINA RESULT:      -7.4      2.338      3.502
REMARK  Name = 
REMARK  3 active torsions:
REMARK  status: ('A' for Active; 'I' for Inactive)
REMARK    1  A    between atoms: C_1  and  C_2
REMARK    2  A    between atoms: C_8  and  C_10
REMARK    3  A    between atoms: C_13  and  C_14
REMARK                            x       y       z     vdW  Elec       q    Type
REMARK                         _______ _______ _______ _____ _____    ______ ____
ROOT
ATOM      1  C   UNL     1       1.873   8.595  18.986  0.00  0.00    +0.000 A 
ATOM      2  C   UNL     1       2.573   8.637  17.776  0.00  0.00    +0.000 A 
ATOM      3  C   UNL     1       3.361   7.545  17.381  0.00  0.00    +0.000 A 
ATOM      4  C   UNL     1       3.484   6.397  18.192  0.00  0.00    +0.000 A 
ATOM      5  C   UNL     1       2.811   6.414  19.430  0.00  0.00    +0.000 A 
ATOM      6  C   UNL     1       2.028   7.499  19.830  0.00  0.00    +0.000 A 
ENDROOT
BRANCH   1  14
ATOM      7  C   UNL     1      -4.464  11.486  16.898  0.00  0.00    +0.000 C 
ATOM      8  C   UNL     1      -3.414  11.422  17.964  0.00  0.00    +0.000 A 
ATOM      9  C   UNL     1      -3.473  12.246  19.086  0.00  0.00    +0.000 A 
ATOM     10  C   UNL     1      -2.450  12.160  20.015  0.00  0.00    +0.000 A 
ATOM     11  N   UNL     1      -1.389  11.339  19.888  0.00  0.00    +0.000 NA
ATOM     12  C   UNL     1      -1.331  10.544  18.809  0.00  0.00    +0.000 A 
ATOM     13  N   UNL     1      -0.232   9.698  18.599  0.00  0.00    +0.000 N 
ATOM     14  C   UNL     1       0.897   9.648  19.390  0.00  0.00    +0.000 C 
ATOM     15  O   UNL     1       1.161  10.313  20.383  0.00  0.00    +0.000 OA
ATOM     16  C   UNL     1      -2.337  10.535  17.845  0.00  0.00    +0.000 A 
ATOM     17  H   UNL     1      -0.307   9.053  17.827  0.00  0.00    +0.000 HD
ENDBRANCH   1  14
BRANCH   4  18
ATOM     18  C   UNL     1       4.143   5.097  17.718  0.00  0.00    +0.000 C 
ATOM     19  S   UNL     1       5.161   5.147  16.212  0.00  0.00    +0.000 S 
ATOM     20  C   UNL     1       6.613   6.068  16.790  0.00  0.00    +0.000 C 
ATOM     21  C   UNL     1       7.239   5.739  18.144  0.00  0.00    +0.000 C 
ATOM     22  C   UNL     1       6.336   5.429  19.327  0.00  0.00    +0.000 C 
ATOM     23  S   UNL     1       5.081   4.180  18.980  0.00  0.00    +0.000 S 
ENDBRANCH   4  18
TORSDOF 2
ENDMDL
MODEL 3
REMARK VINA RESULT:      -7.2      2.103      2.464
REMARK  Name = 
REMARK  3 active torsions:
REMARK  status: ('A' for Active; 'I' for Inactive)
REMARK    1  A    between atoms: C_1  and  C_2
REMARK    2  A    between atoms: C_8  and  C_10
REMARK    3  A    between atoms: C_13  and  C_14
REMARK                            x       y       z     vdW  Elec       q    Type
REMARK                         _______ _______ _______ _____ _____    ______ ____
ROOT
ATOM      1  C   UNL     1       2.085   8.175  18.912  0.00  0.00    +0.000 A 
ATOM      2  C   UNL     1       2.916   8.059  17.793  0.00  0.00    +0.000 A 
ATOM      3  C   UNL     1       3.762   6.947  17.659  0.00  0.00    +0.000 A 
ATOM      4  C   UNL     1       3.813   5.940  18.645  0.00  0.00    +0.000 A 
ATOM      5  C   UNL     1       3.004   6.120  19.785  0.00  0.00    +0.000 A 
ATOM      6  C   UNL     1       2.162   7.225  19.926  0.00  0.00    +0.000 A 
ENDROOT
BRANCH   1  14
ATOM      7  C   UNL     1      -3.799  10.745  15.498  0.00  0.00    +0.000 C 
ATOM      8  C   UNL     1      -2.950  10.799  16.731  0.00  0.00    +0.000 A 
ATOM      9  C   UNL     1      -3.205  11.720  17.743  0.00  0.00    +0.000 A 
ATOM     10  C   UNL     1      -2.360  11.739  18.839  0.00  0.00    +0.000 A 
ATOM     11  N   UNL     1      -1.290  10.930  18.975  0.00  0.00    +0.000 NA
ATOM     12  C   UNL     1      -1.044  10.041  18.002  0.00  0.00    +0.000 A 
ATOM     13  N   UNL     1       0.077   9.199  18.066  0.00  0.00    +0.000 N 
ATOM     14  C   UNL     1       1.051   9.243  19.041  0.00  0.00    +0.000 C 
ATOM     15  O   UNL     1       1.136  10.000  19.998  0.00  0.00    +0.000 OA
ATOM     16  C   UNL     1      -1.867   9.924  16.884  0.00  0.00    +0.000 A 
ATOM     17  H   UNL     1       0.138   8.485  17.356  0.00  0.00    +0.000 HD
ENDBRANCH   1  14
BRANCH   4  18
ATOM     18  C   UNL     1       4.544   4.606  18.451  0.00  0.00    +0.000 C 
ATOM     19  S   UNL     1       4.386   3.341  19.746  0.00  0.00    +0.000 S 
ATOM     20  C   UNL     1       2.664   2.813  19.526  0.00  0.00    +0.000 C 
ATOM     21  C   UNL     1       2.113   2.567  18.123  0.00  0.00    +0.000 C 
ATOM     22  C   UNL     1       2.499   3.509  16.994  0.00  0.00    +0.000 C 
ATOM     23  S   UNL     1       4.276   3.785  16.849  0.00  0.00    +0.000 S 
ENDBRANCH   4  18
TORSDOF 2
ENDMDL
MODEL 4
REMARK VINA RESULT:      -7.1      2.207      3.676
REMARK  Name = 
REMARK  3 active torsions:
REMARK  status: ('A' for Active; 'I' for Inactive)
REMARK    1  A    between atoms: C_1  and  C_2
REMARK    2  A    between atoms: C_8  and  C_10
REMARK    3  A    between atoms: C_13  and  C_14
REMARK                            x       y       z     vdW  Elec       q    Type
REMARK                         _______ _______ _______ _____ _____    ______ ____
ROOT
ATOM      1  C   UNL     1       1.817   7.718  19.949  0.00  0.00    +0.000 A 
ATOM      2  C   UNL     1       2.047   6.369  20.237  0.00  0.00    +0.000 A 
ATOM      3  C   UNL     1       2.765   5.570  19.333  0.00  0.00    +0.000 A 
ATOM      4  C   UNL     1       3.250   6.094  18.116  0.00  0.00    +0.000 A 
ATOM      5  C   UNL     1       2.950   7.441  17.835  0.00  0.00    +0.000 A 
ATOM      6  C   UNL     1       2.234   8.240  18.728  0.00  0.00    +0.000 A 
ENDROOT
BRANCH   1  14
ATOM      7  C   UNL     1      -2.729  13.387  20.215  0.00  0.00    +0.000 C 
ATOM      8  C   UNL     1      -1.954  12.373  20.998  0.00  0.00    +0.000 A 
ATOM      9  C   UNL     1      -1.917  12.410  22.390  0.00  0.00    +0.000 A 
ATOM     10  C   UNL     1      -1.153  11.463  23.050  0.00  0.00    +0.000 A 
ATOM     11  N   UNL     1      -0.426  10.517  22.423  0.00  0.00    +0.000 NA
ATOM     12  C   UNL     1      -0.462  10.478  21.083  0.00  0.00    +0.000 A 
ATOM     13  N   UNL     1       0.305   9.543  20.371  0.00  0.00    +0.000 N 
ATOM     14  C   UNL     1       1.203   8.658  20.931  0.00  0.00    +0.000 C 
ATOM     15  O   UNL     1       1.507   8.526  22.108  0.00  0.00    +0.000 OA
ATOM     16  C   UNL     1      -1.237  11.366  20.340  0.00  0.00    +0.000 A 
ATOM     17  H   UNL     1       0.145   9.502  19.376  0.00  0.00    +0.000 HD
ENDBRANCH   1  14
BRANCH   4  18
ATOM     18  C   UNL     1       4.222   5.337  17.201  0.00  0.00    +0.000 C 
ATOM     19  S   UNL     1       5.262   6.303  16.065  0.00  0.00    +0.000 S 
ATOM     20  C   UNL     1       6.426   7.083  17.218  0.00  0.00    +0.000 C 
ATOM     21  C   UNL     1       7.053   6.264  18.344  0.00  0.00    +0.000 C 
ATOM     22  C   UNL     1       6.200   5.255  19.096  0.00  0.00    +0.000 C 
ATOM     23  S   UNL     1       5.296   4.120  18.024  0.00  0.00    +0.000 S 
ENDBRANCH   4  18
TORSDOF 2
ENDMDL
MODEL 5
REMARK VINA RESULT:      -7.1      2.101      3.424
REMARK  Name = 
REMARK  3 active torsions:
REMARK  status: ('A' for Active; 'I' for Inactive)
REMARK    1  A    between atoms: C_1  and  C_2
REMARK    2  A    between atoms: C_8  and  C_10
REMARK    3  A    between atoms: C_13  and  C_14
REMARK                            x       y       z     vdW  Elec       q    Type
REMARK                         _______ _______ _______ _____ _____    ______ ____
ROOT
ATOM      1  C   UNL     1       1.827   8.475  19.311  0.00  0.00    +0.000 A 
ATOM      2  C   UNL     1       2.447   8.663  18.072  0.00  0.00    +0.000 A 
ATOM      3  C   UNL     1       3.253   7.650  17.529  0.00  0.00    +0.000 A 
ATOM      4  C   UNL     1       3.475   6.439  18.218  0.00  0.00    +0.000 A 
ATOM      5  C   UNL     1       2.880   6.309  19.489  0.00  0.00    +0.000 A 
ATOM      6  C   UNL     1       2.080   7.314  20.036  0.00  0.00    +0.000 A 
ENDROOT
BRANCH   1  14
ATOM      7  C   UNL     1      -0.145  15.453  18.776  0.00  0.00    +0.000 C 
ATOM      8  C   UNL     1      -0.476  14.104  19.335  0.00  0.00    +0.000 A 
ATOM      9  C   UNL     1      -1.555  13.924  20.197  0.00  0.00    +0.000 A 
ATOM     10  C   UNL     1      -1.783  12.657  20.705  0.00  0.00    +0.000 A 
ATOM     11  N   UNL     1      -1.009  11.588  20.429  0.00  0.00    +0.000 NA
ATOM     12  C   UNL     1       0.029  11.759  19.597  0.00  0.00    +0.000 A 
ATOM     13  N   UNL     1       0.896  10.695  19.304  0.00  0.00    +0.000 N 
ATOM     14  C   UNL     1       0.835   9.439  19.871  0.00  0.00    +0.000 C 
ATOM     15  O   UNL     1       0.056   9.023  20.716  0.00  0.00    +0.000 OA
ATOM     16  C   UNL     1       0.308  12.990  19.008  0.00  0.00    +0.000 A 
ATOM     17  H   UNL     1       1.587  10.868  18.590  0.00  0.00    +0.000 HD
ENDBRANCH   1  14
BRANCH   4  18
ATOM     18  C   UNL     1       4.157   5.221  17.584  0.00  0.00    +0.000 C 
ATOM     19  S   UNL     1       5.213   5.487  16.128  0.00  0.00    +0.000 S 
ATOM     20  C   UNL     1       6.642   6.324  16.869  0.00  0.00    +0.000 C 
ATOM     21  C   UNL     1       7.235   5.810  18.179  0.00  0.00    +0.000 C 
ATOM     22  C   UNL     1       6.304   5.333  19.282  0.00  0.00    +0.000 C 
ATOM     23  S   UNL     1       5.068   4.141  18.730  0.00  0.00    +0.000 S 
ENDBRANCH   4  18
TORSDOF 2
ENDMDL
MODEL 6
REMARK VINA RESULT:      -7.0      2.166      3.179
REMARK  Name = 
REMARK  3 active torsions:
REMARK  status: ('A' for Active; 'I' for Inactive)
REMARK    1  A    between atoms: C_1  and  C_2
REMARK    2  A    between atoms: C_8  and  C_10
REMARK    3  A    between atoms: C_13  and  C_14
REMARK                            x       y       z     vdW  Elec       q    Type
REMARK                         _______ _______ _______ _____ _____    ______ ____
ROOT
ATOM      1  C   UNL     1       1.228   9.250  19.676  0.00  0.00    +0.000 A 
ATOM      2  C   UNL     1       1.032   8.408  20.775  0.00  0.00    +0.000 A 
ATOM      3  C   UNL     1       1.573   7.113  20.773  0.00  0.00    +0.000 A 
ATOM      4  C   UNL     1       2.301   6.624  19.668  0.00  0.00    +0.000 A 
ATOM      5  C   UNL     1       2.428   7.480  18.556  0.00  0.00    +0.000 A 
ATOM      6  C   UNL     1       1.890   8.768  18.551  0.00  0.00    +0.000 A 
ENDROOT
BRANCH   1  14
ATOM      7  C   UNL     1       3.687  15.797  17.682  0.00  0.00    +0.000 C 
ATOM      8  C   UNL     1       2.521  15.003  18.186  0.00  0.00    +0.000 A 
ATOM      9  C   UNL     1       1.325  15.624  18.539  0.00  0.00    +0.000 A 
ATOM     10  C   UNL     1       0.299  14.835  19.031  0.00  0.00    +0.000 A 
ATOM     11  N   UNL     1       0.397  13.502  19.207  0.00  0.00    +0.000 NA
ATOM     12  C   UNL     1       1.547  12.903  18.866  0.00  0.00    +0.000 A 
ATOM     13  N   UNL     1       1.725  11.525  19.064  0.00  0.00    +0.000 N 
ATOM     14  C   UNL     1       0.819  10.685  19.677  0.00  0.00    +0.000 C 
ATOM     15  O   UNL     1      -0.268  10.964  20.162  0.00  0.00    +0.000 OA
ATOM     16  C   UNL     1       2.617  13.613  18.324  0.00  0.00    +0.000 A 
ATOM     17  H   UNL     1       2.571  11.127  18.686  0.00  0.00    +0.000 HD
ENDBRANCH   1  14
BRANCH   4  18
ATOM     18  C   UNL     1       3.097   5.313  19.697  0.00  0.00    +0.000 C 
ATOM     19  S   UNL     1       2.609   4.036  20.897  0.00  0.00    +0.000 S 
ATOM     20  C   UNL     1       1.040   3.461  20.191  0.00  0.00    +0.000 C 
ATOM     21  C   UNL     1       0.923   3.205  18.690  0.00  0.00    +0.000 C 
ATOM     22  C   UNL     1       1.591   4.164  17.717  0.00  0.00    +0.000 C 
ATOM     23  S   UNL     1       3.325   4.492  18.090  0.00  0.00    +0.000 S 
ENDBRANCH   4  18
TORSDOF 2
ENDMDL
MODEL 7
REMARK VINA RESULT:      -7.0      1.175      1.634
REMARK  Name = 
REMARK  3 active torsions:
REMARK  status: ('A' for Active; 'I' for Inactive)
REMARK    1  A    between atoms: C_1  and  C_2
REMARK    2  A    between atoms: C_8  and  C_10
REMARK    3  A    between atoms: C_13  and  C_14
REMARK                            x       y       z     vdW  Elec       q    Type
REMARK                         _______ _______ _______ _____ _____    ______ ____
ROOT
ATOM      1  C   UNL     1       1.972   8.243  19.068  0.00  0.00    +0.000 A 
ATOM      2  C   UNL     1       1.868   7.278  20.075  0.00  0.00    +0.000 A 
ATOM      3  C   UNL     1       2.568   6.067  19.963  0.00  0.00    +0.000 A 
ATOM      4  C   UNL     1       3.369   5.784  18.837  0.00  0.00    +0.000 A 
ATOM      5  C   UNL     1       3.403   6.754  17.816  0.00  0.00    +0.000 A 
ATOM      6  C   UNL     1       2.706   7.960  17.920  0.00  0.00    +0.000 A 
ENDROOT
BRANCH   1  14
ATOM      7  C   UNL     1      -2.512  12.056  23.338  0.00  0.00    +0.000 C 
ATOM      8  C   UNL     1      -1.539  12.097  22.201  0.00  0.00    +0.000 A 
ATOM      9  C   UNL     1      -1.309  13.272  21.490  0.00  0.00    +0.000 A 
ATOM     10  C   UNL     1      -0.423  13.231  20.427  0.00  0.00    +0.000 A 
ATOM     11  N   UNL     1       0.217  12.114  20.027  0.00  0.00    +0.000 NA
ATOM     12  C   UNL     1      -0.001  10.982  20.712  0.00  0.00    +0.000 A 
ATOM     13  N   UNL     1       0.604   9.778  20.320  0.00  0.00    +0.000 N 
ATOM     14  C   UNL     1       1.384   9.608  19.195  0.00  0.00    +0.000 C 
ATOM     15  O   UNL     1       1.682  10.434  18.344  0.00  0.00    +0.000 OA
ATOM     16  C   UNL     1      -0.844  10.941  21.820  0.00  0.00    +0.000 A 
ATOM     17  H   UNL     1       0.480   8.994  20.943  0.00  0.00    +0.000 HD
ENDBRANCH   1  14
BRANCH   4  18
ATOM     18  C   UNL     1       4.323   4.586  18.761  0.00  0.00    +0.000 C 
ATOM     19  S   UNL     1       4.126   3.250  19.979  0.00  0.00    +0.000 S 
ATOM     20  C   UNL     1       2.580   2.482  19.424  0.00  0.00    +0.000 C 
ATOM     21  C   UNL     1       2.344   2.223  17.937  0.00  0.00    +0.000 C 
ATOM     22  C   UNL     1       2.782   3.264  16.920  0.00  0.00    +0.000 C 
ATOM     23  S   UNL     1       4.490   3.811  17.123  0.00  0.00    +0.000 S 
ENDBRANCH   4  18
TORSDOF 2
ENDMDL
MODEL 8
REMARK VINA RESULT:      -7.0      1.693      2.469
REMARK  Name = 
REMARK  3 active torsions:
REMARK  status: ('A' for Active; 'I' for Inactive)
REMARK    1  A    between atoms: C_1  and  C_2
REMARK    2  A    between atoms: C_8  and  C_10
REMARK    3  A    between atoms: C_13  and  C_14
REMARK                            x       y       z     vdW  Elec       q    Type
REMARK                         _______ _______ _______ _____ _____    ______ ____
ROOT
ATOM      1  C   UNL     1       1.153   9.010  20.161  0.00  0.00    +0.000 A 
ATOM      2  C   UNL     1       1.061   7.983  21.107  0.00  0.00    +0.000 A 
ATOM      3  C   UNL     1       1.665   6.742  20.857  0.00  0.00    +0.000 A 
ATOM      4  C   UNL     1       2.356   6.491  19.653  0.00  0.00    +0.000 A 
ATOM      5  C   UNL     1       2.379   7.529  18.700  0.00  0.00    +0.000 A 
ATOM      6  C   UNL     1       1.777   8.765  18.941  0.00  0.00    +0.000 A 
ENDROOT
BRANCH   1  14
ATOM      7  C   UNL     1      -3.710  12.593  24.210  0.00  0.00    +0.000 C 
ATOM      8  C   UNL     1      -2.539  12.700  23.282  0.00  0.00    +0.000 A 
ATOM      9  C   UNL     1      -2.079  13.939  22.841  0.00  0.00    +0.000 A 
ATOM     10  C   UNL     1      -1.015  13.964  21.956  0.00  0.00    +0.000 A 
ATOM     11  N   UNL     1      -0.409  12.857  21.479  0.00  0.00    +0.000 NA
ATOM     12  C   UNL     1      -0.850  11.664  21.904  0.00  0.00    +0.000 A 
ATOM     13  N   UNL     1      -0.289  10.476  21.414  0.00  0.00    +0.000 N 
ATOM     14  C   UNL     1       0.673  10.397  20.427  0.00  0.00    +0.000 C 
ATOM     15  O   UNL     1       1.196  11.307  19.801  0.00  0.00    +0.000 OA
ATOM     16  C   UNL     1      -1.888  11.547  22.826  0.00  0.00    +0.000 A 
ATOM     17  H   UNL     1      -0.595   9.623  21.857  0.00  0.00    +0.000 HD
ENDBRANCH   1  14
BRANCH   4  18
ATOM     18  C   UNL     1       3.218   5.243  19.420  0.00  0.00    +0.000 C 
ATOM     19  S   UNL     1       3.017   3.835  20.553  0.00  0.00    +0.000 S 
ATOM     20  C   UNL     1       1.385   3.211  20.065  0.00  0.00    +0.000 C 
ATOM     21  C   UNL     1       1.026   3.080  18.586  0.00  0.00    +0.000 C 
ATOM     22  C   UNL     1       1.461   4.166  17.614  0.00  0.00    +0.000 C 
ATOM     23  S   UNL     1       3.212   4.585  17.724  0.00  0.00    +0.000 S 
ENDBRANCH   4  18
TORSDOF 2
ENDMDL
MODEL 9
REMARK VINA RESULT:      -7.0      2.098      2.785
REMARK  Name = 
REMARK  3 active torsions:
REMARK  status: ('A' for Active; 'I' for Inactive)
REMARK    1  A    between atoms: C_1  and  C_2
REMARK    2  A    between atoms: C_8  and  C_10
REMARK    3  A    between atoms: C_13  and  C_14
REMARK                            x       y       z     vdW  Elec       q    Type
REMARK                         _______ _______ _______ _____ _____    ______ ____
ROOT
ATOM      1  C   UNL     1       1.730   8.551  19.002  0.00  0.00    +0.000 A 
ATOM      2  C   UNL     1       2.034   7.462  19.825  0.00  0.00    +0.000 A 
ATOM      3  C   UNL     1       3.021   6.543  19.439  0.00  0.00    +0.000 A 
ATOM      4  C   UNL     1       3.710   6.677  18.215  0.00  0.00    +0.000 A 
ATOM      5  C   UNL     1       3.336   7.753  17.385  0.00  0.00    +0.000 A 
ATOM      6  C   UNL     1       2.353   8.669  17.763  0.00  0.00    +0.000 A 
ENDROOT
BRANCH   1  14
ATOM      7  C   UNL     1      -4.615  11.582  17.148  0.00  0.00    +0.000 C 
ATOM      8  C   UNL     1      -3.514  11.516  18.160  0.00  0.00    +0.000 A 
ATOM      9  C   UNL     1      -3.489  12.374  19.257  0.00  0.00    +0.000 A 
ATOM     10  C   UNL     1      -2.423  12.284  20.136  0.00  0.00    +0.000 A 
ATOM     11  N   UNL     1      -1.395  11.425  19.981  0.00  0.00    +0.000 NA
ATOM     12  C   UNL     1      -1.418  10.597  18.926  0.00  0.00    +0.000 A 
ATOM     13  N   UNL     1      -0.357   9.710  18.688  0.00  0.00    +0.000 N 
ATOM     14  C   UNL     1       0.809   9.647  19.422  0.00  0.00    +0.000 C 
ATOM     15  O   UNL     1       1.143  10.332  20.378  0.00  0.00    +0.000 OA
ATOM     16  C   UNL     1      -2.472  10.591  18.015  0.00  0.00    +0.000 A 
ATOM     17  H   UNL     1      -0.493   9.045  17.941  0.00  0.00    +0.000 HD
ENDBRANCH   1  14
BRANCH   4  18
ATOM     18  C   UNL     1       4.941   5.840  17.845  0.00  0.00    +0.000 C 
ATOM     19  S   UNL     1       5.752   4.876  19.155  0.00  0.00    +0.000 S 
ATOM     20  C   UNL     1       4.531   3.566  19.447  0.00  0.00    +0.000 C 
ATOM     21  C   UNL     1       3.861   2.867  18.266  0.00  0.00    +0.000 C 
ATOM     22  C   UNL     1       3.441   3.686  17.056  0.00  0.00    +0.000 C 
ATOM     23  S   UNL     1       4.747   4.747  16.403  0.00  0.00    +0.000 S 
ENDBRANCH   4  18
TORSDOF 2
ENDMDL
