MODEL 1
REMARK VINA RESULT:      -8.4      0.000      0.000
REMARK  Name = 
REMARK  6 active torsions:
REMARK  status: ('A' for Active; 'I' for Inactive)
REMARK    1  A    between atoms: C_1  and  S_2
REMARK    2  A    between atoms: S_2  and  C_5
REMARK    3  A    between atoms: C_8  and  C_9
REMARK    4  A    between atoms: C_10  and  C_11
REMARK    5  A    between atoms: C_10  and  C_14
REMARK    6  A    between atoms: C_11  and  O_13
REMARK                            x       y       z     vdW  Elec       q    Type
REMARK                         _______ _______ _______ _____ _____    ______ ____
ROOT
ATOM      1  C   UNL     1       5.147   4.151  15.648  0.00  0.00    +0.000 C 
ATOM      2  C   UNL     1       6.363   4.734  15.561  0.00  0.00    +0.000 C 
ENDROOT
BRANCH   2   3
ATOM      3  C   UNL     1       6.982   5.389  16.729  0.00  0.00    +0.000 A 
ATOM      4  C   UNL     1       7.381   4.619  17.831  0.00  0.00    +0.000 A 
ATOM      5  C   UNL     1       7.977   5.225  18.938  0.00  0.00    +0.000 A 
ATOM      6  C   UNL     1       8.177   6.605  18.952  0.00  0.00    +0.000 A 
ATOM      7  C   UNL     1       7.773   7.372  17.861  0.00  0.00    +0.000 A 
ATOM      8 BR   UNL     1       8.046   9.243  17.879  0.00  0.00    +0.000 Br
ATOM      9  C   UNL     1       7.171   6.775  16.753  0.00  0.00    +0.000 A 
ENDBRANCH   2   3
BRANCH   1  13
ATOM     10  C   UNL     1       2.455   3.761  18.923  0.00  0.00    +0.000 A 
ATOM     11  C   UNL     1       2.691   5.018  18.363  0.00  0.00    +0.000 A 
ATOM     12  C   UNL     1       3.612   5.145  17.321  0.00  0.00    +0.000 A 
ATOM     13  C   UNL     1       4.304   4.023  16.846  0.00  0.00    +0.000 A 
ATOM     14  C   UNL     1       4.107   2.779  17.457  0.00  0.00    +0.000 A 
ATOM     15  C   UNL     1       3.185   2.644  18.499  0.00  0.00    +0.000 A 
BRANCH  10  17
ATOM     16  C   UNL     1       2.089   2.723  21.482  0.00  0.00    +0.000 C 
ATOM     17  S   UNL     1       1.221   3.580  20.190  0.00  0.00    +0.000 S 
ATOM     18  O   UNL     1       0.192   2.697  19.676  0.00  0.00    +0.000 OA
ATOM     19  O   UNL     1       0.891   4.906  20.676  0.00  0.00    +0.000 OA
ENDBRANCH  10  17
ENDBRANCH   1  13
BRANCH   2  20
ATOM     20  C   UNL     1       7.058   4.855  14.240  0.00  0.00    +0.000 C 
ATOM     21  O   UNL     1       7.999   5.610  14.047  0.00  0.00    +0.000 OA
BRANCH  20  22
ATOM     22  O   UNL     1       6.583   4.053  13.261  0.00  0.00    +0.000 OA
ATOM     23  H   UNL     1       6.328   4.503  12.438  0.00  0.00    +0.000 HD
ENDBRANCH  20  22
ENDBRANCH   2  20
TORSDOF 5
ENDMDL
MODEL 2
REMARK VINA RESULT:      -8.2      0.522      1.154
REMARK  Name = 
REMARK  6 active torsions:
REMARK  status: ('A' for Active; 'I' for Inactive)
REMARK    1  A    between atoms: C_1  and  S_2
REMARK    2  A    between atoms: S_2  and  C_5
REMARK    3  A    between atoms: C_8  and  C_9
REMARK    4  A    between atoms: C_10  and  C_11
REMARK    5  A    between atoms: C_10  and  C_14
REMARK    6  A    between atoms: C_11  and  O_13
REMARK                            x       y       z     vdW  Elec       q    Type
REMARK                         _______ _______ _______ _____ _____    ______ ____
ROOT
ATOM      1  C   UNL     1       5.102   4.217  15.558  0.00  0.00    +0.000 C 
ATOM      2  C   UNL     1       6.359   4.712  15.514  0.00  0.00    +0.000 C 
ENDROOT
BRANCH   2   3
ATOM      3  C   UNL     1       6.967   5.357  16.694  0.00  0.00    +0.000 A 
ATOM      4  C   UNL     1       7.348   4.579  17.797  0.00  0.00    +0.000 A 
ATOM      5  C   UNL     1       7.933   5.176  18.914  0.00  0.00    +0.000 A 
ATOM      6  C   UNL     1       8.142   6.554  18.938  0.00  0.00    +0.000 A 
ATOM      7  C   UNL     1       7.756   7.330  17.846  0.00  0.00    +0.000 A 
ATOM      8 BR   UNL     1       8.040   9.199  17.877  0.00  0.00    +0.000 Br
ATOM      9  C   UNL     1       7.165   6.741  16.727  0.00  0.00    +0.000 A 
ENDBRANCH   2   3
BRANCH   1  13
ATOM     10  C   UNL     1       2.737   4.103  19.095  0.00  0.00    +0.000 A 
ATOM     11  C   UNL     1       3.164   2.912  18.506  0.00  0.00    +0.000 A 
ATOM     12  C   UNL     1       3.899   2.956  17.319  0.00  0.00    +0.000 A 
ATOM     13  C   UNL     1       4.196   4.185  16.716  0.00  0.00    +0.000 A 
ATOM     14  C   UNL     1       3.709   5.369  17.280  0.00  0.00    +0.000 A 
ATOM     15  C   UNL     1       2.975   5.333  18.469  0.00  0.00    +0.000 A 
BRANCH  10  17
ATOM     16  C   UNL     1       2.646   2.696  21.498  0.00  0.00    +0.000 C 
ATOM     17  S   UNL     1       1.878   4.057  20.651  0.00  0.00    +0.000 S 
ATOM     18  O   UNL     1       0.500   3.699  20.380  0.00  0.00    +0.000 OA
ATOM     19  O   UNL     1       2.205   5.272  21.371  0.00  0.00    +0.000 OA
ENDBRANCH  10  17
ENDBRANCH   1  13
BRANCH   2  20
ATOM     20  C   UNL     1       7.123   4.744  14.227  0.00  0.00    +0.000 C 
ATOM     21  O   UNL     1       8.010   5.552  13.996  0.00  0.00    +0.000 OA
BRANCH  20  22
ATOM     22  O   UNL     1       6.775   3.800  13.325  0.00  0.00    +0.000 OA
ATOM     23  H   UNL     1       6.058   4.045  12.715  0.00  0.00    +0.000 HD
ENDBRANCH  20  22
ENDBRANCH   2  20
TORSDOF 5
ENDMDL
MODEL 3
REMARK VINA RESULT:      -8.0      0.922      1.462
REMARK  Name = 
REMARK  6 active torsions:
REMARK  status: ('A' for Active; 'I' for Inactive)
REMARK    1  A    between atoms: C_1  and  S_2
REMARK    2  A    between atoms: S_2  and  C_5
REMARK    3  A    between atoms: C_8  and  C_9
REMARK    4  A    between atoms: C_10  and  C_11
REMARK    5  A    between atoms: C_10  and  C_14
REMARK    6  A    between atoms: C_11  and  O_13
REMARK                            x       y       z     vdW  Elec       q    Type
REMARK                         _______ _______ _______ _____ _____    ______ ____
ROOT
ATOM      1  C   UNL     1       5.166   4.106  15.507  0.00  0.00    +0.000 C 
ATOM      2  C   UNL     1       6.377   4.705  15.452  0.00  0.00    +0.000 C 
ENDROOT
BRANCH   2   3
ATOM      3  C   UNL     1       6.967   5.345  16.643  0.00  0.00    +0.000 A 
ATOM      4  C   UNL     1       7.336   4.562  17.747  0.00  0.00    +0.000 A 
ATOM      5  C   UNL     1       7.903   5.155  18.876  0.00  0.00    +0.000 A 
ATOM      6  C   UNL     1       8.107   6.533  18.910  0.00  0.00    +0.000 A 
ATOM      7  C   UNL     1       7.734   7.314  17.817  0.00  0.00    +0.000 A 
ATOM      8 BR   UNL     1       8.012   9.184  17.863  0.00  0.00    +0.000 Br
ATOM      9  C   UNL     1       7.160   6.730  16.687  0.00  0.00    +0.000 A 
ENDBRANCH   2   3
BRANCH   1  13
ATOM     10  C   UNL     1       2.931   3.645  19.100  0.00  0.00    +0.000 A 
ATOM     11  C   UNL     1       3.455   2.521  18.459  0.00  0.00    +0.000 A 
ATOM     12  C   UNL     1       4.146   2.676  17.255  0.00  0.00    +0.000 A 
ATOM     13  C   UNL     1       4.304   3.947  16.687  0.00  0.00    +0.000 A 
ATOM     14  C   UNL     1       3.720   5.058  17.306  0.00  0.00    +0.000 A 
ATOM     15  C   UNL     1       3.029   4.912  18.512  0.00  0.00    +0.000 A 
BRANCH  10  17
ATOM     16  C   UNL     1       1.935   5.142  21.228  0.00  0.00    +0.000 C 
ATOM     17  S   UNL     1       2.127   3.464  20.676  0.00  0.00    +0.000 S 
ATOM     18  O   UNL     1       3.057   2.800  21.568  0.00  0.00    +0.000 OA
ATOM     19  O   UNL     1       0.806   2.919  20.436  0.00  0.00    +0.000 OA
ENDBRANCH  10  17
ENDBRANCH   1  13
BRANCH   2  20
ATOM     20  C   UNL     1       7.095   4.858  14.147  0.00  0.00    +0.000 C 
ATOM     21  O   UNL     1       8.045   5.611  13.991  0.00  0.00    +0.000 OA
BRANCH  20  22
ATOM     22  O   UNL     1       6.629   4.089  13.138  0.00  0.00    +0.000 OA
ATOM     23  H   UNL     1       6.020   4.529  12.522  0.00  0.00    +0.000 HD
ENDBRANCH  20  22
ENDBRANCH   2  20
TORSDOF 5
ENDMDL
MODEL 4
REMARK VINA RESULT:      -7.9      0.913      1.648
REMARK  Name = 
REMARK  6 active torsions:
REMARK  status: ('A' for Active; 'I' for Inactive)
REMARK    1  A    between atoms: C_1  and  S_2
REMARK    2  A    between atoms: S_2  and  C_5
REMARK    3  A    between atoms: C_8  and  C_9
REMARK    4  A    between atoms: C_10  and  C_11
REMARK    5  A    between atoms: C_10  and  C_14
REMARK    6  A    between atoms: C_11  and  O_13
REMARK                            x       y       z     vdW  Elec       q    Type
REMARK                         _______ _______ _______ _____ _____    ______ ____
ROOT
ATOM      1  C   UNL     1       5.143   4.186  15.613  0.00  0.00    +0.000 C 
ATOM      2  C   UNL     1       6.371   4.745  15.523  0.00  0.00    +0.000 C 
ENDROOT
BRANCH   2   3
ATOM      3  C   UNL     1       7.000   5.396  16.688  0.00  0.00    +0.000 A 
ATOM      4  C   UNL     1       7.431   4.621  17.774  0.00  0.00    +0.000 A 
ATOM      5  C   UNL     1       8.036   5.224  18.878  0.00  0.00    +0.000 A 
ATOM      6  C   UNL     1       8.215   6.606  18.904  0.00  0.00    +0.000 A 
ATOM      7  C   UNL     1       7.780   7.379  17.828  0.00  0.00    +0.000 A 
ATOM      8 BR   UNL     1       8.024   9.254  17.863  0.00  0.00    +0.000 Br
ATOM      9  C   UNL     1       7.168   6.784  16.724  0.00  0.00    +0.000 A 
ENDBRANCH   2   3
BRANCH   1  13
ATOM     10  C   UNL     1       2.954   3.890  19.251  0.00  0.00    +0.000 A 
ATOM     11  C   UNL     1       3.442   2.735  18.638  0.00  0.00    +0.000 A 
ATOM     12  C   UNL     1       4.117   2.836  17.420  0.00  0.00    +0.000 A 
ATOM     13  C   UNL     1       4.295   4.084  16.809  0.00  0.00    +0.000 A 
ATOM     14  C   UNL     1       3.746   5.228  17.401  0.00  0.00    +0.000 A 
ATOM     15  C   UNL     1       3.071   5.135  18.621  0.00  0.00    +0.000 A 
BRANCH  10  17
ATOM     16  C   UNL     1       0.620   2.990  20.478  0.00  0.00    +0.000 C 
ATOM     17  S   UNL     1       2.171   3.778  20.843  0.00  0.00    +0.000 S 
ATOM     18  O   UNL     1       1.895   5.129  21.292  0.00  0.00    +0.000 OA
ATOM     19  O   UNL     1       2.954   2.867  21.655  0.00  0.00    +0.000 OA
ENDBRANCH  10  17
ENDBRANCH   1  13
BRANCH   2  20
ATOM     20  C   UNL     1       7.071   4.842  14.203  0.00  0.00    +0.000 C 
ATOM     21  O   UNL     1       6.703   4.240  13.206  0.00  0.00    +0.000 OA
BRANCH  20  22
ATOM     22  O   UNL     1       8.145   5.662  14.178  0.00  0.00    +0.000 OA
ATOM     23  H   UNL     1       8.700   5.601  13.382  0.00  0.00    +0.000 HD
ENDBRANCH  20  22
ENDBRANCH   2  20
TORSDOF 5
ENDMDL
MODEL 5
REMARK VINA RESULT:      -7.9      3.639      5.126
REMARK  Name = 
REMARK  6 active torsions:
REMARK  status: ('A' for Active; 'I' for Inactive)
REMARK    1  A    between atoms: C_1  and  S_2
REMARK    2  A    between atoms: S_2  and  C_5
REMARK    3  A    between atoms: C_8  and  C_9
REMARK    4  A    between atoms: C_10  and  C_11
REMARK    5  A    between atoms: C_10  and  C_14
REMARK    6  A    between atoms: C_11  and  O_13
REMARK                            x       y       z     vdW  Elec       q    Type
REMARK                         _______ _______ _______ _____ _____    ______ ____
ROOT
ATOM      1  C   UNL     1       2.907   4.366  19.504  0.00  0.00    +0.000 C 
ATOM      2  C   UNL     1       4.044   3.719  19.163  0.00  0.00    +0.000 C 
ENDROOT
BRANCH   2   3
ATOM      3  C   UNL     1       5.158   4.429  18.505  0.00  0.00    +0.000 A 
ATOM      4  C   UNL     1       6.009   5.248  19.261  0.00  0.00    +0.000 A 
ATOM      5  C   UNL     1       7.072   5.916  18.651  0.00  0.00    +0.000 A 
ATOM      6  C   UNL     1       7.292   5.771  17.282  0.00  0.00    +0.000 A 
ATOM      7  C   UNL     1       6.441   4.964  16.528  0.00  0.00    +0.000 A 
ATOM      8 BR   UNL     1       6.741   4.766  14.671  0.00  0.00    +0.000 Br
ATOM      9  C   UNL     1       5.373   4.297  17.129  0.00  0.00    +0.000 A 
ENDBRANCH   2   3
BRANCH   1  13
ATOM     10  C   UNL     1       1.767   8.428  18.936  0.00  0.00    +0.000 A 
ATOM     11  C   UNL     1       2.271   7.691  17.862  0.00  0.00    +0.000 A 
ATOM     12  C   UNL     1       2.688   6.374  18.068  0.00  0.00    +0.000 A 
ATOM     13  C   UNL     1       2.613   5.798  19.342  0.00  0.00    +0.000 A 
ATOM     14  C   UNL     1       2.166   6.566  20.424  0.00  0.00    +0.000 A 
ATOM     15  C   UNL     1       1.745   7.884  20.226  0.00  0.00    +0.000 A 
BRANCH  10  17
ATOM     16  C   UNL     1       0.891  10.688  20.309  0.00  0.00    +0.000 C 
ATOM     17  S   UNL     1       1.154  10.074  18.662  0.00  0.00    +0.000 S 
ATOM     18  O   UNL     1      -0.137   9.958  18.013  0.00  0.00    +0.000 OA
ATOM     19  O   UNL     1       2.223  10.848  18.063  0.00  0.00    +0.000 OA
ENDBRANCH  10  17
ENDBRANCH   1  13
BRANCH   2  20
ATOM     20  C   UNL     1       4.154   2.234  19.318  0.00  0.00    +0.000 C 
ATOM     21  O   UNL     1       3.454   1.445  18.701  0.00  0.00    +0.000 OA
BRANCH  20  22
ATOM     22  O   UNL     1       5.099   1.812  20.186  0.00  0.00    +0.000 OA
ATOM     23  H   UNL     1       6.007   2.098  19.988  0.00  0.00    +0.000 HD
ENDBRANCH  20  22
ENDBRANCH   2  20
TORSDOF 5
ENDMDL
MODEL 6
REMARK VINA RESULT:      -7.5      3.574      5.106
REMARK  Name = 
REMARK  6 active torsions:
REMARK  status: ('A' for Active; 'I' for Inactive)
REMARK    1  A    between atoms: C_1  and  S_2
REMARK    2  A    between atoms: S_2  and  C_5
REMARK    3  A    between atoms: C_8  and  C_9
REMARK    4  A    between atoms: C_10  and  C_11
REMARK    5  A    between atoms: C_10  and  C_14
REMARK    6  A    between atoms: C_11  and  O_13
REMARK                            x       y       z     vdW  Elec       q    Type
REMARK                         _______ _______ _______ _____ _____    ______ ____
ROOT
ATOM      1  C   UNL     1       2.970   4.122  19.696  0.00  0.00    +0.000 C 
ATOM      2  C   UNL     1       4.171   3.600  19.359  0.00  0.00    +0.000 C 
ENDROOT
BRANCH   2   3
ATOM      3  C   UNL     1       5.148   4.376  18.574  0.00  0.00    +0.000 A 
ATOM      4  C   UNL     1       5.987   5.298  19.217  0.00  0.00    +0.000 A 
ATOM      5  C   UNL     1       6.923   6.032  18.486  0.00  0.00    +0.000 A 
ATOM      6  C   UNL     1       7.026   5.850  17.108  0.00  0.00    +0.000 A 
ATOM      7  C   UNL     1       6.187   4.941  16.466  0.00  0.00    +0.000 A 
ATOM      8 BR   UNL     1       6.329   4.693  14.596  0.00  0.00    +0.000 Br
ATOM      9  C   UNL     1       5.245   4.208  17.189  0.00  0.00    +0.000 A 
ENDBRANCH   2   3
BRANCH   1  13
ATOM     10  C   UNL     1       1.824   8.152  18.944  0.00  0.00    +0.000 A 
ATOM     11  C   UNL     1       1.745   7.637  20.239  0.00  0.00    +0.000 A 
ATOM     12  C   UNL     1       2.076   6.300  20.469  0.00  0.00    +0.000 A 
ATOM     13  C   UNL     1       2.475   5.476  19.409  0.00  0.00    +0.000 A 
ATOM     14  C   UNL     1       2.490   5.986  18.105  0.00  0.00    +0.000 A 
ATOM     15  C   UNL     1       2.162   7.323  17.867  0.00  0.00    +0.000 A 
BRANCH  10  17
ATOM     16  C   UNL     1      -0.144   9.859  17.957  0.00  0.00    +0.000 C 
ATOM     17  S   UNL     1       1.488   9.875  18.661  0.00  0.00    +0.000 S 
ATOM     18  O   UNL     1       2.412  10.340  17.644  0.00  0.00    +0.000 OA
ATOM     19  O   UNL     1       1.411  10.527  19.953  0.00  0.00    +0.000 OA
ENDBRANCH  10  17
ENDBRANCH   1  13
BRANCH   2  20
ATOM     20  C   UNL     1       4.490   2.167  19.656  0.00  0.00    +0.000 C 
ATOM     21  O   UNL     1       5.084   1.809  20.661  0.00  0.00    +0.000 OA
BRANCH  20  22
ATOM     22  O   UNL     1       4.060   1.277  18.734  0.00  0.00    +0.000 OA
ATOM     23  H   UNL     1       4.330   0.355  18.884  0.00  0.00    +0.000 HD
ENDBRANCH  20  22
ENDBRANCH   2  20
TORSDOF 5
ENDMDL
MODEL 7
REMARK VINA RESULT:      -7.5      4.243      5.999
REMARK  Name = 
REMARK  6 active torsions:
REMARK  status: ('A' for Active; 'I' for Inactive)
REMARK    1  A    between atoms: C_1  and  S_2
REMARK    2  A    between atoms: S_2  and  C_5
REMARK    3  A    between atoms: C_8  and  C_9
REMARK    4  A    between atoms: C_10  and  C_11
REMARK    5  A    between atoms: C_10  and  C_14
REMARK    6  A    between atoms: C_11  and  O_13
REMARK                            x       y       z     vdW  Elec       q    Type
REMARK                         _______ _______ _______ _____ _____    ______ ____
ROOT
ATOM      1  C   UNL     1       4.138   6.460  17.876  0.00  0.00    +0.000 C 
ATOM      2  C   UNL     1       4.164   5.109  17.851  0.00  0.00    +0.000 C 
ENDROOT
BRANCH   2   3
ATOM      3  C   UNL     1       3.036   4.314  18.373  0.00  0.00    +0.000 A 
ATOM      4  C   UNL     1       1.970   3.974  17.527  0.00  0.00    +0.000 A 
ATOM      5  C   UNL     1       0.902   3.214  18.006  0.00  0.00    +0.000 A 
ATOM      6  C   UNL     1       0.892   2.789  19.334  0.00  0.00    +0.000 A 
ATOM      7  C   UNL     1       1.946   3.133  20.178  0.00  0.00    +0.000 A 
ATOM      8 BR   UNL     1       1.932   2.555  21.979  0.00  0.00    +0.000 Br
ATOM      9  C   UNL     1       3.015   3.898  19.708  0.00  0.00    +0.000 A 
ENDBRANCH   2   3
BRANCH   1  13
ATOM     10  C   UNL     1       1.185   9.138  19.368  0.00  0.00    +0.000 A 
ATOM     11  C   UNL     1       1.648   8.096  20.173  0.00  0.00    +0.000 A 
ATOM     12  C   UNL     1       2.581   7.193  19.659  0.00  0.00    +0.000 A 
ATOM     13  C   UNL     1       3.043   7.322  18.343  0.00  0.00    +0.000 A 
ATOM     14  C   UNL     1       2.525   8.333  17.525  0.00  0.00    +0.000 A 
ATOM     15  C   UNL     1       1.593   9.242  18.032  0.00  0.00    +0.000 A 
BRANCH  10  17
ATOM     16  C   UNL     1      -0.268   9.714  21.674  0.00  0.00    +0.000 C 
ATOM     17  S   UNL     1       0.065  10.341  20.044  0.00  0.00    +0.000 S 
ATOM     18  O   UNL     1      -1.164  10.276  19.277  0.00  0.00    +0.000 OA
ATOM     19  O   UNL     1       0.790  11.588  20.186  0.00  0.00    +0.000 OA
ENDBRANCH  10  17
ENDBRANCH   1  13
BRANCH   2  20
ATOM     20  C   UNL     1       5.397   4.377  17.420  0.00  0.00    +0.000 C 
ATOM     21  O   UNL     1       5.656   4.135  16.251  0.00  0.00    +0.000 OA
BRANCH  20  22
ATOM     22  O   UNL     1       6.228   4.006  18.419  0.00  0.00    +0.000 OA
ATOM     23  H   UNL     1       6.254   3.054  18.611  0.00  0.00    +0.000 HD
ENDBRANCH  20  22
ENDBRANCH   2  20
TORSDOF 5
ENDMDL
MODEL 8
REMARK VINA RESULT:      -7.4      3.482      5.145
REMARK  Name = 
REMARK  6 active torsions:
REMARK  status: ('A' for Active; 'I' for Inactive)
REMARK    1  A    between atoms: C_1  and  S_2
REMARK    2  A    between atoms: S_2  and  C_5
REMARK    3  A    between atoms: C_8  and  C_9
REMARK    4  A    between atoms: C_10  and  C_11
REMARK    5  A    between atoms: C_10  and  C_14
REMARK    6  A    between atoms: C_11  and  O_13
REMARK                            x       y       z     vdW  Elec       q    Type
REMARK                         _______ _______ _______ _____ _____    ______ ____
ROOT
ATOM      1  C   UNL     1       2.804   4.512  19.522  0.00  0.00    +0.000 C 
ATOM      2  C   UNL     1       3.797   3.813  18.927  0.00  0.00    +0.000 C 
ENDROOT
BRANCH   2   3
ATOM      3  C   UNL     1       4.716   4.457  17.971  0.00  0.00    +0.000 A 
ATOM      4  C   UNL     1       4.620   4.163  16.602  0.00  0.00    +0.000 A 
ATOM      5  C   UNL     1       5.477   4.773  15.686  0.00  0.00    +0.000 A 
ATOM      6  C   UNL     1       6.437   5.681  16.130  0.00  0.00    +0.000 A 
ATOM      7  C   UNL     1       6.540   5.968  17.491  0.00  0.00    +0.000 A 
ATOM      8 BR   UNL     1       7.841   7.202  18.092  0.00  0.00    +0.000 Br
ATOM      9  C   UNL     1       5.690   5.358  18.414  0.00  0.00    +0.000 A 
ENDBRANCH   2   3
BRANCH   1  13
ATOM     10  C   UNL     1       1.668   8.583  19.013  0.00  0.00    +0.000 A 
ATOM     11  C   UNL     1       2.118   7.845  17.917  0.00  0.00    +0.000 A 
ATOM     12  C   UNL     1       2.535   6.525  18.101  0.00  0.00    +0.000 A 
ATOM     13  C   UNL     1       2.513   5.946  19.377  0.00  0.00    +0.000 A 
ATOM     14  C   UNL     1       2.119   6.714  20.478  0.00  0.00    +0.000 A 
ATOM     15  C   UNL     1       1.699   8.035  20.302  0.00  0.00    +0.000 A 
BRANCH  10  17
ATOM     16  C   UNL     1       0.800  10.820  20.429  0.00  0.00    +0.000 C 
ATOM     17  S   UNL     1       1.054  10.234  18.770  0.00  0.00    +0.000 S 
ATOM     18  O   UNL     1      -0.240  10.129  18.126  0.00  0.00    +0.000 OA
ATOM     19  O   UNL     1       2.121  11.017  18.179  0.00  0.00    +0.000 OA
ENDBRANCH  10  17
ENDBRANCH   1  13
BRANCH   2  20
ATOM     20  C   UNL     1       3.906   2.332  19.117  0.00  0.00    +0.000 C 
ATOM     21  O   UNL     1       3.138   1.533  18.602  0.00  0.00    +0.000 OA
BRANCH  20  22
ATOM     22  O   UNL     1       4.934   1.923  19.893  0.00  0.00    +0.000 OA
ATOM     23  H   UNL     1       4.715   1.247  20.557  0.00  0.00    +0.000 HD
ENDBRANCH  20  22
ENDBRANCH   2  20
TORSDOF 5
ENDMDL
MODEL 9
REMARK VINA RESULT:      -7.2      3.390      5.074
REMARK  Name = 
REMARK  6 active torsions:
REMARK  status: ('A' for Active; 'I' for Inactive)
REMARK    1  A    between atoms: C_1  and  S_2
REMARK    2  A    between atoms: S_2  and  C_5
REMARK    3  A    between atoms: C_8  and  C_9
REMARK    4  A    between atoms: C_10  and  C_11
REMARK    5  A    between atoms: C_10  and  C_14
REMARK    6  A    between atoms: C_11  and  O_13
REMARK                            x       y       z     vdW  Elec       q    Type
REMARK                         _______ _______ _______ _____ _____    ______ ____
ROOT
ATOM      1  C   UNL     1       2.944   4.281  19.709  0.00  0.00    +0.000 C 
ATOM      2  C   UNL     1       4.027   3.691  19.153  0.00  0.00    +0.000 C 
ENDROOT
BRANCH   2   3
ATOM      3  C   UNL     1       4.812   4.372  18.106  0.00  0.00    +0.000 A 
ATOM      4  C   UNL     1       4.610   4.045  16.757  0.00  0.00    +0.000 A 
ATOM      5  C   UNL     1       5.340   4.688  15.757  0.00  0.00    +0.000 A 
ATOM      6  C   UNL     1       6.276   5.664  16.097  0.00  0.00    +0.000 A 
ATOM      7  C   UNL     1       6.484   5.984  17.438  0.00  0.00    +0.000 A 
ATOM      8 BR   UNL     1       7.752   7.309  17.899  0.00  0.00    +0.000 Br
ATOM      9  C   UNL     1       5.762   5.341  18.444  0.00  0.00    +0.000 A 
ENDBRANCH   2   3
BRANCH   1  13
ATOM     10  C   UNL     1       1.719   8.291  18.975  0.00  0.00    +0.000 A 
ATOM     11  C   UNL     1       1.701   7.785  20.277  0.00  0.00    +0.000 A 
ATOM     12  C   UNL     1       2.058   6.454  20.503  0.00  0.00    +0.000 A 
ATOM     13  C   UNL     1       2.421   5.626  19.433  0.00  0.00    +0.000 A 
ATOM     14  C   UNL     1       2.375   6.125  18.126  0.00  0.00    +0.000 A 
ATOM     15  C   UNL     1       2.021   7.457  17.892  0.00  0.00    +0.000 A 
BRANCH  10  17
ATOM     16  C   UNL     1      -0.283   9.960  17.993  0.00  0.00    +0.000 C 
ATOM     17  S   UNL     1       1.350  10.007  18.693  0.00  0.00    +0.000 S 
ATOM     18  O   UNL     1       2.263  10.489  17.674  0.00  0.00    +0.000 OA
ATOM     19  O   UNL     1       1.264  10.657  19.985  0.00  0.00    +0.000 OA
ENDBRANCH  10  17
ENDBRANCH   1  13
BRANCH   2  20
ATOM     20  C   UNL     1       4.379   2.275  19.484  0.00  0.00    +0.000 C 
ATOM     21  O   UNL     1       5.032   1.961  20.468  0.00  0.00    +0.000 OA
BRANCH  20  22
ATOM     22  O   UNL     1       3.911   1.346  18.622  0.00  0.00    +0.000 OA
ATOM     23  H   UNL     1       3.705   1.669  17.728  0.00  0.00    +0.000 HD
ENDBRANCH  20  22
ENDBRANCH   2  20
TORSDOF 5
ENDMDL
