MODEL 1
REMARK VINA RESULT:      -7.2      0.000      0.000
REMARK  Name = 
REMARK  9 active torsions:
REMARK  status: ('A' for Active; 'I' for Inactive)
REMARK    1  A    between atoms: C_1  and  N_2
REMARK    2  A    between atoms: N_2  and  C_3
REMARK    3  A    between atoms: N_2  and  S_4
REMARK    4  A    between atoms: S_4  and  C_7
REMARK    5  A    between atoms: C_11  and  N_12
REMARK    6  A    between atoms: N_12  and  C_13
REMARK    7  A    between atoms: C_13  and  N_15
REMARK    8  A    between atoms: C_20  and  C_21
REMARK    9  A    between atoms: C_21  and  O_22
REMARK                            x       y       z     vdW  Elec       q    Type
REMARK                         _______ _______ _______ _____ _____    ______ ____
ROOT
ATOM      1  N   UNL     1       2.986   6.125  20.236  0.00  0.00    +0.000 N 
ATOM      2  H   UNL     1       2.982   6.144  21.246  0.00  0.00    +0.000 HD
ENDROOT
BRANCH   1   7
ATOM      3  C   UNL     1       1.213   9.335  19.645  0.00  0.00    +0.000 A 
ATOM      4  C   UNL     1       1.374   9.471  18.264  0.00  0.00    +0.000 A 
ATOM      5  C   UNL     1       2.023   8.466  17.552  0.00  0.00    +0.000 A 
ATOM      6  C   UNL     1       2.530   7.350  18.222  0.00  0.00    +0.000 A 
ATOM      7  C   UNL     1       2.373   7.221  19.608  0.00  0.00    +0.000 A 
ATOM      8  C   UNL     1       1.726   8.224  20.322  0.00  0.00    +0.000 A 
BRANCH   3   9
ATOM      9  S   UNL     1       0.422  10.621  20.591  0.00  0.00    +0.000 S 
ATOM     10  O   UNL     1       1.009  10.600  21.913  0.00  0.00    +0.000 OA
ATOM     11  O   UNL     1      -1.003  10.484  20.406  0.00  0.00    +0.000 OA
BRANCH   9  13
ATOM     12  C   UNL     1      -0.105  12.776  19.048  0.00  0.00    +0.000 C 
ATOM     13  N   UNL     1       0.925  12.044  19.801  0.00  0.00    +0.000 NA
ATOM     14  C   UNL     1       1.860  12.913  20.541  0.00  0.00    +0.000 C 
ENDBRANCH   9  13
ENDBRANCH   3   9
ENDBRANCH   1   7
BRANCH   1  15
ATOM     15  C   UNL     1       3.803   5.134  19.717  0.00  0.00    +0.000 C 
ATOM     16  S   UNL     1       5.349   5.372  19.111  0.00  0.00    +0.000 S 
BRANCH  15  17
ATOM     17  N   UNL     1       3.212   3.863  19.822  0.00  0.00    +0.000 N 
ATOM     18  C   UNL     1       3.943   2.659  19.406  0.00  0.00    +0.000 C 
ATOM     19  C   UNL     1       3.413   2.112  18.084  0.00  0.00    +0.000 C 
ATOM     20  C   UNL     1       1.898   1.924  18.128  0.00  0.00    +0.000 C 
ATOM     21  C   UNL     1       1.190   3.197  18.603  0.00  0.00    +0.000 C 
ATOM     22  C   UNL     1       1.740   3.710  19.947  0.00  0.00    +0.000 C 
BRANCH  22  23
ATOM     23  C   UNL     1       1.330   2.796  21.119  0.00  0.00    +0.000 C 
BRANCH  23  24
ATOM     24  O   UNL     1       2.086   3.081  22.289  0.00  0.00    +0.000 OA
ATOM     25  H   UNL     1       1.784   2.459  22.977  0.00  0.00    +0.000 HD
ENDBRANCH  23  24
ENDBRANCH  22  23
ENDBRANCH  15  17
ENDBRANCH   1  15
TORSDOF 7
ENDMDL
MODEL 2
REMARK VINA RESULT:      -7.1      1.306      1.669
REMARK  Name = 
REMARK  9 active torsions:
REMARK  status: ('A' for Active; 'I' for Inactive)
REMARK    1  A    between atoms: C_1  and  N_2
REMARK    2  A    between atoms: N_2  and  C_3
REMARK    3  A    between atoms: N_2  and  S_4
REMARK    4  A    between atoms: S_4  and  C_7
REMARK    5  A    between atoms: C_11  and  N_12
REMARK    6  A    between atoms: N_12  and  C_13
REMARK    7  A    between atoms: C_13  and  N_15
REMARK    8  A    between atoms: C_20  and  C_21
REMARK    9  A    between atoms: C_21  and  O_22
REMARK                            x       y       z     vdW  Elec       q    Type
REMARK                         _______ _______ _______ _____ _____    ______ ____
ROOT
ATOM      1  N   UNL     1       3.241   5.967  19.956  0.00  0.00    +0.000 N 
ATOM      2  H   UNL     1       3.194   5.803  20.952  0.00  0.00    +0.000 HD
ENDROOT
BRANCH   1   7
ATOM      3  C   UNL     1       1.244   9.098  19.847  0.00  0.00    +0.000 A 
ATOM      4  C   UNL     1       1.416   9.470  18.511  0.00  0.00    +0.000 A 
ATOM      5  C   UNL     1       2.148   8.643  17.662  0.00  0.00    +0.000 A 
ATOM      6  C   UNL     1       2.725   7.471  18.156  0.00  0.00    +0.000 A 
ATOM      7  C   UNL     1       2.558   7.106  19.498  0.00  0.00    +0.000 A 
ATOM      8  C   UNL     1       1.828   7.929  20.348  0.00  0.00    +0.000 A 
BRANCH   3   9
ATOM      9  S   UNL     1       0.347  10.152  20.968  0.00  0.00    +0.000 S 
ATOM     10  O   UNL     1       1.305  10.680  21.915  0.00  0.00    +0.000 OA
ATOM     11  O   UNL     1      -0.818   9.425  21.411  0.00  0.00    +0.000 OA
BRANCH   9  13
ATOM     12  C   UNL     1      -1.553  11.341  19.458  0.00  0.00    +0.000 C 
ATOM     13  N   UNL     1      -0.174  11.426  19.963  0.00  0.00    +0.000 NA
ATOM     14  C   UNL     1       0.240  12.786  20.356  0.00  0.00    +0.000 C 
ENDBRANCH   9  13
ENDBRANCH   3   9
ENDBRANCH   1   7
BRANCH   1  15
ATOM     15  C   UNL     1       4.162   5.156  19.316  0.00  0.00    +0.000 C 
ATOM     16  S   UNL     1       5.796   5.498  19.137  0.00  0.00    +0.000 S 
BRANCH  15  17
ATOM     17  N   UNL     1       3.585   3.949  18.885  0.00  0.00    +0.000 N 
ATOM     18  C   UNL     1       2.873   3.872  17.604  0.00  0.00    +0.000 C 
ATOM     19  C   UNL     1       1.362   3.801  17.806  0.00  0.00    +0.000 C 
ATOM     20  C   UNL     1       0.984   2.690  18.784  0.00  0.00    +0.000 C 
ATOM     21  C   UNL     1       1.783   2.797  20.088  0.00  0.00    +0.000 C 
ATOM     22  C   UNL     1       3.303   2.849  19.844  0.00  0.00    +0.000 C 
BRANCH  22  23
ATOM     23  C   UNL     1       3.854   1.488  19.374  0.00  0.00    +0.000 C 
BRANCH  23  24
ATOM     24  O   UNL     1       5.180   1.275  19.844  0.00  0.00    +0.000 OA
ATOM     25  H   UNL     1       5.762   1.298  19.061  0.00  0.00    +0.000 HD
ENDBRANCH  23  24
ENDBRANCH  22  23
ENDBRANCH  15  17
ENDBRANCH   1  15
TORSDOF 7
ENDMDL
MODEL 3
REMARK VINA RESULT:      -7.0      1.728      2.200
REMARK  Name = 
REMARK  9 active torsions:
REMARK  status: ('A' for Active; 'I' for Inactive)
REMARK    1  A    between atoms: C_1  and  N_2
REMARK    2  A    between atoms: N_2  and  C_3
REMARK    3  A    between atoms: N_2  and  S_4
REMARK    4  A    between atoms: S_4  and  C_7
REMARK    5  A    between atoms: C_11  and  N_12
REMARK    6  A    between atoms: N_12  and  C_13
REMARK    7  A    between atoms: C_13  and  N_15
REMARK    8  A    between atoms: C_20  and  C_21
REMARK    9  A    between atoms: C_21  and  O_22
REMARK                            x       y       z     vdW  Elec       q    Type
REMARK                         _______ _______ _______ _____ _____    ______ ____
ROOT
ATOM      1  N   UNL     1       2.721   6.314  20.293  0.00  0.00    +0.000 N 
ATOM      2  H   UNL     1       3.539   6.485  20.862  0.00  0.00    +0.000 HD
ENDROOT
BRANCH   1   7
ATOM      3  C   UNL     1       1.121   9.605  19.659  0.00  0.00    +0.000 A 
ATOM      4  C   UNL     1       1.348   9.745  18.288  0.00  0.00    +0.000 A 
ATOM      5  C   UNL     1       1.982   8.718  17.593  0.00  0.00    +0.000 A 
ATOM      6  C   UNL     1       2.408   7.575  18.274  0.00  0.00    +0.000 A 
ATOM      7  C   UNL     1       2.186   7.442  19.650  0.00  0.00    +0.000 A 
ATOM      8  C   UNL     1       1.554   8.467  20.346  0.00  0.00    +0.000 A 
BRANCH   3   9
ATOM      9  S   UNL     1       0.349  10.918  20.583  0.00  0.00    +0.000 S 
ATOM     10  O   UNL     1       0.892  10.873  21.923  0.00  0.00    +0.000 OA
ATOM     11  O   UNL     1      -1.073  10.835  20.351  0.00  0.00    +0.000 OA
BRANCH   9  13
ATOM     12  C   UNL     1      -0.067  13.152  19.121  0.00  0.00    +0.000 C 
ATOM     13  N   UNL     1       0.930  12.323  19.814  0.00  0.00    +0.000 NA
ATOM     14  C   UNL     1       1.954  13.097  20.542  0.00  0.00    +0.000 C 
ENDBRANCH   9  13
ENDBRANCH   3   9
ENDBRANCH   1   7
BRANCH   1  15
ATOM     15  C   UNL     1       2.467   4.966  20.102  0.00  0.00    +0.000 C 
ATOM     16  S   UNL     1       1.007   4.201  20.417  0.00  0.00    +0.000 S 
BRANCH  15  17
ATOM     17  N   UNL     1       3.567   4.304  19.530  0.00  0.00    +0.000 N 
ATOM     18  C   UNL     1       4.865   4.978  19.399  0.00  0.00    +0.000 C 
ATOM     19  C   UNL     1       5.145   5.377  17.953  0.00  0.00    +0.000 C 
ATOM     20  C   UNL     1       4.973   4.191  17.006  0.00  0.00    +0.000 C 
ATOM     21  C   UNL     1       3.618   3.503  17.211  0.00  0.00    +0.000 C 
ATOM     22  C   UNL     1       3.379   3.101  18.678  0.00  0.00    +0.000 C 
BRANCH  22  23
ATOM     23  C   UNL     1       4.276   1.920  19.101  0.00  0.00    +0.000 C 
BRANCH  23  24
ATOM     24  O   UNL     1       3.928   0.729  18.407  0.00  0.00    +0.000 OA
ATOM     25  H   UNL     1       4.703   0.138  18.457  0.00  0.00    +0.000 HD
ENDBRANCH  23  24
ENDBRANCH  22  23
ENDBRANCH  15  17
ENDBRANCH   1  15
TORSDOF 7
ENDMDL
MODEL 4
REMARK VINA RESULT:      -6.9      0.967      1.011
REMARK  Name = 
REMARK  9 active torsions:
REMARK  status: ('A' for Active; 'I' for Inactive)
REMARK    1  A    between atoms: C_1  and  N_2
REMARK    2  A    between atoms: N_2  and  C_3
REMARK    3  A    between atoms: N_2  and  S_4
REMARK    4  A    between atoms: S_4  and  C_7
REMARK    5  A    between atoms: C_11  and  N_12
REMARK    6  A    between atoms: N_12  and  C_13
REMARK    7  A    between atoms: C_13  and  N_15
REMARK    8  A    between atoms: C_20  and  C_21
REMARK    9  A    between atoms: C_21  and  O_22
REMARK                            x       y       z     vdW  Elec       q    Type
REMARK                         _______ _______ _______ _____ _____    ______ ____
ROOT
ATOM      1  N   UNL     1       3.638   5.767  20.010  0.00  0.00    +0.000 N 
ATOM      2  H   UNL     1       4.099   5.931  20.893  0.00  0.00    +0.000 HD
ENDROOT
BRANCH   1   7
ATOM      3  C   UNL     1       1.398   8.724  19.818  0.00  0.00    +0.000 A 
ATOM      4  C   UNL     1       1.548   9.078  18.475  0.00  0.00    +0.000 A 
ATOM      5  C   UNL     1       2.349   8.294  17.649  0.00  0.00    +0.000 A 
ATOM      6  C   UNL     1       3.016   7.184  18.173  0.00  0.00    +0.000 A 
ATOM      7  C   UNL     1       2.869   6.837  19.522  0.00  0.00    +0.000 A 
ATOM      8  C   UNL     1       2.069   7.618  20.349  0.00  0.00    +0.000 A 
BRANCH   3   9
ATOM      9  S   UNL     1       0.411   9.729  20.909  0.00  0.00    +0.000 S 
ATOM     10  O   UNL     1       1.273  10.158  21.990  0.00  0.00    +0.000 OA
ATOM     11  O   UNL     1      -0.814   9.012  21.172  0.00  0.00    +0.000 OA
BRANCH   9  13
ATOM     12  C   UNL     1      -1.336  11.159  19.425  0.00  0.00    +0.000 C 
ATOM     13  N   UNL     1       0.036  11.085  19.949  0.00  0.00    +0.000 NA
ATOM     14  C   UNL     1       0.578  12.381  20.400  0.00  0.00    +0.000 C 
ENDBRANCH   9  13
ENDBRANCH   3   9
ENDBRANCH   1   7
BRANCH   1  15
ATOM     15  C   UNL     1       4.065   4.610  19.382  0.00  0.00    +0.000 C 
ATOM     16  S   UNL     1       5.461   4.465  18.462  0.00  0.00    +0.000 S 
BRANCH  15  17
ATOM     17  N   UNL     1       3.223   3.521  19.665  0.00  0.00    +0.000 N 
ATOM     18  C   UNL     1       3.333   2.269  18.906  0.00  0.00    +0.000 C 
ATOM     19  C   UNL     1       2.178   2.106  17.923  0.00  0.00    +0.000 C 
ATOM     20  C   UNL     1       0.829   2.285  18.616  0.00  0.00    +0.000 C 
ATOM     21  C   UNL     1       0.782   3.588  19.422  0.00  0.00    +0.000 C 
ATOM     22  C   UNL     1       1.954   3.708  20.415  0.00  0.00    +0.000 C 
BRANCH  22  23
ATOM     23  C   UNL     1       1.805   2.728  21.596  0.00  0.00    +0.000 C 
BRANCH  23  24
ATOM     24  O   UNL     1       3.073   2.297  22.076  0.00  0.00    +0.000 OA
ATOM     25  H   UNL     1       3.714   2.992  21.837  0.00  0.00    +0.000 HD
ENDBRANCH  23  24
ENDBRANCH  22  23
ENDBRANCH  15  17
ENDBRANCH   1  15
TORSDOF 7
ENDMDL
MODEL 5
REMARK VINA RESULT:      -6.9      1.680      2.005
REMARK  Name = 
REMARK  9 active torsions:
REMARK  status: ('A' for Active; 'I' for Inactive)
REMARK    1  A    between atoms: C_1  and  N_2
REMARK    2  A    between atoms: N_2  and  C_3
REMARK    3  A    between atoms: N_2  and  S_4
REMARK    4  A    between atoms: S_4  and  C_7
REMARK    5  A    between atoms: C_11  and  N_12
REMARK    6  A    between atoms: N_12  and  C_13
REMARK    7  A    between atoms: C_13  and  N_15
REMARK    8  A    between atoms: C_20  and  C_21
REMARK    9  A    between atoms: C_21  and  O_22
REMARK                            x       y       z     vdW  Elec       q    Type
REMARK                         _______ _______ _______ _____ _____    ______ ____
ROOT
ATOM      1  N   UNL     1       3.721   6.044  18.990  0.00  0.00    +0.000 N 
ATOM      2  H   UNL     1       4.519   6.171  19.598  0.00  0.00    +0.000 HD
ENDROOT
BRANCH   1   7
ATOM      3  C   UNL     1       1.333   8.693  20.028  0.00  0.00    +0.000 A 
ATOM      4  C   UNL     1       1.167   9.381  18.824  0.00  0.00    +0.000 A 
ATOM      5  C   UNL     1       1.813   8.918  17.680  0.00  0.00    +0.000 A 
ATOM      6  C   UNL     1       2.637   7.792  17.751  0.00  0.00    +0.000 A 
ATOM      7  C   UNL     1       2.807   7.110  18.962  0.00  0.00    +0.000 A 
ATOM      8  C   UNL     1       2.164   7.571  20.106  0.00  0.00    +0.000 A 
BRANCH   3   9
ATOM      9  S   UNL     1       0.553   9.283  21.518  0.00  0.00    +0.000 S 
ATOM     10  O   UNL     1       1.586   9.391  22.526  0.00  0.00    +0.000 OA
ATOM     11  O   UNL     1      -0.625   8.479  21.740  0.00  0.00    +0.000 OA
BRANCH   9  13
ATOM     12  C   UNL     1      -1.160  11.358  21.757  0.00  0.00    +0.000 C 
ATOM     13  N   UNL     1       0.050  10.854  21.092  0.00  0.00    +0.000 NA
ATOM     14  C   UNL     1       1.113  11.864  20.930  0.00  0.00    +0.000 C 
ENDBRANCH   9  13
ENDBRANCH   3   9
ENDBRANCH   1   7
BRANCH   1  15
ATOM     15  C   UNL     1       3.846   4.946  18.156  0.00  0.00    +0.000 C 
ATOM     16  S   UNL     1       4.631   4.939  16.674  0.00  0.00    +0.000 S 
BRANCH  15  17
ATOM     17  N   UNL     1       3.294   3.788  18.732  0.00  0.00    +0.000 N 
ATOM     18  C   UNL     1       2.305   2.985  18.002  0.00  0.00    +0.000 C 
ATOM     19  C   UNL     1       0.900   3.181  18.563  0.00  0.00    +0.000 C 
ATOM     20  C   UNL     1       0.870   2.964  20.074  0.00  0.00    +0.000 C 
ATOM     21  C   UNL     1       1.945   3.797  20.781  0.00  0.00    +0.000 C 
ATOM     22  C   UNL     1       3.350   3.560  20.198  0.00  0.00    +0.000 C 
BRANCH  22  23
ATOM     23  C   UNL     1       3.894   2.165  20.567  0.00  0.00    +0.000 C 
BRANCH  23  24
ATOM     24  O   UNL     1       5.161   1.926  19.966  0.00  0.00    +0.000 OA
ATOM     25  H   UNL     1       4.996   1.759  19.019  0.00  0.00    +0.000 HD
ENDBRANCH  23  24
ENDBRANCH  22  23
ENDBRANCH  15  17
ENDBRANCH   1  15
TORSDOF 7
ENDMDL
MODEL 6
REMARK VINA RESULT:      -6.8      1.868      2.430
REMARK  Name = 
REMARK  9 active torsions:
REMARK  status: ('A' for Active; 'I' for Inactive)
REMARK    1  A    between atoms: C_1  and  N_2
REMARK    2  A    between atoms: N_2  and  C_3
REMARK    3  A    between atoms: N_2  and  S_4
REMARK    4  A    between atoms: S_4  and  C_7
REMARK    5  A    between atoms: C_11  and  N_12
REMARK    6  A    between atoms: N_12  and  C_13
REMARK    7  A    between atoms: C_13  and  N_15
REMARK    8  A    between atoms: C_20  and  C_21
REMARK    9  A    between atoms: C_21  and  O_22
REMARK                            x       y       z     vdW  Elec       q    Type
REMARK                         _______ _______ _______ _____ _____    ______ ____
ROOT
ATOM      1  N   UNL     1       2.813   6.162  20.215  0.00  0.00    +0.000 N 
ATOM      2  H   UNL     1       3.654   6.290  20.761  0.00  0.00    +0.000 HD
ENDROOT
BRANCH   1   7
ATOM      3  C   UNL     1       1.172   9.456  19.709  0.00  0.00    +0.000 A 
ATOM      4  C   UNL     1       1.498   9.707  18.375  0.00  0.00    +0.000 A 
ATOM      5  C   UNL     1       2.212   8.752  17.656  0.00  0.00    +0.000 A 
ATOM      6  C   UNL     1       2.618   7.569  18.279  0.00  0.00    +0.000 A 
ATOM      7  C   UNL     1       2.296   7.324  19.619  0.00  0.00    +0.000 A 
ATOM      8  C   UNL     1       1.583   8.277  20.340  0.00  0.00    +0.000 A 
BRANCH   3   9
ATOM      9  S   UNL     1       0.293  10.674  20.667  0.00  0.00    +0.000 S 
ATOM     10  O   UNL     1       1.286  11.523  21.290  0.00  0.00    +0.000 OA
ATOM     11  O   UNL     1      -0.694   9.978  21.457  0.00  0.00    +0.000 OA
BRANCH   9  13
ATOM     12  C   UNL     1      -1.763  11.001  18.946  0.00  0.00    +0.000 C 
ATOM     13  N   UNL     1      -0.522  11.582  19.479  0.00  0.00    +0.000 NA
ATOM     14  C   UNL     1      -0.585  13.041  19.692  0.00  0.00    +0.000 C 
ENDBRANCH   9  13
ENDBRANCH   3   9
ENDBRANCH   1   7
BRANCH   1  15
ATOM     15  C   UNL     1       2.507   4.829  19.996  0.00  0.00    +0.000 C 
ATOM     16  S   UNL     1       1.078   4.076  20.451  0.00  0.00    +0.000 S 
BRANCH  15  17
ATOM     17  N   UNL     1       3.516   4.174  19.269  0.00  0.00    +0.000 N 
ATOM     18  C   UNL     1       4.933   4.406  19.575  0.00  0.00    +0.000 C 
ATOM     19  C   UNL     1       5.599   5.279  18.516  0.00  0.00    +0.000 C 
ATOM     20  C   UNL     1       5.358   4.730  17.111  0.00  0.00    +0.000 C 
ATOM     21  C   UNL     1       3.868   4.473  16.859  0.00  0.00    +0.000 C 
ATOM     22  C   UNL     1       3.235   3.575  17.939  0.00  0.00    +0.000 C 
BRANCH  22  23
ATOM     23  C   UNL     1       3.719   2.115  17.825  0.00  0.00    +0.000 C 
BRANCH  23  24
ATOM     24  O   UNL     1       2.837   1.222  18.494  0.00  0.00    +0.000 OA
ATOM     25  H   UNL     1       2.092   1.056  17.886  0.00  0.00    +0.000 HD
ENDBRANCH  23  24
ENDBRANCH  22  23
ENDBRANCH  15  17
ENDBRANCH   1  15
TORSDOF 7
ENDMDL
MODEL 7
REMARK VINA RESULT:      -6.8      0.863      1.028
REMARK  Name = 
REMARK  9 active torsions:
REMARK  status: ('A' for Active; 'I' for Inactive)
REMARK    1  A    between atoms: C_1  and  N_2
REMARK    2  A    between atoms: N_2  and  C_3
REMARK    3  A    between atoms: N_2  and  S_4
REMARK    4  A    between atoms: S_4  and  C_7
REMARK    5  A    between atoms: C_11  and  N_12
REMARK    6  A    between atoms: N_12  and  C_13
REMARK    7  A    between atoms: C_13  and  N_15
REMARK    8  A    between atoms: C_20  and  C_21
REMARK    9  A    between atoms: C_21  and  O_22
REMARK                            x       y       z     vdW  Elec       q    Type
REMARK                         _______ _______ _______ _____ _____    ______ ____
ROOT
ATOM      1  N   UNL     1       2.873   6.150  20.220  0.00  0.00    +0.000 N 
ATOM      2  H   UNL     1       2.836   6.116  21.229  0.00  0.00    +0.000 HD
ENDROOT
BRANCH   1   7
ATOM      3  C   UNL     1       1.143   9.403  19.744  0.00  0.00    +0.000 A 
ATOM      4  C   UNL     1       1.317   9.593  18.371  0.00  0.00    +0.000 A 
ATOM      5  C   UNL     1       1.960   8.609  17.624  0.00  0.00    +0.000 A 
ATOM      6  C   UNL     1       2.448   7.461  18.253  0.00  0.00    +0.000 A 
ATOM      7  C   UNL     1       2.278   7.279  19.631  0.00  0.00    +0.000 A 
ATOM      8  C   UNL     1       1.637   8.259  20.380  0.00  0.00    +0.000 A 
BRANCH   3   9
ATOM      9  S   UNL     1       0.360  10.660  20.735  0.00  0.00    +0.000 S 
ATOM     10  O   UNL     1       1.021  10.662  22.022  0.00  0.00    +0.000 OA
ATOM     11  O   UNL     1      -1.067  10.470  20.629  0.00  0.00    +0.000 OA
BRANCH   9  13
ATOM     12  C   UNL     1      -0.356  12.959  19.509  0.00  0.00    +0.000 C 
ATOM     13  N   UNL     1       0.765  12.100  19.920  0.00  0.00    +0.000 NA
ATOM     14  C   UNL     1       1.934  12.840  20.432  0.00  0.00    +0.000 C 
ENDBRANCH   9  13
ENDBRANCH   3   9
ENDBRANCH   1   7
BRANCH   1  15
ATOM     15  C   UNL     1       3.706   5.188  19.675  0.00  0.00    +0.000 C 
ATOM     16  S   UNL     1       5.287   5.447  19.174  0.00  0.00    +0.000 S 
BRANCH  15  17
ATOM     17  N   UNL     1       3.098   3.922  19.654  0.00  0.00    +0.000 N 
ATOM     18  C   UNL     1       3.677   2.798  20.401  0.00  0.00    +0.000 C 
ATOM     19  C   UNL     1       4.359   1.799  19.471  0.00  0.00    +0.000 C 
ATOM     20  C   UNL     1       3.427   1.367  18.340  0.00  0.00    +0.000 C 
ATOM     21  C   UNL     1       2.823   2.578  17.619  0.00  0.00    +0.000 C 
ATOM     22  C   UNL     1       2.130   3.554  18.588  0.00  0.00    +0.000 C 
BRANCH  22  23
ATOM     23  C   UNL     1       0.817   2.970  19.147  0.00  0.00    +0.000 C 
BRANCH  23  24
ATOM     24  O   UNL     1       0.442   3.606  20.363  0.00  0.00    +0.000 OA
ATOM     25  H   UNL     1       1.269   3.851  20.818  0.00  0.00    +0.000 HD
ENDBRANCH  23  24
ENDBRANCH  22  23
ENDBRANCH  15  17
ENDBRANCH   1  15
TORSDOF 7
ENDMDL
MODEL 8
REMARK VINA RESULT:      -6.8      1.618      2.163
REMARK  Name = 
REMARK  9 active torsions:
REMARK  status: ('A' for Active; 'I' for Inactive)
REMARK    1  A    between atoms: C_1  and  N_2
REMARK    2  A    between atoms: N_2  and  C_3
REMARK    3  A    between atoms: N_2  and  S_4
REMARK    4  A    between atoms: S_4  and  C_7
REMARK    5  A    between atoms: C_11  and  N_12
REMARK    6  A    between atoms: N_12  and  C_13
REMARK    7  A    between atoms: C_13  and  N_15
REMARK    8  A    between atoms: C_20  and  C_21
REMARK    9  A    between atoms: C_21  and  O_22
REMARK                            x       y       z     vdW  Elec       q    Type
REMARK                         _______ _______ _______ _____ _____    ______ ____
ROOT
ATOM      1  N   UNL     1       3.317   6.040  19.336  0.00  0.00    +0.000 N 
ATOM      2  H   UNL     1       3.866   6.003  20.184  0.00  0.00    +0.000 HD
ENDROOT
BRANCH   1   7
ATOM      3  C   UNL     1       1.222   9.039  19.984  0.00  0.00    +0.000 A 
ATOM      4  C   UNL     1       1.253   9.654  18.730  0.00  0.00    +0.000 A 
ATOM      5  C   UNL     1       1.926   9.031  17.682  0.00  0.00    +0.000 A 
ATOM      6  C   UNL     1       2.584   7.818  17.898  0.00  0.00    +0.000 A 
ATOM      7  C   UNL     1       2.558   7.209  19.158  0.00  0.00    +0.000 A 
ATOM      8  C   UNL     1       1.888   7.828  20.207  0.00  0.00    +0.000 A 
BRANCH   3   9
ATOM      9  S   UNL     1       0.404   9.829  21.355  0.00  0.00    +0.000 S 
ATOM     10  O   UNL     1       1.413  10.094  22.358  0.00  0.00    +0.000 OA
ATOM     11  O   UNL     1      -0.771   9.051  21.667  0.00  0.00    +0.000 OA
BRANCH   9  13
ATOM     12  C   UNL     1      -1.475  11.365  20.168  0.00  0.00    +0.000 C 
ATOM     13  N   UNL     1      -0.103  11.315  20.696  0.00  0.00    +0.000 NA
ATOM     14  C   UNL     1       0.306  12.532  21.422  0.00  0.00    +0.000 C 
ENDBRANCH   9  13
ENDBRANCH   3   9
ENDBRANCH   1   7
BRANCH   1  15
ATOM     15  C   UNL     1       3.630   5.029  18.444  0.00  0.00    +0.000 C 
ATOM     16  S   UNL     1       4.723   5.157  17.177  0.00  0.00    +0.000 S 
BRANCH  15  17
ATOM     17  N   UNL     1       2.972   3.828  18.765  0.00  0.00    +0.000 N 
ATOM     18  C   UNL     1       1.518   3.702  18.602  0.00  0.00    +0.000 C 
ATOM     19  C   UNL     1       0.800   3.729  19.948  0.00  0.00    +0.000 C 
ATOM     20  C   UNL     1       1.399   2.712  20.918  0.00  0.00    +0.000 C 
ATOM     21  C   UNL     1       2.921   2.865  21.021  0.00  0.00    +0.000 C 
ATOM     22  C   UNL     1       3.611   2.816  19.645  0.00  0.00    +0.000 C 
BRANCH  22  23
ATOM     23  C   UNL     1       3.586   1.397  19.043  0.00  0.00    +0.000 C 
BRANCH  23  24
ATOM     24  O   UNL     1       4.123   1.382  17.726  0.00  0.00    +0.000 OA
ATOM     25  H   UNL     1       3.384   1.170  17.124  0.00  0.00    +0.000 HD
ENDBRANCH  23  24
ENDBRANCH  22  23
ENDBRANCH  15  17
ENDBRANCH   1  15
TORSDOF 7
ENDMDL
MODEL 9
REMARK VINA RESULT:      -6.7      1.911      2.370
REMARK  Name = 
REMARK  9 active torsions:
REMARK  status: ('A' for Active; 'I' for Inactive)
REMARK    1  A    between atoms: C_1  and  N_2
REMARK    2  A    between atoms: N_2  and  C_3
REMARK    3  A    between atoms: N_2  and  S_4
REMARK    4  A    between atoms: S_4  and  C_7
REMARK    5  A    between atoms: C_11  and  N_12
REMARK    6  A    between atoms: N_12  and  C_13
REMARK    7  A    between atoms: C_13  and  N_15
REMARK    8  A    between atoms: C_20  and  C_21
REMARK    9  A    between atoms: C_21  and  O_22
REMARK                            x       y       z     vdW  Elec       q    Type
REMARK                         _______ _______ _______ _____ _____    ______ ____
ROOT
ATOM      1  N   UNL     1       2.675   6.425  20.080  0.00  0.00    +0.000 N 
ATOM      2  H   UNL     1       3.571   6.535  20.534  0.00  0.00    +0.000 HD
ENDROOT
BRANCH   1   7
ATOM      3  C   UNL     1       1.034   9.743  19.774  0.00  0.00    +0.000 A 
ATOM      4  C   UNL     1       1.233  10.009  18.417  0.00  0.00    +0.000 A 
ATOM      5  C   UNL     1       1.862   9.054  17.622  0.00  0.00    +0.000 A 
ATOM      6  C   UNL     1       2.311   7.859  18.188  0.00  0.00    +0.000 A 
ATOM      7  C   UNL     1       2.117   7.600  19.551  0.00  0.00    +0.000 A 
ATOM      8  C   UNL     1       1.490   8.552  20.348  0.00  0.00    +0.000 A 
BRANCH   3   9
ATOM      9  S   UNL     1       0.268  10.960  20.827  0.00  0.00    +0.000 S 
ATOM     10  O   UNL     1       1.334  11.695  21.474  0.00  0.00    +0.000 OA
ATOM     11  O   UNL     1      -0.750  10.289  21.598  0.00  0.00    +0.000 OA
BRANCH   9  13
ATOM     12  C   UNL     1      -1.974  12.005  19.741  0.00  0.00    +0.000 C 
ATOM     13  N   UNL     1      -0.503  11.997  19.718  0.00  0.00    +0.000 NA
ATOM     14  C   UNL     1       0.103  13.329  19.529  0.00  0.00    +0.000 C 
ENDBRANCH   9  13
ENDBRANCH   3   9
ENDBRANCH   1   7
BRANCH   1  15
ATOM     15  C   UNL     1       2.324   5.099  19.887  0.00  0.00    +0.000 C 
ATOM     16  S   UNL     1       0.990   4.341  20.565  0.00  0.00    +0.000 S 
BRANCH  15  17
ATOM     17  N   UNL     1       3.185   4.459  18.979  0.00  0.00    +0.000 N 
ATOM     18  C   UNL     1       2.719   4.087  17.637  0.00  0.00    +0.000 C 
ATOM     19  C   UNL     1       2.489   2.584  17.520  0.00  0.00    +0.000 C 
ATOM     20  C   UNL     1       3.713   1.796  17.983  0.00  0.00    +0.000 C 
ATOM     21  C   UNL     1       4.178   2.250  19.372  0.00  0.00    +0.000 C 
ATOM     22  C   UNL     1       4.415   3.769  19.445  0.00  0.00    +0.000 C 
BRANCH  22  23
ATOM     23  C   UNL     1       5.673   4.190  18.659  0.00  0.00    +0.000 C 
BRANCH  23  24
ATOM     24  O   UNL     1       6.455   5.126  19.392  0.00  0.00    +0.000 OA
ATOM     25  H   UNL     1       5.858   5.856  19.640  0.00  0.00    +0.000 HD
ENDBRANCH  23  24
ENDBRANCH  22  23
ENDBRANCH  15  17
ENDBRANCH   1  15
TORSDOF 7
ENDMDL
