MODEL 1
REMARK VINA RESULT:      -6.9      0.000      0.000
REMARK  Name = 
REMARK  4 active torsions:
REMARK  status: ('A' for Active; 'I' for Inactive)
REMARK    1  A    between atoms: C_1  and  N_2
REMARK    2  A    between atoms: C_4  and  C_5
REMARK    3  A    between atoms: C_14  and  C_15
REMARK    4  A    between atoms: C_15  and  O_16
REMARK                            x       y       z     vdW  Elec       q    Type
REMARK                         _______ _______ _______ _____ _____    ______ ____
ROOT
ATOM      1  C   UNL     1       6.882   5.537  19.388  0.00  0.00    +0.000 C 
ATOM      2  N   UNL     1       5.985   5.531  18.235  0.00  0.00    +0.000 N 
ATOM      3  C   UNL     1       6.621   5.137  16.963  0.00  0.00    +0.000 C 
ATOM      4  C   UNL     1       5.609   5.163  15.821  0.00  0.00    +0.000 C 
ATOM      5  O   UNL     1       4.550   4.226  16.061  0.00  0.00    +0.000 OA
ATOM      6  C   UNL     1       4.028   4.343  17.330  0.00  0.00    +0.000 A 
ATOM      7  C   UNL     1       2.774   3.749  17.504  0.00  0.00    +0.000 A 
ATOM      8  C   UNL     1       2.146   3.790  18.747  0.00  0.00    +0.000 A 
ATOM      9  C   UNL     1       2.763   4.436  19.824  0.00  0.00    +0.000 A 
ATOM     10  C   UNL     1       4.023   5.030  19.632  0.00  0.00    +0.000 A 
ATOM     11  C   UNL     1       4.704   4.966  18.401  0.00  0.00    +0.000 A 
ENDROOT
BRANCH   4  12
ATOM     12  C   UNL     1       6.316   4.764  14.529  0.00  0.00    +0.000 C 
ATOM     13  N   UNL     1       5.785   3.914  13.681  0.00  0.00    +0.000 NA
ATOM     14  C   UNL     1       6.786   3.830  12.575  0.00  0.00    +0.000 C 
ATOM     15  C   UNL     1       7.720   5.033  12.755  0.00  0.00    +0.000 C 
ATOM     16  N   UNL     1       7.527   5.300  14.154  0.00  0.00    +0.000 N 
ATOM     17  H   UNL     1       7.775   6.205  14.541  0.00  0.00    +0.000 HD
ENDBRANCH   4  12
BRANCH   9  18
ATOM     18  C   UNL     1       2.104   4.455  21.179  0.00  0.00    +0.000 C 
BRANCH  18  19
ATOM     19  O   UNL     1       2.344   3.241  21.875  0.00  0.00    +0.000 OA
ATOM     20  H   UNL     1       3.296   3.215  22.073  0.00  0.00    +0.000 HD
ENDBRANCH  18  19
ENDBRANCH   9  18
TORSDOF 3
ENDMDL
MODEL 2
REMARK VINA RESULT:      -6.7      2.215      6.293
REMARK  Name = 
REMARK  4 active torsions:
REMARK  status: ('A' for Active; 'I' for Inactive)
REMARK    1  A    between atoms: C_1  and  N_2
REMARK    2  A    between atoms: C_4  and  C_5
REMARK    3  A    between atoms: C_14  and  C_15
REMARK    4  A    between atoms: C_15  and  O_16
REMARK                            x       y       z     vdW  Elec       q    Type
REMARK                         _______ _______ _______ _____ _____    ______ ____
ROOT
ATOM      1  C   UNL     1       7.590   6.665  18.066  0.00  0.00    +0.000 C 
ATOM      2  N   UNL     1       6.843   5.414  17.952  0.00  0.00    +0.000 N 
ATOM      3  C   UNL     1       5.740   5.267  18.922  0.00  0.00    +0.000 C 
ATOM      4  C   UNL     1       5.023   3.934  18.727  0.00  0.00    +0.000 C 
ATOM      5  O   UNL     1       4.436   3.860  17.419  0.00  0.00    +0.000 OA
ATOM      6  C   UNL     1       5.325   4.216  16.429  0.00  0.00    +0.000 A 
ATOM      7  C   UNL     1       4.960   3.810  15.142  0.00  0.00    +0.000 A 
ATOM      8  C   UNL     1       5.772   4.119  14.053  0.00  0.00    +0.000 A 
ATOM      9  C   UNL     1       6.962   4.829  14.244  0.00  0.00    +0.000 A 
ATOM     10  C   UNL     1       7.316   5.229  15.545  0.00  0.00    +0.000 A 
ATOM     11  C   UNL     1       6.495   4.972  16.659  0.00  0.00    +0.000 A 
ENDROOT
BRANCH   4  12
ATOM     12  C   UNL     1       3.904   3.822  19.758  0.00  0.00    +0.000 C 
ATOM     13  N   UNL     1       3.139   4.844  20.066  0.00  0.00    +0.000 NA
ATOM     14  C   UNL     1       2.190   4.294  21.081  0.00  0.00    +0.000 C 
ATOM     15  C   UNL     1       2.294   2.768  20.978  0.00  0.00    +0.000 C 
ATOM     16  N   UNL     1       3.602   2.640  20.394  0.00  0.00    +0.000 N 
ATOM     17  H   UNL     1       3.872   1.779  19.928  0.00  0.00    +0.000 HD
ENDBRANCH   4  12
BRANCH   9  18
ATOM     18  C   UNL     1       7.827   5.196  13.067  0.00  0.00    +0.000 C 
BRANCH  18  19
ATOM     19  O   UNL     1       8.904   6.029  13.469  0.00  0.00    +0.000 OA
ATOM     20  H   UNL     1       8.874   6.076  14.441  0.00  0.00    +0.000 HD
ENDBRANCH  18  19
ENDBRANCH   9  18
TORSDOF 3
ENDMDL
MODEL 3
REMARK VINA RESULT:      -6.6      2.302      2.630
REMARK  Name = 
REMARK  4 active torsions:
REMARK  status: ('A' for Active; 'I' for Inactive)
REMARK    1  A    between atoms: C_1  and  N_2
REMARK    2  A    between atoms: C_4  and  C_5
REMARK    3  A    between atoms: C_14  and  C_15
REMARK    4  A    between atoms: C_15  and  O_16
REMARK                            x       y       z     vdW  Elec       q    Type
REMARK                         _______ _______ _______ _____ _____    ______ ____
ROOT
ATOM      1  C   UNL     1       3.731   3.235  19.573  0.00  0.00    +0.000 C 
ATOM      2  N   UNL     1       4.347   4.356  18.865  0.00  0.00    +0.000 N 
ATOM      3  C   UNL     1       4.920   4.011  17.549  0.00  0.00    +0.000 C 
ATOM      4  C   UNL     1       5.540   5.240  16.890  0.00  0.00    +0.000 C 
ATOM      5  O   UNL     1       4.544   6.245  16.657  0.00  0.00    +0.000 OA
ATOM      6  C   UNL     1       3.773   6.485  17.773  0.00  0.00    +0.000 A 
ATOM      7  C   UNL     1       3.059   7.687  17.743  0.00  0.00    +0.000 A 
ATOM      8  C   UNL     1       2.235   8.038  18.811  0.00  0.00    +0.000 A 
ATOM      9  C   UNL     1       2.125   7.194  19.921  0.00  0.00    +0.000 A 
ATOM     10  C   UNL     1       2.851   5.989  19.935  0.00  0.00    +0.000 A 
ATOM     11  C   UNL     1       3.657   5.585  18.854  0.00  0.00    +0.000 A 
ENDROOT
BRANCH   4  12
ATOM     12  C   UNL     1       6.130   4.831  15.544  0.00  0.00    +0.000 C 
ATOM     13  N   UNL     1       5.478   4.060  14.706  0.00  0.00    +0.000 NA
ATOM     14  C   UNL     1       6.399   3.934  13.536  0.00  0.00    +0.000 C 
ATOM     15  C   UNL     1       7.442   5.047  13.694  0.00  0.00    +0.000 C 
ATOM     16  N   UNL     1       7.358   5.276  15.111  0.00  0.00    +0.000 N 
ATOM     17  H   UNL     1       7.706   6.143  15.510  0.00  0.00    +0.000 HD
ENDBRANCH   4  12
BRANCH   9  18
ATOM     18  C   UNL     1       1.209   7.551  21.061  0.00  0.00    +0.000 C 
BRANCH  18  19
ATOM     19  O   UNL     1       1.795   8.546  21.889  0.00  0.00    +0.000 OA
ATOM     20  H   UNL     1       2.089   9.262  21.300  0.00  0.00    +0.000 HD
ENDBRANCH  18  19
ENDBRANCH   9  18
TORSDOF 3
ENDMDL
MODEL 4
REMARK VINA RESULT:      -6.5      1.948      2.527
REMARK  Name = 
REMARK  4 active torsions:
REMARK  status: ('A' for Active; 'I' for Inactive)
REMARK    1  A    between atoms: C_1  and  N_2
REMARK    2  A    between atoms: C_4  and  C_5
REMARK    3  A    between atoms: C_14  and  C_15
REMARK    4  A    between atoms: C_15  and  O_16
REMARK                            x       y       z     vdW  Elec       q    Type
REMARK                         _______ _______ _______ _____ _____    ______ ____
ROOT
ATOM      1  C   UNL     1       3.710   2.565  18.267  0.00  0.00    +0.000 C 
ATOM      2  N   UNL     1       4.448   3.755  17.849  0.00  0.00    +0.000 N 
ATOM      3  C   UNL     1       5.017   3.679  16.489  0.00  0.00    +0.000 C 
ATOM      4  C   UNL     1       5.767   4.962  16.144  0.00  0.00    +0.000 C 
ATOM      5  O   UNL     1       4.880   6.089  16.159  0.00  0.00    +0.000 OA
ATOM      6  C   UNL     1       4.109   6.131  17.300  0.00  0.00    +0.000 A 
ATOM      7  C   UNL     1       3.515   7.370  17.560  0.00  0.00    +0.000 A 
ATOM      8  C   UNL     1       2.703   7.536  18.680  0.00  0.00    +0.000 A 
ATOM      9  C   UNL     1       2.486   6.466  19.555  0.00  0.00    +0.000 A 
ATOM     10  C   UNL     1       3.092   5.227  19.279  0.00  0.00    +0.000 A 
ATOM     11  C   UNL     1       3.880   5.015  18.133  0.00  0.00    +0.000 A 
ENDROOT
BRANCH   4  12
ATOM     12  C   UNL     1       6.348   4.830  14.739  0.00  0.00    +0.000 C 
ATOM     13  N   UNL     1       7.490   5.383  14.405  0.00  0.00    +0.000 NA
ATOM     14  C   UNL     1       7.678   4.993  12.975  0.00  0.00    +0.000 C 
ATOM     15  C   UNL     1       6.695   3.846  12.714  0.00  0.00    +0.000 C 
ATOM     16  N   UNL     1       5.732   4.093  13.753  0.00  0.00    +0.000 N 
ATOM     17  H   UNL     1       5.099   3.357  14.050  0.00  0.00    +0.000 HD
ENDBRANCH   4  12
BRANCH   9  18
ATOM     18  C   UNL     1       1.582   6.630  20.748  0.00  0.00    +0.000 C 
BRANCH  18  19
ATOM     19  O   UNL     1       1.713   7.928  21.309  0.00  0.00    +0.000 OA
ATOM     20  H   UNL     1       2.103   8.493  20.619  0.00  0.00    +0.000 HD
ENDBRANCH  18  19
ENDBRANCH   9  18
TORSDOF 3
ENDMDL
MODEL 5
REMARK VINA RESULT:      -6.5      3.642      4.287
REMARK  Name = 
REMARK  4 active torsions:
REMARK  status: ('A' for Active; 'I' for Inactive)
REMARK    1  A    between atoms: C_1  and  N_2
REMARK    2  A    between atoms: C_4  and  C_5
REMARK    3  A    between atoms: C_14  and  C_15
REMARK    4  A    between atoms: C_15  and  O_16
REMARK                            x       y       z     vdW  Elec       q    Type
REMARK                         _______ _______ _______ _____ _____    ______ ____
ROOT
ATOM      1  C   UNL     1       2.188   5.063  20.669  0.00  0.00    +0.000 C 
ATOM      2  N   UNL     1       2.960   5.944  19.795  0.00  0.00    +0.000 N 
ATOM      3  C   UNL     1       3.570   5.273  18.630  0.00  0.00    +0.000 C 
ATOM      4  C   UNL     1       4.355   6.269  17.782  0.00  0.00    +0.000 C 
ATOM      5  O   UNL     1       3.488   7.289  17.265  0.00  0.00    +0.000 OA
ATOM      6  C   UNL     1       2.683   7.833  18.242  0.00  0.00    +0.000 A 
ATOM      7  C   UNL     1       2.105   9.061  17.906  0.00  0.00    +0.000 A 
ATOM      8  C   UNL     1       1.261   9.707  18.808  0.00  0.00    +0.000 A 
ATOM      9  C   UNL     1       0.997   9.135  20.056  0.00  0.00    +0.000 A 
ATOM     10  C   UNL     1       1.588   7.899  20.379  0.00  0.00    +0.000 A 
ATOM     11  C   UNL     1       2.407   7.200  19.473  0.00  0.00    +0.000 A 
ENDROOT
BRANCH   4  12
ATOM     12  C   UNL     1       4.976   5.528  16.602  0.00  0.00    +0.000 C 
ATOM     13  N   UNL     1       5.547   6.164  15.606  0.00  0.00    +0.000 NA
ATOM     14  C   UNL     1       6.023   5.072  14.703  0.00  0.00    +0.000 C 
ATOM     15  C   UNL     1       5.981   3.784  15.534  0.00  0.00    +0.000 C 
ATOM     16  N   UNL     1       5.011   4.154  16.529  0.00  0.00    +0.000 N 
ATOM     17  H   UNL     1       4.954   3.640  17.403  0.00  0.00    +0.000 HD
ENDBRANCH   4  12
BRANCH   9  18
ATOM     18  C   UNL     1       0.059   9.812  21.021  0.00  0.00    +0.000 C 
BRANCH  18  19
ATOM     19  O   UNL     1       0.768  10.336  22.134  0.00  0.00    +0.000 OA
ATOM     20  H   UNL     1       0.101  10.635  22.776  0.00  0.00    +0.000 HD
ENDBRANCH  18  19
ENDBRANCH   9  18
TORSDOF 3
ENDMDL
MODEL 6
REMARK VINA RESULT:      -6.3      3.272      6.752
REMARK  Name = 
REMARK  4 active torsions:
REMARK  status: ('A' for Active; 'I' for Inactive)
REMARK    1  A    between atoms: C_1  and  N_2
REMARK    2  A    between atoms: C_4  and  C_5
REMARK    3  A    between atoms: C_14  and  C_15
REMARK    4  A    between atoms: C_15  and  O_16
REMARK                            x       y       z     vdW  Elec       q    Type
REMARK                         _______ _______ _______ _____ _____    ______ ____
ROOT
ATOM      1  C   UNL     1       3.548   3.408  19.588  0.00  0.00    +0.000 C 
ATOM      2  N   UNL     1       3.099   4.618  18.904  0.00  0.00    +0.000 N 
ATOM      3  C   UNL     1       2.667   5.707  19.802  0.00  0.00    +0.000 C 
ATOM      4  C   UNL     1       2.215   6.923  18.998  0.00  0.00    +0.000 C 
ATOM      5  O   UNL     1       3.297   7.441  18.211  0.00  0.00    +0.000 OA
ATOM      6  C   UNL     1       3.941   6.454  17.498  0.00  0.00    +0.000 A 
ATOM      7  C   UNL     1       4.732   6.918  16.442  0.00  0.00    +0.000 A 
ATOM      8  C   UNL     1       5.443   6.016  15.652  0.00  0.00    +0.000 A 
ATOM      9  C   UNL     1       5.361   4.643  15.906  0.00  0.00    +0.000 A 
ATOM     10  C   UNL     1       4.560   4.194  16.971  0.00  0.00    +0.000 A 
ATOM     11  C   UNL     1       3.866   5.081  17.815  0.00  0.00    +0.000 A 
ENDROOT
BRANCH   4  12
ATOM     12  C   UNL     1       1.766   8.013  19.967  0.00  0.00    +0.000 C 
ATOM     13  N   UNL     1       1.233   9.137  19.549  0.00  0.00    +0.000 NA
ATOM     14  C   UNL     1       0.934   9.888  20.806  0.00  0.00    +0.000 C 
ATOM     15  C   UNL     1       1.012   8.861  21.943  0.00  0.00    +0.000 C 
ATOM     16  N   UNL     1       1.854   7.869  21.333  0.00  0.00    +0.000 N 
ATOM     17  H   UNL     1       1.877   6.922  21.700  0.00  0.00    +0.000 HD
ENDBRANCH   4  12
BRANCH   9  18
ATOM     18  C   UNL     1       6.154   3.667  15.077  0.00  0.00    +0.000 C 
BRANCH  18  19
ATOM     19  O   UNL     1       6.541   4.249  13.841  0.00  0.00    +0.000 OA
ATOM     20  H   UNL     1       7.307   4.819  14.027  0.00  0.00    +0.000 HD
ENDBRANCH  18  19
ENDBRANCH   9  18
TORSDOF 3
ENDMDL
MODEL 7
REMARK VINA RESULT:      -6.3      0.614      1.101
REMARK  Name = 
REMARK  4 active torsions:
REMARK  status: ('A' for Active; 'I' for Inactive)
REMARK    1  A    between atoms: C_1  and  N_2
REMARK    2  A    between atoms: C_4  and  C_5
REMARK    3  A    between atoms: C_14  and  C_15
REMARK    4  A    between atoms: C_15  and  O_16
REMARK                            x       y       z     vdW  Elec       q    Type
REMARK                         _______ _______ _______ _____ _____    ______ ____
ROOT
ATOM      1  C   UNL     1       7.066   5.525  19.109  0.00  0.00    +0.000 C 
ATOM      2  N   UNL     1       6.130   5.505  17.987  0.00  0.00    +0.000 N 
ATOM      3  C   UNL     1       6.743   5.198  16.680  0.00  0.00    +0.000 C 
ATOM      4  C   UNL     1       5.691   5.203  15.575  0.00  0.00    +0.000 C 
ATOM      5  O   UNL     1       4.701   4.193  15.814  0.00  0.00    +0.000 OA
ATOM      6  C   UNL     1       4.218   4.231  17.104  0.00  0.00    +0.000 A 
ATOM      7  C   UNL     1       3.010   3.554  17.296  0.00  0.00    +0.000 A 
ATOM      8  C   UNL     1       2.426   3.511  18.561  0.00  0.00    +0.000 A 
ATOM      9  C   UNL     1       3.040   4.154  19.640  0.00  0.00    +0.000 A 
ATOM     10  C   UNL     1       4.254   4.832  19.429  0.00  0.00    +0.000 A 
ATOM     11  C   UNL     1       4.892   4.855  18.175  0.00  0.00    +0.000 A 
ENDROOT
BRANCH   4  12
ATOM     12  C   UNL     1       6.374   4.895  14.245  0.00  0.00    +0.000 C 
ATOM     13  N   UNL     1       7.550   5.391  13.938  0.00  0.00    +0.000 NA
ATOM     14  C   UNL     1       7.839   4.829  12.584  0.00  0.00    +0.000 C 
ATOM     15  C   UNL     1       6.854   3.670  12.386  0.00  0.00    +0.000 C 
ATOM     16  N   UNL     1       5.821   4.052  13.309  0.00  0.00    +0.000 N 
ATOM     17  H   UNL     1       5.152   3.364  13.641  0.00  0.00    +0.000 HD
ENDBRANCH   4  12
BRANCH   9  18
ATOM     18  C   UNL     1       2.430   4.083  21.016  0.00  0.00    +0.000 C 
BRANCH  18  19
ATOM     19  O   UNL     1       2.175   5.383  21.525  0.00  0.00    +0.000 OA
ATOM     20  H   UNL     1       1.220   5.541  21.427  0.00  0.00    +0.000 HD
ENDBRANCH  18  19
ENDBRANCH   9  18
TORSDOF 3
ENDMDL
MODEL 8
REMARK VINA RESULT:      -6.2      3.178      3.812
REMARK  Name = 
REMARK  4 active torsions:
REMARK  status: ('A' for Active; 'I' for Inactive)
REMARK    1  A    between atoms: C_1  and  N_2
REMARK    2  A    between atoms: C_4  and  C_5
REMARK    3  A    between atoms: C_14  and  C_15
REMARK    4  A    between atoms: C_15  and  O_16
REMARK                            x       y       z     vdW  Elec       q    Type
REMARK                         _______ _______ _______ _____ _____    ______ ____
ROOT
ATOM      1  C   UNL     1       2.382   4.564  20.767  0.00  0.00    +0.000 C 
ATOM      2  N   UNL     1       3.175   5.479  19.948  0.00  0.00    +0.000 N 
ATOM      3  C   UNL     1       3.884   4.838  18.823  0.00  0.00    +0.000 C 
ATOM      4  C   UNL     1       4.683   5.869  18.030  0.00  0.00    +0.000 C 
ATOM      5  O   UNL     1       3.813   6.857  17.462  0.00  0.00    +0.000 OA
ATOM      6  C   UNL     1       2.927   7.365  18.386  0.00  0.00    +0.000 A 
ATOM      7  C   UNL     1       2.324   8.572  18.017  0.00  0.00    +0.000 A 
ATOM      8  C   UNL     1       1.400   9.180  18.864  0.00  0.00    +0.000 A 
ATOM      9  C   UNL     1       1.078   8.591  20.091  0.00  0.00    +0.000 A 
ATOM     10  C   UNL     1       1.694   7.377  20.447  0.00  0.00    +0.000 A 
ATOM     11  C   UNL     1       2.597   6.715  19.595  0.00  0.00    +0.000 A 
ENDROOT
BRANCH   4  12
ATOM     12  C   UNL     1       5.408   5.159  16.890  0.00  0.00    +0.000 C 
ATOM     13  N   UNL     1       4.823   4.234  16.166  0.00  0.00    +0.000 NA
ATOM     14  C   UNL     1       5.868   3.832  15.177  0.00  0.00    +0.000 C 
ATOM     15  C   UNL     1       6.937   4.931  15.217  0.00  0.00    +0.000 C 
ATOM     16  N   UNL     1       6.698   5.471  16.528  0.00  0.00    +0.000 N 
ATOM     17  H   UNL     1       7.038   6.398  16.769  0.00  0.00    +0.000 HD
ENDBRANCH   4  12
BRANCH   9  18
ATOM     18  C   UNL     1       0.054   9.226  20.995  0.00  0.00    +0.000 C 
BRANCH  18  19
ATOM     19  O   UNL     1      -0.647   8.240  21.738  0.00  0.00    +0.000 OA
ATOM     20  H   UNL     1      -1.051   8.696  22.497  0.00  0.00    +0.000 HD
ENDBRANCH  18  19
ENDBRANCH   9  18
TORSDOF 3
ENDMDL
MODEL 9
REMARK VINA RESULT:      -6.1      3.042      3.570
REMARK  Name = 
REMARK  4 active torsions:
REMARK  status: ('A' for Active; 'I' for Inactive)
REMARK    1  A    between atoms: C_1  and  N_2
REMARK    2  A    between atoms: C_4  and  C_5
REMARK    3  A    between atoms: C_14  and  C_15
REMARK    4  A    between atoms: C_15  and  O_16
REMARK                            x       y       z     vdW  Elec       q    Type
REMARK                         _______ _______ _______ _____ _____    ______ ____
ROOT
ATOM      1  C   UNL     1       3.072   4.166  20.100  0.00  0.00    +0.000 C 
ATOM      2  N   UNL     1       3.749   5.211  19.335  0.00  0.00    +0.000 N 
ATOM      3  C   UNL     1       4.405   4.741  18.099  0.00  0.00    +0.000 C 
ATOM      4  C   UNL     1       5.085   5.898  17.373  0.00  0.00    +0.000 C 
ATOM      5  O   UNL     1       4.122   6.886  16.981  0.00  0.00    +0.000 OA
ATOM      6  C   UNL     1       3.281   7.235  18.015  0.00  0.00    +0.000 A 
ATOM      7  C   UNL     1       2.588   8.434  17.826  0.00  0.00    +0.000 A 
ATOM      8  C   UNL     1       1.699   8.889  18.798  0.00  0.00    +0.000 A 
ATOM      9  C   UNL     1       1.503   8.153  19.970  0.00  0.00    +0.000 A 
ATOM     10  C   UNL     1       2.209   6.949  20.145  0.00  0.00    +0.000 A 
ATOM     11  C   UNL     1       3.079   6.440  19.163  0.00  0.00    +0.000 A 
ENDROOT
BRANCH   4  12
ATOM     12  C   UNL     1       5.758   5.361  16.114  0.00  0.00    +0.000 C 
ATOM     13  N   UNL     1       6.971   5.723  15.767  0.00  0.00    +0.000 NA
ATOM     14  C   UNL     1       7.233   4.960  14.509  0.00  0.00    +0.000 C 
ATOM     15  C   UNL     1       6.167   3.858  14.451  0.00  0.00    +0.000 C 
ATOM     16  N   UNL     1       5.154   4.438  15.290  0.00  0.00    +0.000 N 
ATOM     17  H   UNL     1       4.432   3.853  15.699  0.00  0.00    +0.000 HD
ENDBRANCH   4  12
BRANCH   9  18
ATOM     18  C   UNL     1       0.518   8.622  21.008  0.00  0.00    +0.000 C 
BRANCH  18  19
ATOM     19  O   UNL     1      -0.108   9.831  20.603  0.00  0.00    +0.000 OA
ATOM     20  H   UNL     1      -1.006   9.821  20.977  0.00  0.00    +0.000 HD
ENDBRANCH  18  19
ENDBRANCH   9  18
TORSDOF 3
ENDMDL
