MODEL 1
REMARK VINA RESULT:      -7.7      0.000      0.000
REMARK  Name = 
REMARK  4 active torsions:
REMARK  status: ('A' for Active; 'I' for Inactive)
REMARK    1  A    between atoms: C_1  and  O_2
REMARK    2  A    between atoms: O_2  and  C_3
REMARK    3  A    between atoms: C_10  and  C_11
REMARK    4  A    between atoms: C_11  and  C_12
REMARK                            x       y       z     vdW  Elec       q    Type
REMARK                         _______ _______ _______ _____ _____    ______ ____
ROOT
ATOM      1  C   UNL     1       6.234   4.737  16.580  0.00  0.00    +0.000 A 
ATOM      2  C   UNL     1       5.113   3.914  16.465  0.00  0.00    +0.000 A 
ATOM      3  C   UNL     1       3.984   4.109  17.279  0.00  0.00    +0.000 A 
ATOM      4  C   UNL     1       3.992   5.109  18.251  0.00  0.00    +0.000 A 
ATOM      5  C   UNL     1       5.133   5.905  18.404  0.00  0.00    +0.000 A 
ATOM      6  C   UNL     1       6.243   5.721  17.574  0.00  0.00    +0.000 A 
ATOM      7 CL   UNL     1       7.610   6.757  17.799  0.00  0.00    +0.000 Cl
ATOM      8  C   UNL     1       2.768   5.275  19.083  0.00  0.00    +0.000 C 
ATOM      9  N   UNL     1       1.710   4.554  18.950  0.00  0.00    +0.000 NA
ATOM     10  C   UNL     1       1.582   3.506  17.948  0.00  0.00    +0.000 C 
ATOM     11  C   UNL     1       2.787   3.240  17.059  0.00  0.00    +0.000 C 
ENDROOT
BRANCH   1  13
ATOM     12  C   UNL     1       7.101   4.809  14.389  0.00  0.00    +0.000 C 
ATOM     13  O   UNL     1       7.339   4.607  15.780  0.00  0.00    +0.000 OA
ENDBRANCH   1  13
BRANCH   8  14
ATOM     14  C   UNL     1       2.712   6.370  20.148  0.00  0.00    +0.000 C 
BRANCH  14  15
ATOM     15  C   UNL     1       2.071   7.638  19.634  0.00  0.00    +0.000 A 
ATOM     16  C   UNL     1       1.297   8.432  20.494  0.00  0.00    +0.000 A 
ATOM     17  C   UNL     1       0.663   9.582  20.023  0.00  0.00    +0.000 A 
ATOM     18  C   UNL     1       0.803   9.956  18.690  0.00  0.00    +0.000 A 
ATOM     19  C   UNL     1       1.592   9.190  17.832  0.00  0.00    +0.000 A 
ATOM     20  C   UNL     1       2.228   8.041  18.302  0.00  0.00    +0.000 A 
ENDBRANCH  14  15
ENDBRANCH   8  14
TORSDOF 3
ENDMDL
MODEL 2
REMARK VINA RESULT:      -7.7      0.067      1.081
REMARK  Name = 
REMARK  4 active torsions:
REMARK  status: ('A' for Active; 'I' for Inactive)
REMARK    1  A    between atoms: C_1  and  O_2
REMARK    2  A    between atoms: O_2  and  C_3
REMARK    3  A    between atoms: C_10  and  C_11
REMARK    4  A    between atoms: C_11  and  C_12
REMARK                            x       y       z     vdW  Elec       q    Type
REMARK                         _______ _______ _______ _____ _____    ______ ____
ROOT
ATOM      1  C   UNL     1       6.252   4.786  16.611  0.00  0.00    +0.000 A 
ATOM      2  C   UNL     1       5.132   3.967  16.466  0.00  0.00    +0.000 A 
ATOM      3  C   UNL     1       3.993   4.146  17.270  0.00  0.00    +0.000 A 
ATOM      4  C   UNL     1       3.991   5.124  18.264  0.00  0.00    +0.000 A 
ATOM      5  C   UNL     1       5.131   5.915  18.447  0.00  0.00    +0.000 A 
ATOM      6  C   UNL     1       6.251   5.748  17.626  0.00  0.00    +0.000 A 
ATOM      7 CL   UNL     1       7.616   6.777  17.889  0.00  0.00    +0.000 Cl
ATOM      8  C   UNL     1       2.758   5.274  19.085  0.00  0.00    +0.000 C 
ATOM      9  N   UNL     1       1.700   4.557  18.924  0.00  0.00    +0.000 NA
ATOM     10  C   UNL     1       1.583   3.532  17.898  0.00  0.00    +0.000 C 
ATOM     11  C   UNL     1       2.798   3.283  17.017  0.00  0.00    +0.000 C 
ENDROOT
BRANCH   1  13
ATOM     12  C   UNL     1       7.119   4.750  14.419  0.00  0.00    +0.000 C 
ATOM     13  O   UNL     1       7.366   4.672  15.821  0.00  0.00    +0.000 OA
ENDBRANCH   1  13
BRANCH   8  14
ATOM     14  C   UNL     1       2.691   6.346  20.173  0.00  0.00    +0.000 C 
BRANCH  14  15
ATOM     15  C   UNL     1       2.035   7.617  19.685  0.00  0.00    +0.000 A 
ATOM     16  C   UNL     1       2.167   8.004  18.343  0.00  0.00    +0.000 A 
ATOM     17  C   UNL     1       1.604   9.197  17.887  0.00  0.00    +0.000 A 
ATOM     18  C   UNL     1       0.896  10.011  18.766  0.00  0.00    +0.000 A 
ATOM     19  C   UNL     1       0.734   9.623  20.095  0.00  0.00    +0.000 A 
ATOM     20  C   UNL     1       1.295   8.430  20.553  0.00  0.00    +0.000 A 
ENDBRANCH  14  15
ENDBRANCH   8  14
TORSDOF 3
ENDMDL
MODEL 3
REMARK VINA RESULT:      -7.6      2.718      5.982
REMARK  Name = 
REMARK  4 active torsions:
REMARK  status: ('A' for Active; 'I' for Inactive)
REMARK    1  A    between atoms: C_1  and  O_2
REMARK    2  A    between atoms: O_2  and  C_3
REMARK    3  A    between atoms: C_10  and  C_11
REMARK    4  A    between atoms: C_11  and  C_12
REMARK                            x       y       z     vdW  Elec       q    Type
REMARK                         _______ _______ _______ _____ _____    ______ ____
ROOT
ATOM      1  C   UNL     1       1.765   7.630  20.092  0.00  0.00    +0.000 A 
ATOM      2  C   UNL     1       1.661   6.464  20.850  0.00  0.00    +0.000 A 
ATOM      3  C   UNL     1       2.027   5.217  20.315  0.00  0.00    +0.000 A 
ATOM      4  C   UNL     1       2.458   5.127  18.992  0.00  0.00    +0.000 A 
ATOM      5  C   UNL     1       2.517   6.288  18.212  0.00  0.00    +0.000 A 
ATOM      6  C   UNL     1       2.175   7.529  18.759  0.00  0.00    +0.000 A 
ATOM      7 CL   UNL     1       2.296   8.927  17.747  0.00  0.00    +0.000 Cl
ATOM      8  C   UNL     1       2.837   3.783  18.478  0.00  0.00    +0.000 C 
ATOM      9  N   UNL     1       2.793   2.707  19.184  0.00  0.00    +0.000 NA
ATOM     10  C   UNL     1       2.390   2.691  20.583  0.00  0.00    +0.000 C 
ATOM     11  C   UNL     1       1.961   4.014  21.201  0.00  0.00    +0.000 C 
ENDROOT
BRANCH   1  13
ATOM     12  C   UNL     1       0.452   8.882  21.598  0.00  0.00    +0.000 C 
ATOM     13  O   UNL     1       1.458   8.870  20.588  0.00  0.00    +0.000 OA
ENDBRANCH   1  13
BRANCH   8  14
ATOM     14  C   UNL     1       3.339   3.628  17.041  0.00  0.00    +0.000 C 
BRANCH  14  15
ATOM     15  C   UNL     1       4.782   4.051  16.890  0.00  0.00    +0.000 A 
ATOM     16  C   UNL     1       5.332   4.224  15.611  0.00  0.00    +0.000 A 
ATOM     17  C   UNL     1       6.674   4.573  15.454  0.00  0.00    +0.000 A 
ATOM     18  C   UNL     1       7.479   4.760  16.574  0.00  0.00    +0.000 A 
ATOM     19  C   UNL     1       6.936   4.618  17.851  0.00  0.00    +0.000 A 
ATOM     20  C   UNL     1       5.594   4.272  18.010  0.00  0.00    +0.000 A 
ENDBRANCH  14  15
ENDBRANCH   8  14
TORSDOF 3
ENDMDL
MODEL 4
REMARK VINA RESULT:      -7.5      2.701      5.877
REMARK  Name = 
REMARK  4 active torsions:
REMARK  status: ('A' for Active; 'I' for Inactive)
REMARK    1  A    between atoms: C_1  and  O_2
REMARK    2  A    between atoms: O_2  and  C_3
REMARK    3  A    between atoms: C_10  and  C_11
REMARK    4  A    between atoms: C_11  and  C_12
REMARK                            x       y       z     vdW  Elec       q    Type
REMARK                         _______ _______ _______ _____ _____    ______ ____
ROOT
ATOM      1  C   UNL     1       1.769   7.648  20.143  0.00  0.00    +0.000 A 
ATOM      2  C   UNL     1       1.624   6.462  20.862  0.00  0.00    +0.000 A 
ATOM      3  C   UNL     1       1.967   5.223  20.293  0.00  0.00    +0.000 A 
ATOM      4  C   UNL     1       2.415   5.164  18.974  0.00  0.00    +0.000 A 
ATOM      5  C   UNL     1       2.514   6.347  18.233  0.00  0.00    +0.000 A 
ATOM      6  C   UNL     1       2.196   7.579  18.814  0.00  0.00    +0.000 A 
ATOM      7 CL   UNL     1       2.367   9.004  17.849  0.00  0.00    +0.000 Cl
ATOM      8  C   UNL     1       2.768   3.827  18.423  0.00  0.00    +0.000 C 
ATOM      9  N   UNL     1       2.686   2.732  19.094  0.00  0.00    +0.000 NA
ATOM     10  C   UNL     1       2.261   2.682  20.485  0.00  0.00    +0.000 C 
ATOM     11  C   UNL     1       1.856   3.995  21.139  0.00  0.00    +0.000 C 
ENDROOT
BRANCH   1  13
ATOM     12  C   UNL     1       0.096   9.163  20.827  0.00  0.00    +0.000 C 
ATOM     13  O   UNL     1       1.485   8.880  20.674  0.00  0.00    +0.000 OA
ENDBRANCH   1  13
BRANCH   8  14
ATOM     14  C   UNL     1       3.287   3.705  16.989  0.00  0.00    +0.000 C 
BRANCH  14  15
ATOM     15  C   UNL     1       4.756   4.042  16.882  0.00  0.00    +0.000 A 
ATOM     16  C   UNL     1       5.500   4.317  18.040  0.00  0.00    +0.000 A 
ATOM     17  C   UNL     1       6.846   4.671  17.954  0.00  0.00    +0.000 A 
ATOM     18  C   UNL     1       7.467   4.746  16.711  0.00  0.00    +0.000 A 
ATOM     19  C   UNL     1       6.746   4.448  15.555  0.00  0.00    +0.000 A 
ATOM     20  C   UNL     1       5.400   4.092  15.639  0.00  0.00    +0.000 A 
ENDBRANCH  14  15
ENDBRANCH   8  14
TORSDOF 3
ENDMDL
MODEL 5
REMARK VINA RESULT:      -7.3      2.949      5.742
REMARK  Name = 
REMARK  4 active torsions:
REMARK  status: ('A' for Active; 'I' for Inactive)
REMARK    1  A    between atoms: C_1  and  O_2
REMARK    2  A    between atoms: O_2  and  C_3
REMARK    3  A    between atoms: C_10  and  C_11
REMARK    4  A    between atoms: C_11  and  C_12
REMARK                            x       y       z     vdW  Elec       q    Type
REMARK                         _______ _______ _______ _____ _____    ______ ____
ROOT
ATOM      1  C   UNL     1       1.398   7.662  20.280  0.00  0.00    +0.000 A 
ATOM      2  C   UNL     1       1.378   6.409  20.893  0.00  0.00    +0.000 A 
ATOM      3  C   UNL     1       2.150   5.346  20.395  0.00  0.00    +0.000 A 
ATOM      4  C   UNL     1       2.915   5.522  19.242  0.00  0.00    +0.000 A 
ATOM      5  C   UNL     1       2.899   6.763  18.594  0.00  0.00    +0.000 A 
ATOM      6  C   UNL     1       2.148   7.824  19.111  0.00  0.00    +0.000 A 
ATOM      7 CL   UNL     1       2.194   9.338  18.276  0.00  0.00    +0.000 Cl
ATOM      8  C   UNL     1       3.716   4.364  18.759  0.00  0.00    +0.000 C 
ATOM      9  N   UNL     1       3.745   3.219  19.347  0.00  0.00    +0.000 NA
ATOM     10  C   UNL     1       3.011   2.936  20.572  0.00  0.00    +0.000 C 
ATOM     11  C   UNL     1       2.141   4.048  21.138  0.00  0.00    +0.000 C 
ENDROOT
BRANCH   1  13
ATOM     12  C   UNL     1       1.163   9.261  21.997  0.00  0.00    +0.000 C 
ATOM     13  O   UNL     1       0.693   8.736  20.757  0.00  0.00    +0.000 OA
ENDBRANCH   1  13
BRANCH   8  14
ATOM     14  C   UNL     1       4.591   4.507  17.514  0.00  0.00    +0.000 C 
BRANCH  14  15
ATOM     15  C   UNL     1       5.797   5.385  17.758  0.00  0.00    +0.000 A 
ATOM     16  C   UNL     1       6.643   5.127  18.848  0.00  0.00    +0.000 A 
ATOM     17  C   UNL     1       7.735   5.954  19.111  0.00  0.00    +0.000 A 
ATOM     18  C   UNL     1       7.999   7.043  18.285  0.00  0.00    +0.000 A 
ATOM     19  C   UNL     1       7.181   7.293  17.184  0.00  0.00    +0.000 A 
ATOM     20  C   UNL     1       6.089   6.466  16.917  0.00  0.00    +0.000 A 
ENDBRANCH  14  15
ENDBRANCH   8  14
TORSDOF 3
ENDMDL
MODEL 6
REMARK VINA RESULT:      -7.2      2.939      5.769
REMARK  Name = 
REMARK  4 active torsions:
REMARK  status: ('A' for Active; 'I' for Inactive)
REMARK    1  A    between atoms: C_1  and  O_2
REMARK    2  A    between atoms: O_2  and  C_3
REMARK    3  A    between atoms: C_10  and  C_11
REMARK    4  A    between atoms: C_11  and  C_12
REMARK                            x       y       z     vdW  Elec       q    Type
REMARK                         _______ _______ _______ _____ _____    ______ ____
ROOT
ATOM      1  C   UNL     1       1.494   7.546  20.284  0.00  0.00    +0.000 A 
ATOM      2  C   UNL     1       1.436   6.302  20.912  0.00  0.00    +0.000 A 
ATOM      3  C   UNL     1       2.199   5.218  20.445  0.00  0.00    +0.000 A 
ATOM      4  C   UNL     1       2.995   5.366  19.309  0.00  0.00    +0.000 A 
ATOM      5  C   UNL     1       3.018   6.599  18.646  0.00  0.00    +0.000 A 
ATOM      6  C   UNL     1       2.275   7.680  19.132  0.00  0.00    +0.000 A 
ATOM      7 CL   UNL     1       2.370   9.182  18.279  0.00  0.00    +0.000 Cl
ATOM      8  C   UNL     1       3.785   4.187  18.861  0.00  0.00    +0.000 C 
ATOM      9  N   UNL     1       3.779   3.049  19.463  0.00  0.00    +0.000 NA
ATOM     10  C   UNL     1       3.010   2.795  20.673  0.00  0.00    +0.000 C 
ATOM     11  C   UNL     1       2.148   3.931  21.204  0.00  0.00    +0.000 C 
ENDROOT
BRANCH   1  13
ATOM     12  C   UNL     1       1.118   9.056  22.056  0.00  0.00    +0.000 C 
ATOM     13  O   UNL     1       0.798   8.639  20.730  0.00  0.00    +0.000 OA
ENDBRANCH   1  13
BRANCH   8  14
ATOM     14  C   UNL     1       4.693   4.299  17.635  0.00  0.00    +0.000 C 
BRANCH  14  15
ATOM     15  C   UNL     1       5.832   5.268  17.852  0.00  0.00    +0.000 A 
ATOM     16  C   UNL     1       6.049   6.312  16.939  0.00  0.00    +0.000 A 
ATOM     17  C   UNL     1       7.122   7.189  17.102  0.00  0.00    +0.000 A 
ATOM     18  C   UNL     1       7.984   7.037  18.183  0.00  0.00    +0.000 A 
ATOM     19  C   UNL     1       7.763   6.021  19.112  0.00  0.00    +0.000 A 
ATOM     20  C   UNL     1       6.690   5.144  18.952  0.00  0.00    +0.000 A 
ENDBRANCH  14  15
ENDBRANCH   8  14
TORSDOF 3
ENDMDL
MODEL 7
REMARK VINA RESULT:      -7.2      3.250      6.592
REMARK  Name = 
REMARK  4 active torsions:
REMARK  status: ('A' for Active; 'I' for Inactive)
REMARK    1  A    between atoms: C_1  and  O_2
REMARK    2  A    between atoms: O_2  and  C_3
REMARK    3  A    between atoms: C_10  and  C_11
REMARK    4  A    between atoms: C_11  and  C_12
REMARK                            x       y       z     vdW  Elec       q    Type
REMARK                         _______ _______ _______ _____ _____    ______ ____
ROOT
ATOM      1  C   UNL     1       2.425   3.499  18.740  0.00  0.00    +0.000 A 
ATOM      2  C   UNL     1       2.427   4.882  18.555  0.00  0.00    +0.000 A 
ATOM      3  C   UNL     1       3.488   5.522  17.893  0.00  0.00    +0.000 A 
ATOM      4  C   UNL     1       4.583   4.780  17.452  0.00  0.00    +0.000 A 
ATOM      5  C   UNL     1       4.609   3.399  17.679  0.00  0.00    +0.000 A 
ATOM      6  C   UNL     1       3.537   2.764  18.316  0.00  0.00    +0.000 A 
ATOM      7 CL   UNL     1       3.622   1.052  18.542  0.00  0.00    +0.000 Cl
ATOM      8  C   UNL     1       5.677   5.509  16.753  0.00  0.00    +0.000 C 
ATOM      9  N   UNL     1       5.665   6.777  16.532  0.00  0.00    +0.000 NA
ATOM     10  C   UNL     1       4.560   7.641  16.921  0.00  0.00    +0.000 C 
ATOM     11  C   UNL     1       3.398   6.997  17.663  0.00  0.00    +0.000 C 
ENDROOT
BRANCH   1  13
ATOM     12  C   UNL     1       1.358   2.933  20.765  0.00  0.00    +0.000 C 
ATOM     13  O   UNL     1       1.393   2.829  19.343  0.00  0.00    +0.000 OA
ENDBRANCH   1  13
BRANCH   8  14
ATOM     14  C   UNL     1       6.891   4.742  16.227  0.00  0.00    +0.000 C 
BRANCH  14  15
ATOM     15  C   UNL     1       6.857   4.575  14.726  0.00  0.00    +0.000 A 
ATOM     16  C   UNL     1       5.962   3.665  14.141  0.00  0.00    +0.000 A 
ATOM     17  C   UNL     1       5.948   3.469  12.760  0.00  0.00    +0.000 A 
ATOM     18  C   UNL     1       6.822   4.186  11.947  0.00  0.00    +0.000 A 
ATOM     19  C   UNL     1       7.696   5.112  12.514  0.00  0.00    +0.000 A 
ATOM     20  C   UNL     1       7.711   5.312  13.895  0.00  0.00    +0.000 A 
ENDBRANCH  14  15
ENDBRANCH   8  14
TORSDOF 3
ENDMDL
MODEL 8
REMARK VINA RESULT:      -7.0      3.220      6.542
REMARK  Name = 
REMARK  4 active torsions:
REMARK  status: ('A' for Active; 'I' for Inactive)
REMARK    1  A    between atoms: C_1  and  O_2
REMARK    2  A    between atoms: O_2  and  C_3
REMARK    3  A    between atoms: C_10  and  C_11
REMARK    4  A    between atoms: C_11  and  C_12
REMARK                            x       y       z     vdW  Elec       q    Type
REMARK                         _______ _______ _______ _____ _____    ______ ____
ROOT
ATOM      1  C   UNL     1       2.333   3.425  18.844  0.00  0.00    +0.000 A 
ATOM      2  C   UNL     1       2.276   4.803  18.637  0.00  0.00    +0.000 A 
ATOM      3  C   UNL     1       3.322   5.482  17.990  0.00  0.00    +0.000 A 
ATOM      4  C   UNL     1       4.460   4.784  17.587  0.00  0.00    +0.000 A 
ATOM      5  C   UNL     1       4.544   3.410  17.838  0.00  0.00    +0.000 A 
ATOM      6  C   UNL     1       3.487   2.736  18.459  0.00  0.00    +0.000 A 
ATOM      7 CL   UNL     1       3.645   1.033  18.715  0.00  0.00    +0.000 Cl
ATOM      8  C   UNL     1       5.537   5.552  16.904  0.00  0.00    +0.000 C 
ATOM      9  N   UNL     1       5.472   6.815  16.661  0.00  0.00    +0.000 NA
ATOM     10  C   UNL     1       4.319   7.633  17.009  0.00  0.00    +0.000 C 
ATOM     11  C   UNL     1       3.170   6.948  17.733  0.00  0.00    +0.000 C 
ENDROOT
BRANCH   1  13
ATOM     12  C   UNL     1       1.245   2.839  20.853  0.00  0.00    +0.000 C 
ATOM     13  O   UNL     1       1.317   2.718  19.434  0.00  0.00    +0.000 OA
ENDBRANCH   1  13
BRANCH   8  14
ATOM     14  C   UNL     1       6.797   4.834  16.419  0.00  0.00    +0.000 C 
BRANCH  14  15
ATOM     15  C   UNL     1       6.780   4.590  14.928  0.00  0.00    +0.000 A 
ATOM     16  C   UNL     1       7.709   5.238  14.100  0.00  0.00    +0.000 A 
ATOM     17  C   UNL     1       7.679   5.056  12.717  0.00  0.00    +0.000 A 
ATOM     18  C   UNL     1       6.726   4.217  12.148  0.00  0.00    +0.000 A 
ATOM     19  C   UNL     1       5.816   3.545  12.963  0.00  0.00    +0.000 A 
ATOM     20  C   UNL     1       5.845   3.725  14.346  0.00  0.00    +0.000 A 
ENDBRANCH  14  15
ENDBRANCH   8  14
TORSDOF 3
ENDMDL
MODEL 9
REMARK VINA RESULT:      -7.0      3.437      4.646
REMARK  Name = 
REMARK  4 active torsions:
REMARK  status: ('A' for Active; 'I' for Inactive)
REMARK    1  A    between atoms: C_1  and  O_2
REMARK    2  A    between atoms: O_2  and  C_3
REMARK    3  A    between atoms: C_10  and  C_11
REMARK    4  A    between atoms: C_11  and  C_12
REMARK                            x       y       z     vdW  Elec       q    Type
REMARK                         _______ _______ _______ _____ _____    ______ ____
ROOT
ATOM      1  C   UNL     1       7.001   4.990  14.102  0.00  0.00    +0.000 A 
ATOM      2  C   UNL     1       7.361   5.567  15.320  0.00  0.00    +0.000 A 
ATOM      3  C   UNL     1       6.706   5.210  16.512  0.00  0.00    +0.000 A 
ATOM      4  C   UNL     1       5.649   4.302  16.479  0.00  0.00    +0.000 A 
ATOM      5  C   UNL     1       5.252   3.759  15.252  0.00  0.00    +0.000 A 
ATOM      6  C   UNL     1       5.924   4.099  14.074  0.00  0.00    +0.000 A 
ATOM      7 CL   UNL     1       5.399   3.370  12.596  0.00  0.00    +0.000 Cl
ATOM      8  C   UNL     1       4.993   3.958  17.771  0.00  0.00    +0.000 C 
ATOM      9  N   UNL     1       5.350   4.445  18.907  0.00  0.00    +0.000 NA
ATOM     10  C   UNL     1       6.459   5.375  19.060  0.00  0.00    +0.000 C 
ATOM     11  C   UNL     1       7.185   5.810  17.795  0.00  0.00    +0.000 C 
ENDROOT
BRANCH   1  13
ATOM     12  C   UNL     1       8.913   5.907  13.068  0.00  0.00    +0.000 C 
ATOM     13  O   UNL     1       7.640   5.279  12.924  0.00  0.00    +0.000 OA
ENDBRANCH   1  13
BRANCH   8  14
ATOM     14  C   UNL     1       3.843   2.949  17.798  0.00  0.00    +0.000 C 
BRANCH  14  15
ATOM     15  C   UNL     1       2.979   3.099  19.028  0.00  0.00    +0.000 A 
ATOM     16  C   UNL     1       1.811   3.876  18.975  0.00  0.00    +0.000 A 
ATOM     17  C   UNL     1       1.025   4.059  20.113  0.00  0.00    +0.000 A 
ATOM     18  C   UNL     1       1.393   3.461  21.315  0.00  0.00    +0.000 A 
ATOM     19  C   UNL     1       2.537   2.665  21.373  0.00  0.00    +0.000 A 
ATOM     20  C   UNL     1       3.323   2.479  20.236  0.00  0.00    +0.000 A 
ENDBRANCH  14  15
ENDBRANCH   8  14
TORSDOF 3
ENDMDL
