MODEL 1
REMARK VINA RESULT:      -7.8      0.000      0.000
REMARK  Name = 
REMARK  13 active torsions:
REMARK  status: ('A' for Active; 'I' for Inactive)
REMARK    1  A    between atoms: C_1  and  C_2
REMARK    2  A    between atoms: C_2  and  C_3
REMARK    3  A    between atoms: C_2  and  C_4
REMARK    4  A    between atoms: C_2  and  C_5
REMARK    5  A    between atoms: C_8  and  S_9
REMARK    6  A    between atoms: S_9  and  N_12
REMARK    7  A    between atoms: N_12  and  C_13
REMARK    8  A    between atoms: N_12  and  C_24
REMARK    9  A    between atoms: C_13  and  C_14
REMARK   10  A    between atoms: C_14  and  O_15
REMARK   11  A    between atoms: C_14  and  C_16
REMARK   12  A    between atoms: C_16  and  N_17
REMARK   13  A    between atoms: C_16  and  C_18
REMARK                            x       y       z     vdW  Elec       q    Type
REMARK                         _______ _______ _______ _____ _____    ______ ____
ROOT
ATOM      1  N   UNL     1       3.554   4.299  18.021  0.00  0.00    +0.000 NA
ENDROOT
BRANCH   1   2
ATOM      2  C   UNL     1       2.107   3.770  17.949  0.00  0.00    +0.000 C 
ATOM      3  C   UNL     1       1.824   2.251  17.953  0.00  0.00    +0.000 C 
ATOM      4  C   UNL     1       0.577   2.541  18.815  0.00  0.00    +0.000 C 
ATOM      5  C   UNL     1       1.260   3.847  19.250  0.00  0.00    +0.000 C 
ENDBRANCH   1   2
BRANCH   1   6
ATOM      6  S   UNL     1       3.953   5.358  19.392  0.00  0.00    +0.000 S 
ATOM      7  O   UNL     1       5.337   5.787  19.316  0.00  0.00    +0.000 OA
ATOM      8  O   UNL     1       3.512   4.639  20.576  0.00  0.00    +0.000 OA
BRANCH   6  12
ATOM      9  C   UNL     1       1.201   9.134  19.071  0.00  0.00    +0.000 A 
ATOM     10  C   UNL     1       1.902   8.612  17.970  0.00  0.00    +0.000 A 
ATOM     11  C   UNL     1       2.761   7.502  18.096  0.00  0.00    +0.000 A 
ATOM     12  C   UNL     1       2.910   6.845  19.316  0.00  0.00    +0.000 A 
ATOM     13  C   UNL     1       2.064   7.242  20.358  0.00  0.00    +0.000 A 
ATOM     14  C   UNL     1       1.308   8.421  20.273  0.00  0.00    +0.000 A 
BRANCH   9  16
ATOM     15  C   UNL     1       1.100  11.682  18.650  0.00  0.00    +0.000 C 
ATOM     16  C   UNL     1       0.318  10.397  19.000  0.00  0.00    +0.000 C 
ATOM     17  C   UNL     1      -0.355  10.624  20.372  0.00  0.00    +0.000 C 
ATOM     18  C   UNL     1      -0.788  10.239  17.931  0.00  0.00    +0.000 C 
ENDBRANCH   9  16
ENDBRANCH   6  12
ENDBRANCH   1   6
BRANCH   1  19
ATOM     19  C   UNL     1       4.506   3.180  17.592  0.00  0.00    +0.000 C 
BRANCH  19  20
ATOM     20  C   UNL     1       5.558   3.686  16.605  0.00  0.00    +0.000 C 
BRANCH  20  21
ATOM     21  O   UNL     1       6.638   4.101  17.430  0.00  0.00    +0.000 OA
ATOM     22  H   UNL     1       7.027   3.262  17.707  0.00  0.00    +0.000 HD
ENDBRANCH  20  21
BRANCH  20  23
ATOM     23  C   UNL     1       5.283   4.915  15.689  0.00  0.00    +0.000 C 
BRANCH  23  24
ATOM     24  C   UNL     1       5.885   4.643  14.296  0.00  0.00    +0.000 A 
ATOM     25  C   UNL     1       5.261   3.749  13.416  0.00  0.00    +0.000 A 
ATOM     26  C   UNL     1       5.890   3.377  12.220  0.00  0.00    +0.000 A 
ATOM     27  C   UNL     1       7.129   3.892  11.861  0.00  0.00    +0.000 A 
ATOM     28  C   UNL     1       7.729   4.842  12.673  0.00  0.00    +0.000 A 
ATOM     29  C   UNL     1       7.103   5.219  13.855  0.00  0.00    +0.000 A 
ENDBRANCH  23  24
BRANCH  23  30
ATOM     30  N   UNL     1       5.830   6.165  16.247  0.00  0.00    +0.000 NA
ATOM     31  H   UNL     1       6.038   6.804  15.479  0.00  0.00    +0.000 HD
ATOM     32  H   UNL     1       6.682   6.005  16.776  0.00  0.00    +0.000 HD
ENDBRANCH  23  30
ENDBRANCH  20  23
ENDBRANCH  19  20
ENDBRANCH   1  19
TORSDOF 10
ENDMDL
MODEL 2
REMARK VINA RESULT:      -7.4      1.883      3.299
REMARK  Name = 
REMARK  13 active torsions:
REMARK  status: ('A' for Active; 'I' for Inactive)
REMARK    1  A    between atoms: C_1  and  C_2
REMARK    2  A    between atoms: C_2  and  C_3
REMARK    3  A    between atoms: C_2  and  C_4
REMARK    4  A    between atoms: C_2  and  C_5
REMARK    5  A    between atoms: C_8  and  S_9
REMARK    6  A    between atoms: S_9  and  N_12
REMARK    7  A    between atoms: N_12  and  C_13
REMARK    8  A    between atoms: N_12  and  C_24
REMARK    9  A    between atoms: C_13  and  C_14
REMARK   10  A    between atoms: C_14  and  O_15
REMARK   11  A    between atoms: C_14  and  C_16
REMARK   12  A    between atoms: C_16  and  N_17
REMARK   13  A    between atoms: C_16  and  C_18
REMARK                            x       y       z     vdW  Elec       q    Type
REMARK                         _______ _______ _______ _____ _____    ______ ____
ROOT
ATOM      1  N   UNL     1       5.129   5.452  17.435  0.00  0.00    +0.000 NA
ENDROOT
BRANCH   1   2
ATOM      2  C   UNL     1       6.135   6.315  18.224  0.00  0.00    +0.000 C 
ATOM      3  C   UNL     1       7.192   5.653  19.136  0.00  0.00    +0.000 C 
ATOM      4  C   UNL     1       8.184   6.748  18.688  0.00  0.00    +0.000 C 
ATOM      5  C   UNL     1       7.323   6.923  17.427  0.00  0.00    +0.000 C 
ENDBRANCH   1   2
BRANCH   1   6
ATOM      6  S   UNL     1       3.602   5.053  18.253  0.00  0.00    +0.000 S 
ATOM      7  O   UNL     1       3.862   4.372  19.508  0.00  0.00    +0.000 OA
ATOM      8  O   UNL     1       2.792   4.379  17.251  0.00  0.00    +0.000 OA
BRANCH   6  12
ATOM      9  C   UNL     1       1.398   9.034  19.361  0.00  0.00    +0.000 A 
ATOM     10  C   UNL     1       1.633   8.013  20.298  0.00  0.00    +0.000 A 
ATOM     11  C   UNL     1       2.258   6.802  19.935  0.00  0.00    +0.000 A 
ATOM     12  C   UNL     1       2.713   6.592  18.635  0.00  0.00    +0.000 A 
ATOM     13  C   UNL     1       2.657   7.682  17.759  0.00  0.00    +0.000 A 
ATOM     14  C   UNL     1       1.924   8.835  18.078  0.00  0.00    +0.000 A 
BRANCH   9  16
ATOM     15  C   UNL     1       1.249  11.592  19.024  0.00  0.00    +0.000 C 
ATOM     16  C   UNL     1       0.643  10.338  19.691  0.00  0.00    +0.000 C 
ATOM     17  C   UNL     1       0.670  10.569  21.218  0.00  0.00    +0.000 C 
ATOM     18  C   UNL     1      -0.832  10.253  19.234  0.00  0.00    +0.000 C 
ENDBRANCH   9  16
ENDBRANCH   6  12
ENDBRANCH   1   6
BRANCH   1  19
ATOM     19  C   UNL     1       5.140   5.904  15.973  0.00  0.00    +0.000 C 
BRANCH  19  20
ATOM     20  C   UNL     1       5.537   4.761  15.036  0.00  0.00    +0.000 C 
BRANCH  20  21
ATOM     21  O   UNL     1       6.314   3.896  15.853  0.00  0.00    +0.000 OA
ATOM     22  H   UNL     1       6.482   3.147  15.268  0.00  0.00    +0.000 HD
ENDBRANCH  20  21
BRANCH  20  23
ATOM     23  C   UNL     1       6.433   5.015  13.788  0.00  0.00    +0.000 C 
BRANCH  23  24
ATOM     24  C   UNL     1       6.312   3.808  12.835  0.00  0.00    +0.000 A 
ATOM     25  C   UNL     1       7.459   3.219  12.287  0.00  0.00    +0.000 A 
ATOM     26  C   UNL     1       7.345   2.232  11.299  0.00  0.00    +0.000 A 
ATOM     27  C   UNL     1       6.106   1.795  10.848  0.00  0.00    +0.000 A 
ATOM     28  C   UNL     1       4.955   2.301  11.434  0.00  0.00    +0.000 A 
ATOM     29  C   UNL     1       5.066   3.274  12.420  0.00  0.00    +0.000 A 
ENDBRANCH  23  24
BRANCH  23  30
ATOM     30  N   UNL     1       7.844   5.243  14.145  0.00  0.00    +0.000 NA
ATOM     31  H   UNL     1       8.150   6.125  13.733  0.00  0.00    +0.000 HD
ATOM     32  H   UNL     1       8.447   4.499  13.807  0.00  0.00    +0.000 HD
ENDBRANCH  23  30
ENDBRANCH  20  23
ENDBRANCH  19  20
ENDBRANCH   1  19
TORSDOF 10
ENDMDL
MODEL 3
REMARK VINA RESULT:      -7.4      1.885      2.429
REMARK  Name = 
REMARK  13 active torsions:
REMARK  status: ('A' for Active; 'I' for Inactive)
REMARK    1  A    between atoms: C_1  and  C_2
REMARK    2  A    between atoms: C_2  and  C_3
REMARK    3  A    between atoms: C_2  and  C_4
REMARK    4  A    between atoms: C_2  and  C_5
REMARK    5  A    between atoms: C_8  and  S_9
REMARK    6  A    between atoms: S_9  and  N_12
REMARK    7  A    between atoms: N_12  and  C_13
REMARK    8  A    between atoms: N_12  and  C_24
REMARK    9  A    between atoms: C_13  and  C_14
REMARK   10  A    between atoms: C_14  and  O_15
REMARK   11  A    between atoms: C_14  and  C_16
REMARK   12  A    between atoms: C_16  and  N_17
REMARK   13  A    between atoms: C_16  and  C_18
REMARK                            x       y       z     vdW  Elec       q    Type
REMARK                         _______ _______ _______ _____ _____    ______ ____
ROOT
ATOM      1  N   UNL     1       3.932   4.903  18.978  0.00  0.00    +0.000 NA
ENDROOT
BRANCH   1   2
ATOM      2  C   UNL     1       4.339   3.424  18.809  0.00  0.00    +0.000 C 
ATOM      3  C   UNL     1       3.788   2.343  19.765  0.00  0.00    +0.000 C 
ATOM      4  C   UNL     1       3.718   1.387  18.555  0.00  0.00    +0.000 C 
ATOM      5  C   UNL     1       3.663   2.632  17.656  0.00  0.00    +0.000 C 
ENDBRANCH   1   2
BRANCH   1   6
ATOM      6  S   UNL     1       2.392   5.220  19.806  0.00  0.00    +0.000 S 
ATOM      7  O   UNL     1       2.494   4.886  21.214  0.00  0.00    +0.000 OA
ATOM      8  O   UNL     1       1.378   4.554  19.005  0.00  0.00    +0.000 OA
BRANCH   6  12
ATOM      9  C   UNL     1       1.327   9.761  19.377  0.00  0.00    +0.000 A 
ATOM     10  C   UNL     1       1.784   8.985  18.297  0.00  0.00    +0.000 A 
ATOM     11  C   UNL     1       2.143   7.631  18.456  0.00  0.00    +0.000 A 
ATOM     12  C   UNL     1       2.010   6.994  19.688  0.00  0.00    +0.000 A 
ATOM     13  C   UNL     1       1.371   7.709  20.707  0.00  0.00    +0.000 A 
ATOM     14  C   UNL     1       1.134   9.088  20.590  0.00  0.00    +0.000 A 
BRANCH   9  16
ATOM     15  C   UNL     1       2.014  12.057  18.409  0.00  0.00    +0.000 C 
ATOM     16  C   UNL     1       1.006  11.266  19.270  0.00  0.00    +0.000 C 
ATOM     17  C   UNL     1       1.017  11.889  20.684  0.00  0.00    +0.000 C 
ATOM     18  C   UNL     1      -0.392  11.490  18.646  0.00  0.00    +0.000 C 
ENDBRANCH   9  16
ENDBRANCH   6  12
ENDBRANCH   1   6
BRANCH   1  19
ATOM     19  C   UNL     1       5.183   5.719  19.310  0.00  0.00    +0.000 C 
BRANCH  19  20
ATOM     20  C   UNL     1       6.455   4.884  19.155  0.00  0.00    +0.000 C 
BRANCH  20  21
ATOM     21  O   UNL     1       7.240   5.232  20.288  0.00  0.00    +0.000 OA
ATOM     22  H   UNL     1       7.612   4.383  20.556  0.00  0.00    +0.000 HD
ENDBRANCH  20  21
BRANCH  20  23
ATOM     23  C   UNL     1       7.416   5.090  17.947  0.00  0.00    +0.000 C 
BRANCH  23  24
ATOM     24  C   UNL     1       6.600   4.997  16.641  0.00  0.00    +0.000 A 
ATOM     25  C   UNL     1       6.660   3.843  15.848  0.00  0.00    +0.000 A 
ATOM     26  C   UNL     1       6.051   3.818  14.586  0.00  0.00    +0.000 A 
ATOM     27  C   UNL     1       5.361   4.917  14.092  0.00  0.00    +0.000 A 
ATOM     28  C   UNL     1       5.215   6.041  14.890  0.00  0.00    +0.000 A 
ATOM     29  C   UNL     1       5.810   6.064  16.146  0.00  0.00    +0.000 A 
ENDBRANCH  23  24
BRANCH  23  30
ATOM     30  N   UNL     1       8.518   4.112  17.931  0.00  0.00    +0.000 NA
ATOM     31  H   UNL     1       8.205   3.257  18.393  0.00  0.00    +0.000 HD
ATOM     32  H   UNL     1       9.341   4.459  18.413  0.00  0.00    +0.000 HD
ENDBRANCH  23  30
ENDBRANCH  20  23
ENDBRANCH  19  20
ENDBRANCH   1  19
TORSDOF 10
ENDMDL
MODEL 4
REMARK VINA RESULT:      -7.3      1.891      2.731
REMARK  Name = 
REMARK  13 active torsions:
REMARK  status: ('A' for Active; 'I' for Inactive)
REMARK    1  A    between atoms: C_1  and  C_2
REMARK    2  A    between atoms: C_2  and  C_3
REMARK    3  A    between atoms: C_2  and  C_4
REMARK    4  A    between atoms: C_2  and  C_5
REMARK    5  A    between atoms: C_8  and  S_9
REMARK    6  A    between atoms: S_9  and  N_12
REMARK    7  A    between atoms: N_12  and  C_13
REMARK    8  A    between atoms: N_12  and  C_24
REMARK    9  A    between atoms: C_13  and  C_14
REMARK   10  A    between atoms: C_14  and  O_15
REMARK   11  A    between atoms: C_14  and  C_16
REMARK   12  A    between atoms: C_16  and  N_17
REMARK   13  A    between atoms: C_16  and  C_18
REMARK                            x       y       z     vdW  Elec       q    Type
REMARK                         _______ _______ _______ _____ _____    ______ ____
ROOT
ATOM      1  N   UNL     1       3.937   4.873  18.910  0.00  0.00    +0.000 NA
ENDROOT
BRANCH   1   2
ATOM      2  C   UNL     1       4.364   3.403  18.717  0.00  0.00    +0.000 C 
ATOM      3  C   UNL     1       3.818   2.297  19.646  0.00  0.00    +0.000 C 
ATOM      4  C   UNL     1       3.772   1.364  18.417  0.00  0.00    +0.000 C 
ATOM      5  C   UNL     1       3.710   2.626  17.541  0.00  0.00    +0.000 C 
ENDBRANCH   1   2
BRANCH   1   6
ATOM      6  S   UNL     1       2.408   5.156  19.772  0.00  0.00    +0.000 S 
ATOM      7  O   UNL     1       2.567   4.886  21.189  0.00  0.00    +0.000 OA
ATOM      8  O   UNL     1       1.403   4.412  19.030  0.00  0.00    +0.000 OA
BRANCH   6  12
ATOM      9  C   UNL     1       1.285   9.691  19.437  0.00  0.00    +0.000 A 
ATOM     10  C   UNL     1       1.174   8.970  20.639  0.00  0.00    +0.000 A 
ATOM     11  C   UNL     1       1.473   7.594  20.710  0.00  0.00    +0.000 A 
ATOM     12  C   UNL     1       1.942   6.904  19.593  0.00  0.00    +0.000 A 
ATOM     13  C   UNL     1       2.239   7.664  18.456  0.00  0.00    +0.000 A 
ATOM     14  C   UNL     1       1.822   8.999  18.344  0.00  0.00    +0.000 A 
BRANCH   9  16
ATOM     15  C   UNL     1       0.762  11.918  20.639  0.00  0.00    +0.000 C 
ATOM     16  C   UNL     1       0.887  11.174  19.292  0.00  0.00    +0.000 C 
ATOM     17  C   UNL     1      -0.483  11.266  18.584  0.00  0.00    +0.000 C 
ATOM     18  C   UNL     1       1.929  11.945  18.447  0.00  0.00    +0.000 C 
ENDBRANCH   9  16
ENDBRANCH   6  12
ENDBRANCH   1   6
BRANCH   1  19
ATOM     19  C   UNL     1       5.181   5.706  19.227  0.00  0.00    +0.000 C 
BRANCH  19  20
ATOM     20  C   UNL     1       6.457   4.867  19.133  0.00  0.00    +0.000 C 
BRANCH  20  21
ATOM     21  O   UNL     1       7.168   5.182  20.322  0.00  0.00    +0.000 OA
ATOM     22  H   UNL     1       6.496   5.616  20.862  0.00  0.00    +0.000 HD
ENDBRANCH  20  21
BRANCH  20  23
ATOM     23  C   UNL     1       7.494   5.099  17.994  0.00  0.00    +0.000 C 
BRANCH  23  24
ATOM     24  C   UNL     1       6.760   5.065  16.639  0.00  0.00    +0.000 A 
ATOM     25  C   UNL     1       5.952   6.139  16.241  0.00  0.00    +0.000 A 
ATOM     26  C   UNL     1       5.159   6.041  15.090  0.00  0.00    +0.000 A 
ATOM     27  C   UNL     1       5.161   4.897  14.302  0.00  0.00    +0.000 A 
ATOM     28  C   UNL     1       6.014   3.853  14.626  0.00  0.00    +0.000 A 
ATOM     29  C   UNL     1       6.809   3.952  15.762  0.00  0.00    +0.000 A 
ENDBRANCH  23  24
BRANCH  23  30
ATOM     30  N   UNL     1       8.580   4.103  18.013  0.00  0.00    +0.000 NA
ATOM     31  H   UNL     1       8.326   3.329  17.397  0.00  0.00    +0.000 HD
ATOM     32  H   UNL     1       8.744   3.736  18.945  0.00  0.00    +0.000 HD
ENDBRANCH  23  30
ENDBRANCH  20  23
ENDBRANCH  19  20
ENDBRANCH   1  19
TORSDOF 10
ENDMDL
MODEL 5
REMARK VINA RESULT:      -7.3      2.013      3.481
REMARK  Name = 
REMARK  13 active torsions:
REMARK  status: ('A' for Active; 'I' for Inactive)
REMARK    1  A    between atoms: C_1  and  C_2
REMARK    2  A    between atoms: C_2  and  C_3
REMARK    3  A    between atoms: C_2  and  C_4
REMARK    4  A    between atoms: C_2  and  C_5
REMARK    5  A    between atoms: C_8  and  S_9
REMARK    6  A    between atoms: S_9  and  N_12
REMARK    7  A    between atoms: N_12  and  C_13
REMARK    8  A    between atoms: N_12  and  C_24
REMARK    9  A    between atoms: C_13  and  C_14
REMARK   10  A    between atoms: C_14  and  O_15
REMARK   11  A    between atoms: C_14  and  C_16
REMARK   12  A    between atoms: C_16  and  N_17
REMARK   13  A    between atoms: C_16  and  C_18
REMARK                            x       y       z     vdW  Elec       q    Type
REMARK                         _______ _______ _______ _____ _____    ______ ____
ROOT
ATOM      1  N   UNL     1       5.592   5.534  17.387  0.00  0.00    +0.000 NA
ENDROOT
BRANCH   1   2
ATOM      2  C   UNL     1       6.440   6.554  18.174  0.00  0.00    +0.000 C 
ATOM      3  C   UNL     1       7.785   6.135  18.809  0.00  0.00    +0.000 C 
ATOM      4  C   UNL     1       8.334   7.527  18.432  0.00  0.00    +0.000 C 
ATOM      5  C   UNL     1       7.248   7.591  17.346  0.00  0.00    +0.000 C 
ENDBRANCH   1   2
BRANCH   1   6
ATOM      6  S   UNL     1       4.085   4.983  18.153  0.00  0.00    +0.000 S 
ATOM      7  O   UNL     1       4.373   4.274  19.386  0.00  0.00    +0.000 OA
ATOM      8  O   UNL     1       3.351   4.291  17.107  0.00  0.00    +0.000 OA
BRANCH   6  12
ATOM      9  C   UNL     1       1.397   8.698  19.108  0.00  0.00    +0.000 A 
ATOM     10  C   UNL     1       2.011   8.509  17.858  0.00  0.00    +0.000 A 
ATOM     11  C   UNL     1       2.854   7.408  17.603  0.00  0.00    +0.000 A 
ATOM     12  C   UNL     1       3.071   6.432  18.574  0.00  0.00    +0.000 A 
ATOM     13  C   UNL     1       2.306   6.517  19.742  0.00  0.00    +0.000 A 
ATOM     14  C   UNL     1       1.571   7.673  20.048  0.00  0.00    +0.000 A 
BRANCH   9  16
ATOM     15  C   UNL     1      -0.173   9.821  20.826  0.00  0.00    +0.000 C 
ATOM     16  C   UNL     1       0.538   9.930  19.460  0.00  0.00    +0.000 C 
ATOM     17  C   UNL     1      -0.554  10.112  18.383  0.00  0.00    +0.000 C 
ATOM     18  C   UNL     1       1.403  11.212  19.504  0.00  0.00    +0.000 C 
ENDBRANCH   9  16
ENDBRANCH   6  12
ENDBRANCH   1   6
BRANCH   1  19
ATOM     19  C   UNL     1       5.626   5.911  15.904  0.00  0.00    +0.000 C 
BRANCH  19  20
ATOM     20  C   UNL     1       6.314   4.833  15.065  0.00  0.00    +0.000 C 
BRANCH  20  21
ATOM     21  O   UNL     1       7.535   4.587  15.750  0.00  0.00    +0.000 OA
ATOM     22  H   UNL     1       8.089   5.325  15.465  0.00  0.00    +0.000 HD
ENDBRANCH  20  21
BRANCH  20  23
ATOM     23  C   UNL     1       6.748   5.108  13.595  0.00  0.00    +0.000 C 
BRANCH  23  24
ATOM     24  C   UNL     1       6.456   3.854  12.748  0.00  0.00    +0.000 A 
ATOM     25  C   UNL     1       7.506   3.130  12.166  0.00  0.00    +0.000 A 
ATOM     26  C   UNL     1       7.236   2.091  11.266  0.00  0.00    +0.000 A 
ATOM     27  C   UNL     1       5.935   1.733  10.938  0.00  0.00    +0.000 A 
ATOM     28  C   UNL     1       4.878   2.377  11.563  0.00  0.00    +0.000 A 
ATOM     29  C   UNL     1       5.143   3.402  12.463  0.00  0.00    +0.000 A 
ENDBRANCH  23  24
BRANCH  23  30
ATOM     30  N   UNL     1       8.171   5.476  13.489  0.00  0.00    +0.000 NA
ATOM     31  H   UNL     1       8.435   5.487  12.503  0.00  0.00    +0.000 HD
ATOM     32  H   UNL     1       8.771   4.819  13.979  0.00  0.00    +0.000 HD
ENDBRANCH  23  30
ENDBRANCH  20  23
ENDBRANCH  19  20
ENDBRANCH   1  19
TORSDOF 10
ENDMDL
MODEL 6
REMARK VINA RESULT:      -7.3      1.924      3.057
REMARK  Name = 
REMARK  13 active torsions:
REMARK  status: ('A' for Active; 'I' for Inactive)
REMARK    1  A    between atoms: C_1  and  C_2
REMARK    2  A    between atoms: C_2  and  C_3
REMARK    3  A    between atoms: C_2  and  C_4
REMARK    4  A    between atoms: C_2  and  C_5
REMARK    5  A    between atoms: C_8  and  S_9
REMARK    6  A    between atoms: S_9  and  N_12
REMARK    7  A    between atoms: N_12  and  C_13
REMARK    8  A    between atoms: N_12  and  C_24
REMARK    9  A    between atoms: C_13  and  C_14
REMARK   10  A    between atoms: C_14  and  O_15
REMARK   11  A    between atoms: C_14  and  C_16
REMARK   12  A    between atoms: C_16  and  N_17
REMARK   13  A    between atoms: C_16  and  C_18
REMARK                            x       y       z     vdW  Elec       q    Type
REMARK                         _______ _______ _______ _____ _____    ______ ____
ROOT
ATOM      1  N   UNL     1       3.175   4.486  17.910  0.00  0.00    +0.000 NA
ENDROOT
BRANCH   1   2
ATOM      2  C   UNL     1       1.883   3.643  17.918  0.00  0.00    +0.000 C 
ATOM      3  C   UNL     1       1.943   2.116  18.141  0.00  0.00    +0.000 C 
ATOM      4  C   UNL     1       0.638   2.239  18.956  0.00  0.00    +0.000 C 
ATOM      5  C   UNL     1       1.002   3.713  19.196  0.00  0.00    +0.000 C 
ENDBRANCH   1   2
BRANCH   1   6
ATOM      6  S   UNL     1       3.495   5.476  19.351  0.00  0.00    +0.000 S 
ATOM      7  O   UNL     1       4.888   5.881  19.390  0.00  0.00    +0.000 OA
ATOM      8  O   UNL     1       2.960   4.716  20.468  0.00  0.00    +0.000 OA
BRANCH   6  12
ATOM      9  C   UNL     1       0.966   9.417  19.264  0.00  0.00    +0.000 A 
ATOM     10  C   UNL     1       1.156   8.665  20.436  0.00  0.00    +0.000 A 
ATOM     11  C   UNL     1       1.882   7.457  20.434  0.00  0.00    +0.000 A 
ATOM     12  C   UNL     1       2.486   6.986  19.269  0.00  0.00    +0.000 A 
ATOM     13  C   UNL     1       2.463   7.833  18.156  0.00  0.00    +0.000 A 
ATOM     14  C   UNL     1       1.636   8.966  18.119  0.00  0.00    +0.000 A 
BRANCH   9  16
ATOM     15  C   UNL     1      -0.535  11.081  20.551  0.00  0.00    +0.000 C 
ATOM     16  C   UNL     1       0.108  10.697  19.201  0.00  0.00    +0.000 C 
ATOM     17  C   UNL     1      -1.038  10.492  18.185  0.00  0.00    +0.000 C 
ATOM     18  C   UNL     1       0.955  11.909  18.746  0.00  0.00    +0.000 C 
ENDBRANCH   9  16
ENDBRANCH   6  12
ENDBRANCH   1   6
BRANCH   1  19
ATOM     19  C   UNL     1       4.290   3.665  17.260  0.00  0.00    +0.000 C 
BRANCH  19  20
ATOM     20  C   UNL     1       5.045   4.477  16.206  0.00  0.00    +0.000 C 
BRANCH  20  21
ATOM     21  O   UNL     1       4.538   3.998  14.968  0.00  0.00    +0.000 OA
ATOM     22  H   UNL     1       3.583   4.077  15.086  0.00  0.00    +0.000 HD
ENDBRANCH  20  21
BRANCH  20  23
ATOM     23  C   UNL     1       6.591   4.367  16.055  0.00  0.00    +0.000 C 
BRANCH  23  24
ATOM     24  C   UNL     1       7.258   5.382  17.005  0.00  0.00    +0.000 A 
ATOM     25  C   UNL     1       7.798   4.961  18.228  0.00  0.00    +0.000 A 
ATOM     26  C   UNL     1       8.256   5.901  19.161  0.00  0.00    +0.000 A 
ATOM     27  C   UNL     1       8.209   7.264  18.901  0.00  0.00    +0.000 A 
ATOM     28  C   UNL     1       7.758   7.703  17.666  0.00  0.00    +0.000 A 
ATOM     29  C   UNL     1       7.311   6.772  16.735  0.00  0.00    +0.000 A 
ENDBRANCH  23  24
BRANCH  23  30
ATOM     30  N   UNL     1       7.038   4.595  14.670  0.00  0.00    +0.000 NA
ATOM     31  H   UNL     1       7.111   5.600  14.509  0.00  0.00    +0.000 HD
ATOM     32  H   UNL     1       6.390   4.204  13.992  0.00  0.00    +0.000 HD
ENDBRANCH  23  30
ENDBRANCH  20  23
ENDBRANCH  19  20
ENDBRANCH   1  19
TORSDOF 10
ENDMDL
MODEL 7
REMARK VINA RESULT:      -7.2      1.488      2.226
REMARK  Name = 
REMARK  13 active torsions:
REMARK  status: ('A' for Active; 'I' for Inactive)
REMARK    1  A    between atoms: C_1  and  C_2
REMARK    2  A    between atoms: C_2  and  C_3
REMARK    3  A    between atoms: C_2  and  C_4
REMARK    4  A    between atoms: C_2  and  C_5
REMARK    5  A    between atoms: C_8  and  S_9
REMARK    6  A    between atoms: S_9  and  N_12
REMARK    7  A    between atoms: N_12  and  C_13
REMARK    8  A    between atoms: N_12  and  C_24
REMARK    9  A    between atoms: C_13  and  C_14
REMARK   10  A    between atoms: C_14  and  O_15
REMARK   11  A    between atoms: C_14  and  C_16
REMARK   12  A    between atoms: C_16  and  N_17
REMARK   13  A    between atoms: C_16  and  C_18
REMARK                            x       y       z     vdW  Elec       q    Type
REMARK                         _______ _______ _______ _____ _____    ______ ____
ROOT
ATOM      1  N   UNL     1       3.908   4.704  18.885  0.00  0.00    +0.000 NA
ENDROOT
BRANCH   1   2
ATOM      2  C   UNL     1       4.242   3.231  18.570  0.00  0.00    +0.000 C 
ATOM      3  C   UNL     1       4.040   2.134  19.637  0.00  0.00    +0.000 C 
ATOM      4  C   UNL     1       3.578   1.193  18.504  0.00  0.00    +0.000 C 
ATOM      5  C   UNL     1       3.226   2.449  17.692  0.00  0.00    +0.000 C 
ENDBRANCH   1   2
BRANCH   1   6
ATOM      6  S   UNL     1       2.412   5.010  19.794  0.00  0.00    +0.000 S 
ATOM      7  O   UNL     1       2.616   4.756  21.208  0.00  0.00    +0.000 OA
ATOM      8  O   UNL     1       1.377   4.266  19.096  0.00  0.00    +0.000 OA
BRANCH   6  12
ATOM      9  C   UNL     1       1.309   9.549  19.446  0.00  0.00    +0.000 A 
ATOM     10  C   UNL     1       1.190   8.831  20.649  0.00  0.00    +0.000 A 
ATOM     11  C   UNL     1       1.483   7.454  20.723  0.00  0.00    +0.000 A 
ATOM     12  C   UNL     1       1.954   6.760  19.610  0.00  0.00    +0.000 A 
ATOM     13  C   UNL     1       2.259   7.516  18.473  0.00  0.00    +0.000 A 
ATOM     14  C   UNL     1       1.848   8.853  18.356  0.00  0.00    +0.000 A 
BRANCH   9  16
ATOM     15  C   UNL     1       0.833  11.792  20.639  0.00  0.00    +0.000 C 
ATOM     16  C   UNL     1       0.918  11.033  19.296  0.00  0.00    +0.000 C 
ATOM     17  C   UNL     1      -0.469  11.128  18.623  0.00  0.00    +0.000 C 
ATOM     18  C   UNL     1       1.943  11.789  18.417  0.00  0.00    +0.000 C 
ENDBRANCH   9  16
ENDBRANCH   6  12
ENDBRANCH   1   6
BRANCH   1  19
ATOM     19  C   UNL     1       5.206   5.433  19.243  0.00  0.00    +0.000 C 
BRANCH  19  20
ATOM     20  C   UNL     1       6.279   5.226  18.173  0.00  0.00    +0.000 C 
BRANCH  20  21
ATOM     21  O   UNL     1       7.504   5.321  18.887  0.00  0.00    +0.000 OA
ATOM     22  H   UNL     1       7.398   4.655  19.578  0.00  0.00    +0.000 HD
ENDBRANCH  20  21
BRANCH  20  23
ATOM     23  C   UNL     1       6.446   6.227  16.992  0.00  0.00    +0.000 C 
BRANCH  23  24
ATOM     24  C   UNL     1       6.316   5.456  15.663  0.00  0.00    +0.000 A 
ATOM     25  C   UNL     1       5.185   4.668  15.408  0.00  0.00    +0.000 A 
ATOM     26  C   UNL     1       5.139   3.841  14.278  0.00  0.00    +0.000 A 
ATOM     27  C   UNL     1       6.191   3.788  13.373  0.00  0.00    +0.000 A 
ATOM     28  C   UNL     1       7.285   4.620  13.557  0.00  0.00    +0.000 A 
ATOM     29  C   UNL     1       7.329   5.448  14.672  0.00  0.00    +0.000 A 
ENDBRANCH  23  24
BRANCH  23  30
ATOM     30  N   UNL     1       7.732   6.945  17.041  0.00  0.00    +0.000 NA
ATOM     31  H   UNL     1       8.120   6.989  16.098  0.00  0.00    +0.000 HD
ATOM     32  H   UNL     1       8.403   6.482  17.647  0.00  0.00    +0.000 HD
ENDBRANCH  23  30
ENDBRANCH  20  23
ENDBRANCH  19  20
ENDBRANCH   1  19
TORSDOF 10
ENDMDL
MODEL 8
REMARK VINA RESULT:      -7.2      1.437      2.342
REMARK  Name = 
REMARK  13 active torsions:
REMARK  status: ('A' for Active; 'I' for Inactive)
REMARK    1  A    between atoms: C_1  and  C_2
REMARK    2  A    between atoms: C_2  and  C_3
REMARK    3  A    between atoms: C_2  and  C_4
REMARK    4  A    between atoms: C_2  and  C_5
REMARK    5  A    between atoms: C_8  and  S_9
REMARK    6  A    between atoms: S_9  and  N_12
REMARK    7  A    between atoms: N_12  and  C_13
REMARK    8  A    between atoms: N_12  and  C_24
REMARK    9  A    between atoms: C_13  and  C_14
REMARK   10  A    between atoms: C_14  and  O_15
REMARK   11  A    between atoms: C_14  and  C_16
REMARK   12  A    between atoms: C_16  and  N_17
REMARK   13  A    between atoms: C_16  and  C_18
REMARK                            x       y       z     vdW  Elec       q    Type
REMARK                         _______ _______ _______ _____ _____    ______ ____
ROOT
ATOM      1  N   UNL     1       3.786   4.702  18.778  0.00  0.00    +0.000 NA
ENDROOT
BRANCH   1   2
ATOM      2  C   UNL     1       4.176   3.219  18.610  0.00  0.00    +0.000 C 
ATOM      3  C   UNL     1       3.775   2.175  19.675  0.00  0.00    +0.000 C 
ATOM      4  C   UNL     1       3.539   1.172  18.525  0.00  0.00    +0.000 C 
ATOM      5  C   UNL     1       3.348   2.382  17.596  0.00  0.00    +0.000 C 
ENDBRANCH   1   2
BRANCH   1   6
ATOM      6  S   UNL     1       2.365   5.048  19.789  0.00  0.00    +0.000 S 
ATOM      7  O   UNL     1       2.669   4.814  21.189  0.00  0.00    +0.000 OA
ATOM      8  O   UNL     1       1.271   4.308  19.182  0.00  0.00    +0.000 OA
BRANCH   6  12
ATOM      9  C   UNL     1       1.300   9.595  19.445  0.00  0.00    +0.000 A 
ATOM     10  C   UNL     1       1.200   8.884  20.652  0.00  0.00    +0.000 A 
ATOM     11  C   UNL     1       1.481   7.504  20.727  0.00  0.00    +0.000 A 
ATOM     12  C   UNL     1       1.921   6.801  19.607  0.00  0.00    +0.000 A 
ATOM     13  C   UNL     1       2.209   7.549  18.461  0.00  0.00    +0.000 A 
ATOM     14  C   UNL     1       1.809   8.890  18.346  0.00  0.00    +0.000 A 
BRANCH   9  16
ATOM     15  C   UNL     1      -0.475  11.309  18.675  0.00  0.00    +0.000 C 
ATOM     16  C   UNL     1       0.921  11.083  19.296  0.00  0.00    +0.000 C 
ATOM     17  C   UNL     1       1.952  11.782  18.383  0.00  0.00    +0.000 C 
ATOM     18  C   UNL     1       0.921  11.793  20.671  0.00  0.00    +0.000 C 
ENDBRANCH   9  16
ENDBRANCH   6  12
ENDBRANCH   1   6
BRANCH   1  19
ATOM     19  C   UNL     1       5.066   5.530  18.916  0.00  0.00    +0.000 C 
BRANCH  19  20
ATOM     20  C   UNL     1       6.103   5.139  17.862  0.00  0.00    +0.000 C 
BRANCH  20  21
ATOM     21  O   UNL     1       7.326   5.081  18.584  0.00  0.00    +0.000 OA
ATOM     22  H   UNL     1       7.121   5.574  19.388  0.00  0.00    +0.000 HD
ENDBRANCH  20  21
BRANCH  20  23
ATOM     23  C   UNL     1       6.417   6.068  16.653  0.00  0.00    +0.000 C 
BRANCH  23  24
ATOM     24  C   UNL     1       6.455   5.217  15.368  0.00  0.00    +0.000 A 
ATOM     25  C   UNL     1       7.481   5.393  14.430  0.00  0.00    +0.000 A 
ATOM     26  C   UNL     1       7.429   4.739  13.191  0.00  0.00    +0.000 A 
ATOM     27  C   UNL     1       6.381   3.889  12.863  0.00  0.00    +0.000 A 
ATOM     28  C   UNL     1       5.397   3.632  13.805  0.00  0.00    +0.000 A 
ATOM     29  C   UNL     1       5.451   4.272  15.037  0.00  0.00    +0.000 A 
ENDBRANCH  23  24
BRANCH  23  30
ATOM     30  N   UNL     1       7.686   6.798  16.819  0.00  0.00    +0.000 NA
ATOM     31  H   UNL     1       7.480   7.789  16.955  0.00  0.00    +0.000 HD
ATOM     32  H   UNL     1       8.290   6.700  16.009  0.00  0.00    +0.000 HD
ENDBRANCH  23  30
ENDBRANCH  20  23
ENDBRANCH  19  20
ENDBRANCH   1  19
TORSDOF 10
ENDMDL
MODEL 9
REMARK VINA RESULT:      -7.2      1.996      3.128
REMARK  Name = 
REMARK  13 active torsions:
REMARK  status: ('A' for Active; 'I' for Inactive)
REMARK    1  A    between atoms: C_1  and  C_2
REMARK    2  A    between atoms: C_2  and  C_3
REMARK    3  A    between atoms: C_2  and  C_4
REMARK    4  A    between atoms: C_2  and  C_5
REMARK    5  A    between atoms: C_8  and  S_9
REMARK    6  A    between atoms: S_9  and  N_12
REMARK    7  A    between atoms: N_12  and  C_13
REMARK    8  A    between atoms: N_12  and  C_24
REMARK    9  A    between atoms: C_13  and  C_14
REMARK   10  A    between atoms: C_14  and  O_15
REMARK   11  A    between atoms: C_14  and  C_16
REMARK   12  A    between atoms: C_16  and  N_17
REMARK   13  A    between atoms: C_16  and  C_18
REMARK                            x       y       z     vdW  Elec       q    Type
REMARK                         _______ _______ _______ _____ _____    ______ ____
ROOT
ATOM      1  N   UNL     1       1.870   4.893  18.885  0.00  0.00    +0.000 NA
ENDROOT
BRANCH   1   2
ATOM      2  C   UNL     1       2.187   3.867  19.992  0.00  0.00    +0.000 C 
ATOM      3  C   UNL     1       2.149   4.279  21.480  0.00  0.00    +0.000 C 
ATOM      4  C   UNL     1       1.560   2.887  21.794  0.00  0.00    +0.000 C 
ATOM      5  C   UNL     1       1.080   2.831  20.335  0.00  0.00    +0.000 C 
ENDBRANCH   1   2
BRANCH   1   6
ATOM      6  S   UNL     1       2.912   6.330  18.801  0.00  0.00    +0.000 S 
ATOM      7  O   UNL     1       3.300   6.597  17.428  0.00  0.00    +0.000 OA
ATOM      8  O   UNL     1       3.956   6.108  19.789  0.00  0.00    +0.000 OA
BRANCH   6  12
ATOM      9  C   UNL     1       0.612  10.057  20.461  0.00  0.00    +0.000 A 
ATOM     10  C   UNL     1       0.998   8.980  21.278  0.00  0.00    +0.000 A 
ATOM     11  C   UNL     1       1.650   7.846  20.752  0.00  0.00    +0.000 A 
ATOM     12  C   UNL     1       1.982   7.772  19.401  0.00  0.00    +0.000 A 
ATOM     13  C   UNL     1       1.776   8.924  18.633  0.00  0.00    +0.000 A 
ATOM     14  C   UNL     1       1.014   9.997  19.120  0.00  0.00    +0.000 A 
BRANCH   9  16
ATOM     15  C   UNL     1       0.655  12.577  21.033  0.00  0.00    +0.000 C 
ATOM     16  C   UNL     1      -0.178  11.278  20.975  0.00  0.00    +0.000 C 
ATOM     17  C   UNL     1      -0.684  10.990  22.406  0.00  0.00    +0.000 C 
ATOM     18  C   UNL     1      -1.400  11.567  20.071  0.00  0.00    +0.000 C 
ENDBRANCH   9  16
ENDBRANCH   6  12
ENDBRANCH   1   6
BRANCH   1  19
ATOM     19  C   UNL     1       1.477   4.134  17.614  0.00  0.00    +0.000 C 
BRANCH  19  20
ATOM     20  C   UNL     1       2.606   3.220  17.135  0.00  0.00    +0.000 C 
BRANCH  20  21
ATOM     21  O   UNL     1       2.038   1.918  17.173  0.00  0.00    +0.000 OA
ATOM     22  H   UNL     1       2.647   1.438  17.748  0.00  0.00    +0.000 HD
ENDBRANCH  20  21
BRANCH  20  23
ATOM     23  C   UNL     1       3.932   3.083  17.941  0.00  0.00    +0.000 C 
BRANCH  23  24
ATOM     24  C   UNL     1       5.070   3.751  17.143  0.00  0.00    +0.000 A 
ATOM     25  C   UNL     1       6.197   4.257  17.805  0.00  0.00    +0.000 A 
ATOM     26  C   UNL     1       7.152   5.006  17.104  0.00  0.00    +0.000 A 
ATOM     27  C   UNL     1       7.025   5.253  15.744  0.00  0.00    +0.000 A 
ATOM     28  C   UNL     1       5.964   4.693  15.049  0.00  0.00    +0.000 A 
ATOM     29  C   UNL     1       5.021   3.942  15.740  0.00  0.00    +0.000 A 
ENDBRANCH  23  24
BRANCH  23  30
ATOM     30  N   UNL     1       4.269   1.678  18.232  0.00  0.00    +0.000 NA
ATOM     31  H   UNL     1       5.201   1.643  18.647  0.00  0.00    +0.000 HD
ATOM     32  H   UNL     1       4.264   1.104  17.394  0.00  0.00    +0.000 HD
ENDBRANCH  23  30
ENDBRANCH  20  23
ENDBRANCH  19  20
ENDBRANCH   1  19
TORSDOF 10
ENDMDL
