MODEL 1
REMARK VINA RESULT:      -6.9      0.000      0.000
REMARK  Name = 
REMARK  9 active torsions:
REMARK  status: ('A' for Active; 'I' for Inactive)
REMARK    1  A    between atoms: C_1  and  O_2
REMARK    2  A    between atoms: O_2  and  C_3
REMARK    3  A    between atoms: C_6  and  C_7
REMARK    4  A    between atoms: C_7  and  O_8
REMARK    5  A    between atoms: O_8  and  C_9
REMARK    6  A    between atoms: N_11  and  CA_12
REMARK    7  A    between atoms: CA_12  and  C_13
REMARK    8  A    between atoms: CA_12  and  C_16
REMARK    9  A    between atoms: C_13  and  OXT_15
REMARK                            x       y       z     vdW  Elec       q    Type
REMARK                         _______ _______ _______ _____ _____    ______ ____
ROOT
ATOM      1  C   UNL     1       6.604   4.805  15.899  0.00  0.00    +0.000 C 
ATOM      2  O   UNL     1       6.654   5.385  14.823  0.00  0.00    +0.000 OA
ATOM      3  N   UNL     1       7.216   5.334  17.003  0.00  0.00    +0.000 N 
ATOM      4  H   UNL     1       7.622   6.233  16.772  0.00  0.00    +0.000 HD
ENDROOT
BRANCH   1   5
ATOM      5  O   UNL     1       6.022   3.605  16.127  0.00  0.00    +0.000 OA
BRANCH   5   6
ATOM      6  C   UNL     1       4.634   3.514  15.764  0.00  0.00    +0.000 C 
BRANCH   6  10
ATOM      7  C   UNL     1       2.067   2.555  19.123  0.00  0.00    +0.000 A 
ATOM      8  C   UNL     1       1.616   3.389  18.100  0.00  0.00    +0.000 A 
ATOM      9  C   UNL     1       2.445   3.714  17.023  0.00  0.00    +0.000 A 
ATOM     10  C   UNL     1       3.752   3.214  16.955  0.00  0.00    +0.000 A 
ATOM     11  C   UNL     1       4.211   2.404  18.005  0.00  0.00    +0.000 A 
ATOM     12  C   UNL     1       3.376   2.072  19.079  0.00  0.00    +0.000 A 
BRANCH   7  14
ATOM     13  C   UNL     1       1.519   2.741  21.426  0.00  0.00    +0.000 C 
ATOM     14  O   UNL     1       1.161   2.308  20.118  0.00  0.00    +0.000 OA
ENDBRANCH   7  14
ENDBRANCH   6  10
ENDBRANCH   5   6
ENDBRANCH   1   5
BRANCH   3  15
ATOM     15  CA  UNL     1       6.659   5.240  18.360  0.00  0.00    +0.000 C 
BRANCH  15  16
ATOM     16  C   UNL     1       5.298   5.915  18.432  0.00  0.00    +0.000 A 
ATOM     17  C   UNL     1       4.915   6.814  17.424  0.00  0.00    +0.000 A 
ATOM     18  C   UNL     1       3.658   7.423  17.450  0.00  0.00    +0.000 A 
ATOM     19  C   UNL     1       2.771   7.150  18.488  0.00  0.00    +0.000 A 
ATOM     20  C   UNL     1       3.137   6.267  19.500  0.00  0.00    +0.000 A 
ATOM     21  C   UNL     1       4.391   5.649  19.473  0.00  0.00    +0.000 A 
ENDBRANCH  15  16
BRANCH  15  22
ATOM     22  C   UNL     1       7.660   5.803  19.391  0.00  0.00    +0.000 C 
ATOM     23  O   UNL     1       7.923   5.308  20.477  0.00  0.00    +0.000 OA
BRANCH  22  24
ATOM     24  OXT UNL     1       8.339   6.884  18.919  0.00  0.00    +0.000 OA
ATOM     25  HXT UNL     1       7.859   7.711  19.139  0.00  0.00    +0.000 HD
ENDBRANCH  22  24
ENDBRANCH  15  22
ENDBRANCH   3  15
TORSDOF 8
ENDMDL
MODEL 2
REMARK VINA RESULT:      -6.7      2.906      5.438
REMARK  Name = 
REMARK  9 active torsions:
REMARK  status: ('A' for Active; 'I' for Inactive)
REMARK    1  A    between atoms: C_1  and  O_2
REMARK    2  A    between atoms: O_2  and  C_3
REMARK    3  A    between atoms: C_6  and  C_7
REMARK    4  A    between atoms: C_7  and  O_8
REMARK    5  A    between atoms: O_8  and  C_9
REMARK    6  A    between atoms: N_11  and  CA_12
REMARK    7  A    between atoms: CA_12  and  C_13
REMARK    8  A    between atoms: CA_12  and  C_16
REMARK    9  A    between atoms: C_13  and  OXT_15
REMARK                            x       y       z     vdW  Elec       q    Type
REMARK                         _______ _______ _______ _____ _____    ______ ____
ROOT
ATOM      1  C   UNL     1       4.305   3.901  17.431  0.00  0.00    +0.000 C 
ATOM      2  O   UNL     1       3.365   3.120  17.376  0.00  0.00    +0.000 OA
ATOM      3  N   UNL     1       5.384   3.750  16.603  0.00  0.00    +0.000 N 
ATOM      4  H   UNL     1       5.224   2.974  15.971  0.00  0.00    +0.000 HD
ENDROOT
BRANCH   1   5
ATOM      5  O   UNL     1       4.433   4.928  18.302  0.00  0.00    +0.000 OA
BRANCH   5   6
ATOM      6  C   UNL     1       3.325   5.119  19.198  0.00  0.00    +0.000 C 
BRANCH   6  10
ATOM      7  C   UNL     1       1.582   9.078  18.898  0.00  0.00    +0.000 A 
ATOM      8  C   UNL     1       2.315   8.542  17.838  0.00  0.00    +0.000 A 
ATOM      9  C   UNL     1       2.892   7.273  17.936  0.00  0.00    +0.000 A 
ATOM     10  C   UNL     1       2.753   6.516  19.107  0.00  0.00    +0.000 A 
ATOM     11  C   UNL     1       2.045   7.075  20.181  0.00  0.00    +0.000 A 
ATOM     12  C   UNL     1       1.460   8.343  20.079  0.00  0.00    +0.000 A 
BRANCH   7  14
ATOM     13  C   UNL     1       0.318  10.899  19.746  0.00  0.00    +0.000 C 
ATOM     14  O   UNL     1       1.064  10.324  18.679  0.00  0.00    +0.000 OA
ENDBRANCH   7  14
ENDBRANCH   6  10
ENDBRANCH   5   6
ENDBRANCH   1   5
BRANCH   3  15
ATOM     15  CA  UNL     1       6.121   4.880  16.019  0.00  0.00    +0.000 C 
BRANCH  15  16
ATOM     16  C   UNL     1       6.466   4.604  14.564  0.00  0.00    +0.000 A 
ATOM     17  C   UNL     1       5.716   3.665  13.839  0.00  0.00    +0.000 A 
ATOM     18  C   UNL     1       5.993   3.417  12.493  0.00  0.00    +0.000 A 
ATOM     19  C   UNL     1       7.028   4.096  11.855  0.00  0.00    +0.000 A 
ATOM     20  C   UNL     1       7.787   5.025  12.561  0.00  0.00    +0.000 A 
ATOM     21  C   UNL     1       7.507   5.283  13.907  0.00  0.00    +0.000 A 
ENDBRANCH  15  16
BRANCH  15  22
ATOM     22  C   UNL     1       7.362   5.210  16.876  0.00  0.00    +0.000 C 
ATOM     23  O   UNL     1       7.664   6.315  17.303  0.00  0.00    +0.000 OA
BRANCH  22  24
ATOM     24  OXT UNL     1       8.063   4.097  17.225  0.00  0.00    +0.000 OA
ATOM     25  HXT UNL     1       8.670   4.296  17.971  0.00  0.00    +0.000 HD
ENDBRANCH  22  24
ENDBRANCH  15  22
ENDBRANCH   3  15
TORSDOF 8
ENDMDL
MODEL 3
REMARK VINA RESULT:      -6.6      2.208      5.043
REMARK  Name = 
REMARK  9 active torsions:
REMARK  status: ('A' for Active; 'I' for Inactive)
REMARK    1  A    between atoms: C_1  and  O_2
REMARK    2  A    between atoms: O_2  and  C_3
REMARK    3  A    between atoms: C_6  and  C_7
REMARK    4  A    between atoms: C_7  and  O_8
REMARK    5  A    between atoms: O_8  and  C_9
REMARK    6  A    between atoms: N_11  and  CA_12
REMARK    7  A    between atoms: CA_12  and  C_13
REMARK    8  A    between atoms: CA_12  and  C_16
REMARK    9  A    between atoms: C_13  and  OXT_15
REMARK                            x       y       z     vdW  Elec       q    Type
REMARK                         _______ _______ _______ _____ _____    ______ ____
ROOT
ATOM      1  C   UNL     1       7.251   5.074  18.724  0.00  0.00    +0.000 C 
ATOM      2  O   UNL     1       7.965   5.842  19.354  0.00  0.00    +0.000 OA
ATOM      3  N   UNL     1       6.118   4.557  19.290  0.00  0.00    +0.000 N 
ATOM      4  H   UNL     1       5.987   4.950  20.215  0.00  0.00    +0.000 HD
ENDROOT
BRANCH   1   5
ATOM      5  O   UNL     1       7.493   4.608  17.477  0.00  0.00    +0.000 OA
BRANCH   5   6
ATOM      6  C   UNL     1       7.332   5.568  16.418  0.00  0.00    +0.000 C 
BRANCH   6  10
ATOM      7  C   UNL     1       5.798   3.658  12.842  0.00  0.00    +0.000 A 
ATOM      8  C   UNL     1       7.074   4.221  12.854  0.00  0.00    +0.000 A 
ATOM      9  C   UNL     1       7.567   4.852  14.000  0.00  0.00    +0.000 A 
ATOM     10  C   UNL     1       6.783   4.939  15.158  0.00  0.00    +0.000 A 
ATOM     11  C   UNL     1       5.488   4.400  15.128  0.00  0.00    +0.000 A 
ATOM     12  C   UNL     1       4.999   3.761  13.982  0.00  0.00    +0.000 A 
BRANCH   7  14
ATOM     13  C   UNL     1       4.060   3.165  11.301  0.00  0.00    +0.000 C 
ATOM     14  O   UNL     1       5.433   3.065  11.665  0.00  0.00    +0.000 OA
ENDBRANCH   7  14
ENDBRANCH   6  10
ENDBRANCH   5   6
ENDBRANCH   1   5
BRANCH   3  15
ATOM     15  CA  UNL     1       4.876   4.317  18.540  0.00  0.00    +0.000 C 
BRANCH  15  16
ATOM     16  C   UNL     1       3.961   5.529  18.611  0.00  0.00    +0.000 A 
ATOM     17  C   UNL     1       3.113   5.695  19.718  0.00  0.00    +0.000 A 
ATOM     18  C   UNL     1       2.286   6.816  19.822  0.00  0.00    +0.000 A 
ATOM     19  C   UNL     1       2.288   7.781  18.819  0.00  0.00    +0.000 A 
ATOM     20  C   UNL     1       3.117   7.630  17.711  0.00  0.00    +0.000 A 
ATOM     21  C   UNL     1       3.953   6.513  17.607  0.00  0.00    +0.000 A 
ENDBRANCH  15  16
BRANCH  15  22
ATOM     22  C   UNL     1       4.193   3.023  19.034  0.00  0.00    +0.000 C 
ATOM     23  O   UNL     1       3.140   2.566  18.616  0.00  0.00    +0.000 OA
BRANCH  22  24
ATOM     24  OXT UNL     1       4.954   2.346  19.936  0.00  0.00    +0.000 OA
ATOM     25  HXT UNL     1       5.753   2.866  20.169  0.00  0.00    +0.000 HD
ENDBRANCH  22  24
ENDBRANCH  15  22
ENDBRANCH   3  15
TORSDOF 8
ENDMDL
MODEL 4
REMARK VINA RESULT:      -6.6      0.476      1.110
REMARK  Name = 
REMARK  9 active torsions:
REMARK  status: ('A' for Active; 'I' for Inactive)
REMARK    1  A    between atoms: C_1  and  O_2
REMARK    2  A    between atoms: O_2  and  C_3
REMARK    3  A    between atoms: C_6  and  C_7
REMARK    4  A    between atoms: C_7  and  O_8
REMARK    5  A    between atoms: O_8  and  C_9
REMARK    6  A    between atoms: N_11  and  CA_12
REMARK    7  A    between atoms: CA_12  and  C_13
REMARK    8  A    between atoms: CA_12  and  C_16
REMARK    9  A    between atoms: C_13  and  OXT_15
REMARK                            x       y       z     vdW  Elec       q    Type
REMARK                         _______ _______ _______ _____ _____    ______ ____
ROOT
ATOM      1  C   UNL     1       6.051   4.802  15.835  0.00  0.00    +0.000 C 
ATOM      2  O   UNL     1       5.982   5.350  14.743  0.00  0.00    +0.000 OA
ATOM      3  N   UNL     1       6.714   5.402  16.871  0.00  0.00    +0.000 N 
ATOM      4  H   UNL     1       7.045   6.315  16.584  0.00  0.00    +0.000 HD
ENDROOT
BRANCH   1   5
ATOM      5  O   UNL     1       5.563   3.579  16.142  0.00  0.00    +0.000 OA
BRANCH   5   6
ATOM      6  C   UNL     1       4.170   3.379  15.849  0.00  0.00    +0.000 C 
BRANCH   6  10
ATOM      7  C   UNL     1       1.736   2.890  19.403  0.00  0.00    +0.000 A 
ATOM      8  C   UNL     1       1.288   3.673  18.339  0.00  0.00    +0.000 A 
ATOM      9  C   UNL     1       2.076   3.846  17.197  0.00  0.00    +0.000 A 
ATOM     10  C   UNL     1       3.338   3.244  17.104  0.00  0.00    +0.000 A 
ATOM     11  C   UNL     1       3.796   2.487  18.193  0.00  0.00    +0.000 A 
ATOM     12  C   UNL     1       3.002   2.306  19.332  0.00  0.00    +0.000 A 
BRANCH   7  14
ATOM     13  C   UNL     1       1.448   2.481  21.724  0.00  0.00    +0.000 C 
ATOM     14  O   UNL     1       0.873   2.793  20.460  0.00  0.00    +0.000 OA
ENDBRANCH   7  14
ENDBRANCH   6  10
ENDBRANCH   5   6
ENDBRANCH   1   5
BRANCH   3  15
ATOM     15  CA  UNL     1       6.271   5.318  18.271  0.00  0.00    +0.000 C 
BRANCH  15  16
ATOM     16  C   UNL     1       4.931   6.014  18.454  0.00  0.00    +0.000 A 
ATOM     17  C   UNL     1       4.161   5.748  19.598  0.00  0.00    +0.000 A 
ATOM     18  C   UNL     1       2.942   6.397  19.805  0.00  0.00    +0.000 A 
ATOM     19  C   UNL     1       2.470   7.312  18.868  0.00  0.00    +0.000 A 
ATOM     20  C   UNL     1       3.216   7.583  17.724  0.00  0.00    +0.000 A 
ATOM     21  C   UNL     1       4.442   6.941  17.517  0.00  0.00    +0.000 A 
ENDBRANCH  15  16
BRANCH  15  22
ATOM     22  C   UNL     1       7.363   5.870  19.212  0.00  0.00    +0.000 C 
ATOM     23  O   UNL     1       7.689   5.391  20.288  0.00  0.00    +0.000 OA
BRANCH  22  24
ATOM     24  OXT UNL     1       8.041   6.916  18.666  0.00  0.00    +0.000 OA
ATOM     25  HXT UNL     1       8.885   7.063  19.144  0.00  0.00    +0.000 HD
ENDBRANCH  22  24
ENDBRANCH  15  22
ENDBRANCH   3  15
TORSDOF 8
ENDMDL
MODEL 5
REMARK VINA RESULT:      -6.6      2.979      5.493
REMARK  Name = 
REMARK  9 active torsions:
REMARK  status: ('A' for Active; 'I' for Inactive)
REMARK    1  A    between atoms: C_1  and  O_2
REMARK    2  A    between atoms: O_2  and  C_3
REMARK    3  A    between atoms: C_6  and  C_7
REMARK    4  A    between atoms: C_7  and  O_8
REMARK    5  A    between atoms: O_8  and  C_9
REMARK    6  A    between atoms: N_11  and  CA_12
REMARK    7  A    between atoms: CA_12  and  C_13
REMARK    8  A    between atoms: CA_12  and  C_16
REMARK    9  A    between atoms: C_13  and  OXT_15
REMARK                            x       y       z     vdW  Elec       q    Type
REMARK                         _______ _______ _______ _____ _____    ______ ____
ROOT
ATOM      1  C   UNL     1       4.065   3.951  17.200  0.00  0.00    +0.000 C 
ATOM      2  O   UNL     1       3.171   3.119  17.123  0.00  0.00    +0.000 OA
ATOM      3  N   UNL     1       5.255   3.752  16.555  0.00  0.00    +0.000 N 
ATOM      4  H   UNL     1       5.216   2.894  16.019  0.00  0.00    +0.000 HD
ENDROOT
BRANCH   1   5
ATOM      5  O   UNL     1       4.030   5.088  17.931  0.00  0.00    +0.000 OA
BRANCH   5   6
ATOM      6  C   UNL     1       2.948   5.183  18.873  0.00  0.00    +0.000 C 
BRANCH   6  10
ATOM      7  C   UNL     1       1.395   9.211  19.275  0.00  0.00    +0.000 A 
ATOM      8  C   UNL     1       1.914   8.768  18.058  0.00  0.00    +0.000 A 
ATOM      9  C   UNL     1       2.430   7.476  17.927  0.00  0.00    +0.000 A 
ATOM     10  C   UNL     1       2.445   6.601  19.022  0.00  0.00    +0.000 A 
ATOM     11  C   UNL     1       1.954   7.065  20.252  0.00  0.00    +0.000 A 
ATOM     12  C   UNL     1       1.429   8.357  20.379  0.00  0.00    +0.000 A 
BRANCH   7  14
ATOM     13  C   UNL     1       1.695  11.462  18.582  0.00  0.00    +0.000 C 
ATOM     14  O   UNL     1       0.916  10.492  19.274  0.00  0.00    +0.000 OA
ENDBRANCH   7  14
ENDBRANCH   6  10
ENDBRANCH   5   6
ENDBRANCH   1   5
BRANCH   3  15
ATOM     15  CA  UNL     1       6.027   4.836  15.929  0.00  0.00    +0.000 C 
BRANCH  15  16
ATOM     16  C   UNL     1       6.306   4.523  14.467  0.00  0.00    +0.000 A 
ATOM     17  C   UNL     1       7.389   5.138  13.819  0.00  0.00    +0.000 A 
ATOM     18  C   UNL     1       7.685   4.844  12.487  0.00  0.00    +0.000 A 
ATOM     19  C   UNL     1       6.898   3.939  11.780  0.00  0.00    +0.000 A 
ATOM     20  C   UNL     1       5.815   3.325  12.403  0.00  0.00    +0.000 A 
ATOM     21  C   UNL     1       5.521   3.611  13.740  0.00  0.00    +0.000 A 
ENDBRANCH  15  16
BRANCH  15  22
ATOM     22  C   UNL     1       7.314   5.114  16.736  0.00  0.00    +0.000 C 
ATOM     23  O   UNL     1       8.088   4.269  17.161  0.00  0.00    +0.000 OA
BRANCH  22  24
ATOM     24  OXT UNL     1       7.585   6.443  16.840  0.00  0.00    +0.000 OA
ATOM     25  HXT UNL     1       6.768   6.942  17.057  0.00  0.00    +0.000 HD
ENDBRANCH  22  24
ENDBRANCH  15  22
ENDBRANCH   3  15
TORSDOF 8
ENDMDL
MODEL 6
REMARK VINA RESULT:      -6.6      2.436      4.610
REMARK  Name = 
REMARK  9 active torsions:
REMARK  status: ('A' for Active; 'I' for Inactive)
REMARK    1  A    between atoms: C_1  and  O_2
REMARK    2  A    between atoms: O_2  and  C_3
REMARK    3  A    between atoms: C_6  and  C_7
REMARK    4  A    between atoms: C_7  and  O_8
REMARK    5  A    between atoms: O_8  and  C_9
REMARK    6  A    between atoms: N_11  and  CA_12
REMARK    7  A    between atoms: CA_12  and  C_13
REMARK    8  A    between atoms: CA_12  and  C_16
REMARK    9  A    between atoms: C_13  and  OXT_15
REMARK                            x       y       z     vdW  Elec       q    Type
REMARK                         _______ _______ _______ _____ _____    ______ ____
ROOT
ATOM      1  C   UNL     1       4.455   3.161  19.572  0.00  0.00    +0.000 C 
ATOM      2  O   UNL     1       4.122   2.012  19.314  0.00  0.00    +0.000 OA
ATOM      3  N   UNL     1       5.671   3.638  19.165  0.00  0.00    +0.000 N 
ATOM      4  H   UNL     1       6.152   2.933  18.619  0.00  0.00    +0.000 HD
ENDROOT
BRANCH   1   5
ATOM      5  O   UNL     1       3.742   4.050  20.299  0.00  0.00    +0.000 OA
BRANCH   5   6
ATOM      6  C   UNL     1       2.405   4.298  19.831  0.00  0.00    +0.000 C 
BRANCH   6  10
ATOM      7  C   UNL     1       1.822   8.524  19.058  0.00  0.00    +0.000 A 
ATOM      8  C   UNL     1       1.572   7.993  20.323  0.00  0.00    +0.000 A 
ATOM      9  C   UNL     1       1.744   6.628  20.574  0.00  0.00    +0.000 A 
ATOM     10  C   UNL     1       2.161   5.764  19.553  0.00  0.00    +0.000 A 
ATOM     11  C   UNL     1       2.378   6.299  18.274  0.00  0.00    +0.000 A 
ATOM     12  C   UNL     1       2.214   7.668  18.027  0.00  0.00    +0.000 A 
BRANCH   7  14
ATOM     13  C   UNL     1       0.852  10.492  19.964  0.00  0.00    +0.000 C 
ATOM     14  O   UNL     1       1.623   9.872  18.941  0.00  0.00    +0.000 OA
ENDBRANCH   7  14
ENDBRANCH   6  10
ENDBRANCH   5   6
ENDBRANCH   1   5
BRANCH   3  15
ATOM     15  CA  UNL     1       5.887   5.021  18.713  0.00  0.00    +0.000 C 
BRANCH  15  16
ATOM     16  C   UNL     1       5.847   5.104  17.195  0.00  0.00    +0.000 A 
ATOM     17  C   UNL     1       6.301   4.019  16.428  0.00  0.00    +0.000 A 
ATOM     18  C   UNL     1       6.244   4.058  15.033  0.00  0.00    +0.000 A 
ATOM     19  C   UNL     1       5.744   5.184  14.386  0.00  0.00    +0.000 A 
ATOM     20  C   UNL     1       5.296   6.272  15.130  0.00  0.00    +0.000 A 
ATOM     21  C   UNL     1       5.343   6.233  16.527  0.00  0.00    +0.000 A 
ENDBRANCH  15  16
BRANCH  15  22
ATOM     22  C   UNL     1       7.198   5.580  19.307  0.00  0.00    +0.000 C 
ATOM     23  O   UNL     1       7.674   5.287  20.394  0.00  0.00    +0.000 OA
BRANCH  22  24
ATOM     24  OXT UNL     1       7.867   6.378  18.430  0.00  0.00    +0.000 OA
ATOM     25  HXT UNL     1       8.022   5.902  17.586  0.00  0.00    +0.000 HD
ENDBRANCH  22  24
ENDBRANCH  15  22
ENDBRANCH   3  15
TORSDOF 8
ENDMDL
MODEL 7
REMARK VINA RESULT:      -6.5      0.831      1.806
REMARK  Name = 
REMARK  9 active torsions:
REMARK  status: ('A' for Active; 'I' for Inactive)
REMARK    1  A    between atoms: C_1  and  O_2
REMARK    2  A    between atoms: O_2  and  C_3
REMARK    3  A    between atoms: C_6  and  C_7
REMARK    4  A    between atoms: C_7  and  O_8
REMARK    5  A    between atoms: O_8  and  C_9
REMARK    6  A    between atoms: N_11  and  CA_12
REMARK    7  A    between atoms: CA_12  and  C_13
REMARK    8  A    between atoms: CA_12  and  C_16
REMARK    9  A    between atoms: C_13  and  OXT_15
REMARK                            x       y       z     vdW  Elec       q    Type
REMARK                         _______ _______ _______ _____ _____    ______ ____
ROOT
ATOM      1  C   UNL     1       6.274   4.712  15.738  0.00  0.00    +0.000 C 
ATOM      2  O   UNL     1       6.039   4.829  14.543  0.00  0.00    +0.000 OA
ATOM      3  N   UNL     1       7.150   5.560  16.359  0.00  0.00    +0.000 N 
ATOM      4  H   UNL     1       7.477   6.258  15.701  0.00  0.00    +0.000 HD
ENDROOT
BRANCH   1   5
ATOM      5  O   UNL     1       5.780   3.754  16.554  0.00  0.00    +0.000 OA
BRANCH   5   6
ATOM      6  C   UNL     1       4.523   3.186  16.148  0.00  0.00    +0.000 C 
BRANCH   6  10
ATOM      7  C   UNL     1       1.803   2.868  19.509  0.00  0.00    +0.000 A 
ATOM      8  C   UNL     1       3.107   2.381  19.603  0.00  0.00    +0.000 A 
ATOM      9  C   UNL     1       3.983   2.467  18.516  0.00  0.00    +0.000 A 
ATOM     10  C   UNL     1       3.564   3.036  17.307  0.00  0.00    +0.000 A 
ATOM     11  C   UNL     1       2.241   3.492  17.209  0.00  0.00    +0.000 A 
ATOM     12  C   UNL     1       1.367   3.414  18.301  0.00  0.00    +0.000 A 
BRANCH   7  14
ATOM     13  C   UNL     1       1.755   2.613  21.869  0.00  0.00    +0.000 C 
ATOM     14  O   UNL     1       1.046   2.730  20.640  0.00  0.00    +0.000 OA
ENDBRANCH   7  14
ENDBRANCH   6  10
ENDBRANCH   5   6
ENDBRANCH   1   5
BRANCH   3  15
ATOM     15  CA  UNL     1       6.967   6.046  17.735  0.00  0.00    +0.000 C 
BRANCH  15  16
ATOM     16  C   UNL     1       5.497   6.308  18.022  0.00  0.00    +0.000 A 
ATOM     17  C   UNL     1       4.918   5.800  19.197  0.00  0.00    +0.000 A 
ATOM     18  C   UNL     1       3.578   6.053  19.499  0.00  0.00    +0.000 A 
ATOM     19  C   UNL     1       2.796   6.808  18.630  0.00  0.00    +0.000 A 
ATOM     20  C   UNL     1       3.351   7.313  17.457  0.00  0.00    +0.000 A 
ATOM     21  C   UNL     1       4.694   7.069  17.155  0.00  0.00    +0.000 A 
ENDBRANCH  15  16
BRANCH  15  22
ATOM     22  C   UNL     1       7.854   7.284  17.988  0.00  0.00    +0.000 C 
ATOM     23  O   UNL     1       7.863   8.308  17.320  0.00  0.00    +0.000 OA
BRANCH  22  24
ATOM     24  OXT UNL     1       8.578   7.179  19.136  0.00  0.00    +0.000 OA
ATOM     25  HXT UNL     1       9.422   7.671  19.054  0.00  0.00    +0.000 HD
ENDBRANCH  22  24
ENDBRANCH  15  22
ENDBRANCH   3  15
TORSDOF 8
ENDMDL
MODEL 8
REMARK VINA RESULT:      -6.5      2.410      4.530
REMARK  Name = 
REMARK  9 active torsions:
REMARK  status: ('A' for Active; 'I' for Inactive)
REMARK    1  A    between atoms: C_1  and  O_2
REMARK    2  A    between atoms: O_2  and  C_3
REMARK    3  A    between atoms: C_6  and  C_7
REMARK    4  A    between atoms: C_7  and  O_8
REMARK    5  A    between atoms: O_8  and  C_9
REMARK    6  A    between atoms: N_11  and  CA_12
REMARK    7  A    between atoms: CA_12  and  C_13
REMARK    8  A    between atoms: CA_12  and  C_16
REMARK    9  A    between atoms: C_13  and  OXT_15
REMARK                            x       y       z     vdW  Elec       q    Type
REMARK                         _______ _______ _______ _____ _____    ______ ____
ROOT
ATOM      1  C   UNL     1       4.187   2.791  19.336  0.00  0.00    +0.000 C 
ATOM      2  O   UNL     1       3.762   1.711  18.947  0.00  0.00    +0.000 OA
ATOM      3  N   UNL     1       5.432   3.221  18.965  0.00  0.00    +0.000 N 
ATOM      4  H   UNL     1       5.849   2.553  18.327  0.00  0.00    +0.000 HD
ENDROOT
BRANCH   1   5
ATOM      5  O   UNL     1       3.553   3.636  20.180  0.00  0.00    +0.000 OA
BRANCH   5   6
ATOM      6  C   UNL     1       2.233   4.037  19.776  0.00  0.00    +0.000 C 
BRANCH   6  10
ATOM      7  C   UNL     1       1.746   8.330  19.421  0.00  0.00    +0.000 A 
ATOM      8  C   UNL     1       2.208   7.576  18.341  0.00  0.00    +0.000 A 
ATOM      9  C   UNL     1       2.381   6.194  18.456  0.00  0.00    +0.000 A 
ATOM     10  C   UNL     1       2.103   5.539  19.663  0.00  0.00    +0.000 A 
ATOM     11  C   UNL     1       1.673   6.308  20.754  0.00  0.00    +0.000 A 
ATOM     12  C   UNL     1       1.491   7.692  20.635  0.00  0.00    +0.000 A 
BRANCH   7  14
ATOM     13  C   UNL     1       1.937  10.118  17.870  0.00  0.00    +0.000 C 
ATOM     14  O   UNL     1       1.613   9.670  19.182  0.00  0.00    +0.000 OA
ENDBRANCH   7  14
ENDBRANCH   6  10
ENDBRANCH   5   6
ENDBRANCH   1   5
BRANCH   3  15
ATOM     15  CA  UNL     1       5.750   4.628  18.681  0.00  0.00    +0.000 C 
BRANCH  15  16
ATOM     16  C   UNL     1       5.584   4.929  17.199  0.00  0.00    +0.000 A 
ATOM     17  C   UNL     1       5.456   6.260  16.771  0.00  0.00    +0.000 A 
ATOM     18  C   UNL     1       5.335   6.565  15.413  0.00  0.00    +0.000 A 
ATOM     19  C   UNL     1       5.329   5.545  14.466  0.00  0.00    +0.000 A 
ATOM     20  C   UNL     1       5.447   4.218  14.873  0.00  0.00    +0.000 A 
ATOM     21  C   UNL     1       5.577   3.910  16.231  0.00  0.00    +0.000 A 
ENDBRANCH  15  16
BRANCH  15  22
ATOM     22  C   UNL     1       7.159   4.976  19.206  0.00  0.00    +0.000 C 
ATOM     23  O   UNL     1       7.414   5.483  20.289  0.00  0.00    +0.000 OA
BRANCH  22  24
ATOM     24  OXT UNL     1       8.145   4.547  18.372  0.00  0.00    +0.000 OA
ATOM     25  HXT UNL     1       9.015   4.582  18.825  0.00  0.00    +0.000 HD
ENDBRANCH  22  24
ENDBRANCH  15  22
ENDBRANCH   3  15
TORSDOF 8
ENDMDL
MODEL 9
REMARK VINA RESULT:      -6.4      2.977      5.479
REMARK  Name = 
REMARK  9 active torsions:
REMARK  status: ('A' for Active; 'I' for Inactive)
REMARK    1  A    between atoms: C_1  and  O_2
REMARK    2  A    between atoms: O_2  and  C_3
REMARK    3  A    between atoms: C_6  and  C_7
REMARK    4  A    between atoms: C_7  and  O_8
REMARK    5  A    between atoms: O_8  and  C_9
REMARK    6  A    between atoms: N_11  and  CA_12
REMARK    7  A    between atoms: CA_12  and  C_13
REMARK    8  A    between atoms: CA_12  and  C_16
REMARK    9  A    between atoms: C_13  and  OXT_15
REMARK                            x       y       z     vdW  Elec       q    Type
REMARK                         _______ _______ _______ _____ _____    ______ ____
ROOT
ATOM      1  C   UNL     1       3.944   4.318  17.310  0.00  0.00    +0.000 C 
ATOM      2  O   UNL     1       2.872   3.734  17.233  0.00  0.00    +0.000 OA
ATOM      3  N   UNL     1       4.966   4.011  16.454  0.00  0.00    +0.000 N 
ATOM      4  H   UNL     1       4.655   3.317  15.784  0.00  0.00    +0.000 HD
ENDROOT
BRANCH   1   5
ATOM      5  O   UNL     1       4.275   5.252  18.231  0.00  0.00    +0.000 OA
BRANCH   5   6
ATOM      6  C   UNL     1       3.396   5.336  19.366  0.00  0.00    +0.000 C 
BRANCH   6  10
ATOM      7  C   UNL     1       1.275   9.116  19.477  0.00  0.00    +0.000 A 
ATOM      8  C   UNL     1       1.256   8.259  20.578  0.00  0.00    +0.000 A 
ATOM      9  C   UNL     1       1.925   7.032  20.541  0.00  0.00    +0.000 A 
ATOM     10  C   UNL     1       2.621   6.635  19.392  0.00  0.00    +0.000 A 
ATOM     11  C   UNL     1       2.607   7.486  18.277  0.00  0.00    +0.000 A 
ATOM     12  C   UNL     1       1.944   8.719  18.318  0.00  0.00    +0.000 A 
BRANCH   7  14
ATOM     13  C   UNL     1      -0.219  10.707  18.543  0.00  0.00    +0.000 C 
ATOM     14  O   UNL     1       0.588  10.288  19.638  0.00  0.00    +0.000 OA
ENDBRANCH   7  14
ENDBRANCH   6  10
ENDBRANCH   5   6
ENDBRANCH   1   5
BRANCH   3  15
ATOM     15  CA  UNL     1       5.899   5.012  15.916  0.00  0.00    +0.000 C 
BRANCH  15  16
ATOM     16  C   UNL     1       6.286   4.674  14.484  0.00  0.00    +0.000 A 
ATOM     17  C   UNL     1       7.393   5.307  13.896  0.00  0.00    +0.000 A 
ATOM     18  C   UNL     1       7.787   4.990  12.594  0.00  0.00    +0.000 A 
ATOM     19  C   UNL     1       7.076   4.045  11.859  0.00  0.00    +0.000 A 
ATOM     20  C   UNL     1       5.972   3.413  12.423  0.00  0.00    +0.000 A 
ATOM     21  C   UNL     1       5.579   3.721  13.730  0.00  0.00    +0.000 A 
ENDBRANCH  15  16
BRANCH  15  22
ATOM     22  C   UNL     1       7.123   5.159  16.846  0.00  0.00    +0.000 C 
ATOM     23  O   UNL     1       7.993   4.319  17.020  0.00  0.00    +0.000 OA
BRANCH  22  24
ATOM     24  OXT UNL     1       7.213   6.402  17.393  0.00  0.00    +0.000 OA
ATOM     25  HXT UNL     1       6.780   7.063  16.812  0.00  0.00    +0.000 HD
ENDBRANCH  22  24
ENDBRANCH  15  22
ENDBRANCH   3  15
TORSDOF 8
ENDMDL
