MODEL 1
REMARK VINA RESULT:      -7.5      0.000      0.000
REMARK  Name = 
REMARK  7 active torsions:
REMARK  status: ('A' for Active; 'I' for Inactive)
REMARK    1  A    between atoms: C_1  and  C_2
REMARK    2  A    between atoms: C_7  and  C_8
REMARK    3  A    between atoms: C_9  and  C_10
REMARK    4  A    between atoms: C_10  and  N_11
REMARK    5  A    between atoms: N_11  and  C_12
REMARK    6  A    between atoms: N_11  and  C_13
REMARK    7  A    between atoms: C_13  and  C_14
REMARK                            x       y       z     vdW  Elec       q    Type
REMARK                         _______ _______ _______ _____ _____    ______ ____
ROOT
ATOM      1  N   UNL     1       5.536   4.972  16.481  0.00  0.00    +0.000 NA
ATOM      2  C   UNL     1       6.684   4.653  15.646  0.00  0.00    +0.000 C 
ENDROOT
BRANCH   1   3
ATOM      3  C   UNL     1       5.173   6.394  16.377  0.00  0.00    +0.000 C 
BRANCH   3   5
ATOM      4  C   UNL     1       3.092   6.906  17.692  0.00  0.00    +0.000 C 
ATOM      5  C   UNL     1       4.426   6.955  17.554  0.00  0.00    +0.000 C 
BRANCH   4  12
ATOM      6  C   UNL     1       1.854   9.759  17.770  0.00  0.00    +0.000 C 
ATOM      7  C   UNL     1       1.764   8.756  18.887  0.00  0.00    +0.000 A 
ATOM      8  C   UNL     1       1.103   9.153  20.064  0.00  0.00    +0.000 A 
ATOM      9  C   UNL     1       0.986   8.294  21.157  0.00  0.00    +0.000 A 
ATOM     10  C   UNL     1       1.516   7.014  21.086  0.00  0.00    +0.000 A 
ATOM     11  C   UNL     1       2.170   6.600  19.926  0.00  0.00    +0.000 A 
ATOM     12  C   UNL     1       2.305   7.453  18.812  0.00  0.00    +0.000 A 
ENDBRANCH   4  12
ENDBRANCH   3   5
ENDBRANCH   1   3
BRANCH   1  13
ATOM     13  C   UNL     1       5.689   4.452  17.858  0.00  0.00    +0.000 C 
BRANCH  13  14
ATOM     14  C   UNL     1       4.540   3.524  18.211  0.00  0.00    +0.000 A 
ATOM     15  C   UNL     1       3.455   3.397  17.305  0.00  0.00    +0.000 A 
ATOM     16  C   UNL     1       2.192   3.018  17.757  0.00  0.00    +0.000 A 
ATOM     17  C   UNL     1       2.055   2.816  19.112  0.00  0.00    +0.000 A 
ATOM     18  C   UNL     1       3.137   2.813  19.967  0.00  0.00    +0.000 A 
ATOM     19  C   UNL     1       4.411   3.088  19.538  0.00  0.00    +0.000 A 
ATOM     20  O   UNL     1       2.755   2.748  21.275  0.00  0.00    +0.000 OA
ATOM     21  C   UNL     1       1.368   3.107  21.107  0.00  0.00    +0.000 C 
ATOM     22  O   UNL     1       0.874   2.771  19.795  0.00  0.00    +0.000 OA
ENDBRANCH  13  14
ENDBRANCH   1  13
TORSDOF 5
ENDMDL
MODEL 2
REMARK VINA RESULT:      -7.3      0.923      1.038
REMARK  Name = 
REMARK  7 active torsions:
REMARK  status: ('A' for Active; 'I' for Inactive)
REMARK    1  A    between atoms: C_1  and  C_2
REMARK    2  A    between atoms: C_7  and  C_8
REMARK    3  A    between atoms: C_9  and  C_10
REMARK    4  A    between atoms: C_10  and  N_11
REMARK    5  A    between atoms: N_11  and  C_12
REMARK    6  A    between atoms: N_11  and  C_13
REMARK    7  A    between atoms: C_13  and  C_14
REMARK                            x       y       z     vdW  Elec       q    Type
REMARK                         _______ _______ _______ _____ _____    ______ ____
ROOT
ATOM      1  N   UNL     1       4.738   5.114  16.641  0.00  0.00    +0.000 NA
ATOM      2  C   UNL     1       5.408   5.570  15.433  0.00  0.00    +0.000 C 
ENDROOT
BRANCH   1   3
ATOM      3  C   UNL     1       5.282   5.772  17.839  0.00  0.00    +0.000 C 
BRANCH   3   5
ATOM      4  C   UNL     1       3.218   7.121  18.333  0.00  0.00    +0.000 C 
ATOM      5  C   UNL     1       4.262   6.390  18.754  0.00  0.00    +0.000 C 
BRANCH   4  12
ATOM      6  C   UNL     1       1.847   9.844  17.714  0.00  0.00    +0.000 C 
ATOM      7  C   UNL     1       1.588   9.014  18.941  0.00  0.00    +0.000 A 
ATOM      8  C   UNL     1       0.687   9.528  19.892  0.00  0.00    +0.000 A 
ATOM      9  C   UNL     1       0.399   8.835  21.069  0.00  0.00    +0.000 A 
ATOM     10  C   UNL     1       0.996   7.606  21.307  0.00  0.00    +0.000 A 
ATOM     11  C   UNL     1       1.888   7.078  20.374  0.00  0.00    +0.000 A 
ATOM     12  C   UNL     1       2.199   7.763  19.181  0.00  0.00    +0.000 A 
ENDBRANCH   4  12
ENDBRANCH   3   5
ENDBRANCH   1   3
BRANCH   1  13
ATOM     13  C   UNL     1       4.655   3.639  16.707  0.00  0.00    +0.000 C 
BRANCH  13  14
ATOM     14  C   UNL     1       3.492   3.207  17.585  0.00  0.00    +0.000 A 
ATOM     15  C   UNL     1       2.201   3.733  17.324  0.00  0.00    +0.000 A 
ATOM     16  C   UNL     1       1.247   3.813  18.338  0.00  0.00    +0.000 A 
ATOM     17  C   UNL     1       1.639   3.393  19.589  0.00  0.00    +0.000 A 
ATOM     18  C   UNL     1       2.847   2.763  19.808  0.00  0.00    +0.000 A 
ATOM     19  C   UNL     1       3.771   2.582  18.809  0.00  0.00    +0.000 A 
ATOM     20  O   UNL     1       3.092   2.575  21.137  0.00  0.00    +0.000 OA
ATOM     21  C   UNL     1       2.114   3.495  21.663  0.00  0.00    +0.000 C 
ATOM     22  O   UNL     1       1.005   3.685  20.762  0.00  0.00    +0.000 OA
ENDBRANCH  13  14
ENDBRANCH   1  13
TORSDOF 5
ENDMDL
MODEL 3
REMARK VINA RESULT:      -7.2      2.485      4.232
REMARK  Name = 
REMARK  7 active torsions:
REMARK  status: ('A' for Active; 'I' for Inactive)
REMARK    1  A    between atoms: C_1  and  C_2
REMARK    2  A    between atoms: C_7  and  C_8
REMARK    3  A    between atoms: C_9  and  C_10
REMARK    4  A    between atoms: C_10  and  N_11
REMARK    5  A    between atoms: N_11  and  C_12
REMARK    6  A    between atoms: N_11  and  C_13
REMARK    7  A    between atoms: C_13  and  C_14
REMARK                            x       y       z     vdW  Elec       q    Type
REMARK                         _______ _______ _______ _____ _____    ______ ____
ROOT
ATOM      1  N   UNL     1       1.926   2.779  20.336  0.00  0.00    +0.000 NA
ATOM      2  C   UNL     1       0.775   2.935  19.460  0.00  0.00    +0.000 C 
ENDROOT
BRANCH   1   3
ATOM      3  C   UNL     1       2.150   3.985  21.150  0.00  0.00    +0.000 C 
BRANCH   3   5
ATOM      4  C   UNL     1       2.454   6.315  20.255  0.00  0.00    +0.000 C 
ATOM      5  C   UNL     1       1.662   5.271  20.544  0.00  0.00    +0.000 C 
BRANCH   4  12
ATOM      6  C   UNL     1       0.861   8.509  21.780  0.00  0.00    +0.000 C 
ATOM      7  C   UNL     1       1.276   8.599  20.338  0.00  0.00    +0.000 A 
ATOM      8  C   UNL     1       0.883   9.744  19.619  0.00  0.00    +0.000 A 
ATOM      9  C   UNL     1       1.209   9.905  18.272  0.00  0.00    +0.000 A 
ATOM     10  C   UNL     1       1.950   8.929  17.623  0.00  0.00    +0.000 A 
ATOM     11  C   UNL     1       2.354   7.790  18.318  0.00  0.00    +0.000 A 
ATOM     12  C   UNL     1       2.031   7.603  19.678  0.00  0.00    +0.000 A 
ENDBRANCH   4  12
ENDBRANCH   3   5
ENDBRANCH   1   3
BRANCH   1  13
ATOM     13  C   UNL     1       3.111   2.270  19.612  0.00  0.00    +0.000 C 
BRANCH  13  14
ATOM     14  C   UNL     1       3.794   3.391  18.847  0.00  0.00    +0.000 A 
ATOM     15  C   UNL     1       3.433   3.621  17.495  0.00  0.00    +0.000 A 
ATOM     16  C   UNL     1       4.327   4.227  16.613  0.00  0.00    +0.000 A 
ATOM     17  C   UNL     1       5.569   4.547  17.114  0.00  0.00    +0.000 A 
ATOM     18  C   UNL     1       5.868   4.442  18.457  0.00  0.00    +0.000 A 
ATOM     19  C   UNL     1       4.975   3.939  19.370  0.00  0.00    +0.000 A 
ATOM     20  O   UNL     1       7.191   4.663  18.705  0.00  0.00    +0.000 OA
ATOM     21  C   UNL     1       7.685   4.515  17.357  0.00  0.00    +0.000 C 
ATOM     22  O   UNL     1       6.679   4.827  16.372  0.00  0.00    +0.000 OA
ENDBRANCH  13  14
ENDBRANCH   1  13
TORSDOF 5
ENDMDL
MODEL 4
REMARK VINA RESULT:      -7.1      1.023      2.005
REMARK  Name = 
REMARK  7 active torsions:
REMARK  status: ('A' for Active; 'I' for Inactive)
REMARK    1  A    between atoms: C_1  and  C_2
REMARK    2  A    between atoms: C_7  and  C_8
REMARK    3  A    between atoms: C_9  and  C_10
REMARK    4  A    between atoms: C_10  and  N_11
REMARK    5  A    between atoms: N_11  and  C_12
REMARK    6  A    between atoms: N_11  and  C_13
REMARK    7  A    between atoms: C_13  and  C_14
REMARK                            x       y       z     vdW  Elec       q    Type
REMARK                         _______ _______ _______ _____ _____    ______ ____
ROOT
ATOM      1  N   UNL     1       4.504   5.367  16.691  0.00  0.00    +0.000 NA
ATOM      2  C   UNL     1       5.391   5.929  15.684  0.00  0.00    +0.000 C 
ENDROOT
BRANCH   1   3
ATOM      3  C   UNL     1       4.514   6.169  17.924  0.00  0.00    +0.000 C 
BRANCH   3   5
ATOM      4  C   UNL     1       2.642   7.455  19.003  0.00  0.00    +0.000 C 
ATOM      5  C   UNL     1       3.495   7.272  17.984  0.00  0.00    +0.000 C 
BRANCH   4  12
ATOM      6  C   UNL     1       1.347   8.417  21.663  0.00  0.00    +0.000 C 
ATOM      7  C   UNL     1       0.985   8.934  20.299  0.00  0.00    +0.000 A 
ATOM      8  C   UNL     1      -0.040   9.896  20.220  0.00  0.00    +0.000 A 
ATOM      9  C   UNL     1      -0.454  10.420  18.995  0.00  0.00    +0.000 A 
ATOM     10  C   UNL     1       0.162  10.001  17.825  0.00  0.00    +0.000 A 
ATOM     11  C   UNL     1       1.183   9.052  17.882  0.00  0.00    +0.000 A 
ATOM     12  C   UNL     1       1.613   8.505  19.108  0.00  0.00    +0.000 A 
ENDBRANCH   4  12
ENDBRANCH   3   5
ENDBRANCH   1   3
BRANCH   1  13
ATOM     13  C   UNL     1       4.718   3.915  16.872  0.00  0.00    +0.000 C 
BRANCH  13  14
ATOM     14  C   UNL     1       3.595   3.306  17.695  0.00  0.00    +0.000 A 
ATOM     15  C   UNL     1       2.254   3.666  17.400  0.00  0.00    +0.000 A 
ATOM     16  C   UNL     1       1.265   3.587  18.379  0.00  0.00    +0.000 A 
ATOM     17  C   UNL     1       1.667   3.185  19.633  0.00  0.00    +0.000 A 
ATOM     18  C   UNL     1       2.941   2.713  19.880  0.00  0.00    +0.000 A 
ATOM     19  C   UNL     1       3.913   2.686  18.912  0.00  0.00    +0.000 A 
ATOM     20  O   UNL     1       3.164   2.517  21.211  0.00  0.00    +0.000 OA
ATOM     21  C   UNL     1       2.055   3.284  21.725  0.00  0.00    +0.000 C 
ATOM     22  O   UNL     1       0.961   3.354  20.789  0.00  0.00    +0.000 OA
ENDBRANCH  13  14
ENDBRANCH   1  13
TORSDOF 5
ENDMDL
MODEL 5
REMARK VINA RESULT:      -7.1      2.793      4.613
REMARK  Name = 
REMARK  7 active torsions:
REMARK  status: ('A' for Active; 'I' for Inactive)
REMARK    1  A    between atoms: C_1  and  C_2
REMARK    2  A    between atoms: C_7  and  C_8
REMARK    3  A    between atoms: C_9  and  C_10
REMARK    4  A    between atoms: C_10  and  N_11
REMARK    5  A    between atoms: N_11  and  C_12
REMARK    6  A    between atoms: N_11  and  C_13
REMARK    7  A    between atoms: C_13  and  C_14
REMARK                            x       y       z     vdW  Elec       q    Type
REMARK                         _______ _______ _______ _____ _____    ______ ____
ROOT
ATOM      1  N   UNL     1       2.291   4.021  19.095  0.00  0.00    +0.000 NA
ATOM      2  C   UNL     1       0.973   3.408  19.145  0.00  0.00    +0.000 C 
ENDROOT
BRANCH   1   3
ATOM      3  C   UNL     1       2.564   4.811  20.306  0.00  0.00    +0.000 C 
BRANCH   3   5
ATOM      4  C   UNL     1       2.075   7.277  20.298  0.00  0.00    +0.000 C 
ATOM      5  C   UNL     1       1.682   6.011  20.505  0.00  0.00    +0.000 C 
BRANCH   4  12
ATOM      6  C   UNL     1       1.382   9.329  18.064  0.00  0.00    +0.000 C 
ATOM      7  C   UNL     1       0.963   9.455  19.503  0.00  0.00    +0.000 A 
ATOM      8  C   UNL     1       0.237  10.604  19.869  0.00  0.00    +0.000 A 
ATOM      9  C   UNL     1      -0.179  10.814  21.184  0.00  0.00    +0.000 A 
ATOM     10  C   UNL     1       0.112   9.868  22.156  0.00  0.00    +0.000 A 
ATOM     11  C   UNL     1       0.827   8.721  21.813  0.00  0.00    +0.000 A 
ATOM     12  C   UNL     1       1.262   8.491  20.491  0.00  0.00    +0.000 A 
ENDBRANCH   4  12
ENDBRANCH   3   5
ENDBRANCH   1   3
BRANCH   1  13
ATOM     13  C   UNL     1       2.531   4.718  17.812  0.00  0.00    +0.000 C 
BRANCH  13  14
ATOM     14  C   UNL     1       4.021   4.838  17.539  0.00  0.00    +0.000 A 
ATOM     15  C   UNL     1       4.662   6.085  17.761  0.00  0.00    +0.000 A 
ATOM     16  C   UNL     1       5.827   6.418  17.071  0.00  0.00    +0.000 A 
ATOM     17  C   UNL     1       6.286   5.500  16.154  0.00  0.00    +0.000 A 
ATOM     18  C   UNL     1       5.735   4.240  16.037  0.00  0.00    +0.000 A 
ATOM     19  C   UNL     1       4.646   3.845  16.771  0.00  0.00    +0.000 A 
ATOM     20  O   UNL     1       6.241   3.559  14.968  0.00  0.00    +0.000 OA
ATOM     21  C   UNL     1       6.829   4.674  14.267  0.00  0.00    +0.000 C 
ATOM     22  O   UNL     1       7.184   5.751  15.157  0.00  0.00    +0.000 OA
ENDBRANCH  13  14
ENDBRANCH   1  13
TORSDOF 5
ENDMDL
MODEL 6
REMARK VINA RESULT:      -6.9      2.479      4.328
REMARK  Name = 
REMARK  7 active torsions:
REMARK  status: ('A' for Active; 'I' for Inactive)
REMARK    1  A    between atoms: C_1  and  C_2
REMARK    2  A    between atoms: C_7  and  C_8
REMARK    3  A    between atoms: C_9  and  C_10
REMARK    4  A    between atoms: C_10  and  N_11
REMARK    5  A    between atoms: N_11  and  C_12
REMARK    6  A    between atoms: N_11  and  C_13
REMARK    7  A    between atoms: C_13  and  C_14
REMARK                            x       y       z     vdW  Elec       q    Type
REMARK                         _______ _______ _______ _____ _____    ______ ____
ROOT
ATOM      1  N   UNL     1       3.012   3.680  20.236  0.00  0.00    +0.000 NA
ATOM      2  C   UNL     1       3.385   2.387  20.788  0.00  0.00    +0.000 C 
ENDROOT
BRANCH   1   3
ATOM      3  C   UNL     1       1.935   4.308  21.017  0.00  0.00    +0.000 C 
BRANCH   3   5
ATOM      4  C   UNL     1       2.215   6.710  20.324  0.00  0.00    +0.000 C 
ATOM      5  C   UNL     1       1.441   5.626  20.488  0.00  0.00    +0.000 C 
BRANCH   4  12
ATOM      6  C   UNL     1       0.619   8.800  21.985  0.00  0.00    +0.000 C 
ATOM      7  C   UNL     1       1.028   8.979  20.549  0.00  0.00    +0.000 A 
ATOM      8  C   UNL     1       0.626  10.164  19.904  0.00  0.00    +0.000 A 
ATOM      9  C   UNL     1       0.946  10.407  18.567  0.00  0.00    +0.000 A 
ATOM     10  C   UNL     1       1.689   9.476  17.857  0.00  0.00    +0.000 A 
ATOM     11  C   UNL     1       2.101   8.299  18.481  0.00  0.00    +0.000 A 
ATOM     12  C   UNL     1       1.784   8.028  19.828  0.00  0.00    +0.000 A 
ENDBRANCH   4  12
ENDBRANCH   3   5
ENDBRANCH   1   3
BRANCH   1  13
ATOM     13  C   UNL     1       2.786   3.616  18.775  0.00  0.00    +0.000 C 
BRANCH  13  14
ATOM     14  C   UNL     1       3.937   4.265  18.026  0.00  0.00    +0.000 A 
ATOM     15  C   UNL     1       4.190   3.877  16.684  0.00  0.00    +0.000 A 
ATOM     16  C   UNL     1       5.464   4.007  16.135  0.00  0.00    +0.000 A 
ATOM     17  C   UNL     1       6.450   4.489  16.966  0.00  0.00    +0.000 A 
ATOM     18  C   UNL     1       6.172   4.985  18.224  0.00  0.00    +0.000 A 
ATOM     19  C   UNL     1       4.909   4.961  18.759  0.00  0.00    +0.000 A 
ATOM     20  O   UNL     1       7.309   5.264  18.926  0.00  0.00    +0.000 OA
ATOM     21  C   UNL     1       8.243   4.521  18.116  0.00  0.00    +0.000 C 
ATOM     22  O   UNL     1       7.794   4.385  16.752  0.00  0.00    +0.000 OA
ENDBRANCH  13  14
ENDBRANCH   1  13
TORSDOF 5
ENDMDL
MODEL 7
REMARK VINA RESULT:      -6.8      2.930      4.964
REMARK  Name = 
REMARK  7 active torsions:
REMARK  status: ('A' for Active; 'I' for Inactive)
REMARK    1  A    between atoms: C_1  and  C_2
REMARK    2  A    between atoms: C_7  and  C_8
REMARK    3  A    between atoms: C_9  and  C_10
REMARK    4  A    between atoms: C_10  and  N_11
REMARK    5  A    between atoms: N_11  and  C_12
REMARK    6  A    between atoms: N_11  and  C_13
REMARK    7  A    between atoms: C_13  and  C_14
REMARK                            x       y       z     vdW  Elec       q    Type
REMARK                         _______ _______ _______ _____ _____    ______ ____
ROOT
ATOM      1  N   UNL     1       2.663   4.509  19.057  0.00  0.00    +0.000 NA
ATOM      2  C   UNL     1       1.463   3.687  19.050  0.00  0.00    +0.000 C 
ENDROOT
BRANCH   1   3
ATOM      3  C   UNL     1       2.661   5.456  20.183  0.00  0.00    +0.000 C 
BRANCH   3   5
ATOM      4  C   UNL     1       1.547   7.632  20.771  0.00  0.00    +0.000 C 
ATOM      5  C   UNL     1       2.132   6.827  19.870  0.00  0.00    +0.000 C 
BRANCH   4  12
ATOM      6  C   UNL     1       0.225   9.445  22.926  0.00  0.00    +0.000 C 
ATOM      7  C   UNL     1       0.358   9.802  21.471  0.00  0.00    +0.000 A 
ATOM      8  C   UNL     1      -0.187  11.030  21.052  0.00  0.00    +0.000 A 
ATOM      9  C   UNL     1      -0.125  11.436  19.718  0.00  0.00    +0.000 A 
ATOM     10  C   UNL     1       0.500  10.627  18.782  0.00  0.00    +0.000 A 
ATOM     11  C   UNL     1       1.052   9.409  19.178  0.00  0.00    +0.000 A 
ATOM     12  C   UNL     1       0.995   8.975  20.519  0.00  0.00    +0.000 A 
ENDBRANCH   4  12
ENDBRANCH   3   5
ENDBRANCH   1   3
BRANCH   1  13
ATOM     13  C   UNL     1       2.939   5.099  17.729  0.00  0.00    +0.000 C 
BRANCH  13  14
ATOM     14  C   UNL     1       4.417   4.998  17.394  0.00  0.00    +0.000 A 
ATOM     15  C   UNL     1       5.270   6.086  17.713  0.00  0.00    +0.000 A 
ATOM     16  C   UNL     1       6.453   6.294  17.004  0.00  0.00    +0.000 A 
ATOM     17  C   UNL     1       6.717   5.421  15.973  0.00  0.00    +0.000 A 
ATOM     18  C   UNL     1       5.954   4.292  15.752  0.00  0.00    +0.000 A 
ATOM     19  C   UNL     1       4.837   4.006  16.496  0.00  0.00    +0.000 A 
ATOM     20  O   UNL     1       6.300   3.660  14.594  0.00  0.00    +0.000 OA
ATOM     21  C   UNL     1       7.048   4.733  13.984  0.00  0.00    +0.000 C 
ATOM     22  O   UNL     1       7.613   5.628  14.964  0.00  0.00    +0.000 OA
ENDBRANCH  13  14
ENDBRANCH   1  13
TORSDOF 5
ENDMDL
MODEL 8
REMARK VINA RESULT:      -6.8      2.463      4.438
REMARK  Name = 
REMARK  7 active torsions:
REMARK  status: ('A' for Active; 'I' for Inactive)
REMARK    1  A    between atoms: C_1  and  C_2
REMARK    2  A    between atoms: C_7  and  C_8
REMARK    3  A    between atoms: C_9  and  C_10
REMARK    4  A    between atoms: C_10  and  N_11
REMARK    5  A    between atoms: N_11  and  C_12
REMARK    6  A    between atoms: N_11  and  C_13
REMARK    7  A    between atoms: C_13  and  C_14
REMARK                            x       y       z     vdW  Elec       q    Type
REMARK                         _______ _______ _______ _____ _____    ______ ____
ROOT
ATOM      1  N   UNL     1       2.731   3.081  20.542  0.00  0.00    +0.000 NA
ATOM      2  C   UNL     1       2.974   2.081  21.570  0.00  0.00    +0.000 C 
ENDROOT
BRANCH   1   3
ATOM      3  C   UNL     1       1.393   3.678  20.676  0.00  0.00    +0.000 C 
BRANCH   3   5
ATOM      4  C   UNL     1       2.109   6.034  20.166  0.00  0.00    +0.000 C 
ATOM      5  C   UNL     1       1.225   5.031  20.044  0.00  0.00    +0.000 C 
BRANCH   4  12
ATOM      6  C   UNL     1       0.687   8.439  21.533  0.00  0.00    +0.000 C 
ATOM      7  C   UNL     1       1.319   8.480  20.169  0.00  0.00    +0.000 A 
ATOM      8  C   UNL     1       1.227   9.686  19.448  0.00  0.00    +0.000 A 
ATOM      9  C   UNL     1       1.769   9.811  18.169  0.00  0.00    +0.000 A 
ATOM     10  C   UNL     1       2.429   8.735  17.593  0.00  0.00    +0.000 A 
ATOM     11  C   UNL     1       2.536   7.534  18.294  0.00  0.00    +0.000 A 
ATOM     12  C   UNL     1       1.990   7.382  19.585  0.00  0.00    +0.000 A 
ENDBRANCH   4  12
ENDBRANCH   3   5
ENDBRANCH   1   3
BRANCH   1  13
ATOM     13  C   UNL     1       3.075   2.584  19.192  0.00  0.00    +0.000 C 
BRANCH  13  14
ATOM     14  C   UNL     1       4.263   3.344  18.627  0.00  0.00    +0.000 A 
ATOM     15  C   UNL     1       5.050   4.139  19.502  0.00  0.00    +0.000 A 
ATOM     16  C   UNL     1       5.777   5.224  19.015  0.00  0.00    +0.000 A 
ATOM     17  C   UNL     1       5.659   5.495  17.671  0.00  0.00    +0.000 A 
ATOM     18  C   UNL     1       5.000   4.645  16.806  0.00  0.00    +0.000 A 
ATOM     19  C   UNL     1       4.354   3.515  17.238  0.00  0.00    +0.000 A 
ATOM     20  O   UNL     1       4.874   5.184  15.559  0.00  0.00    +0.000 OA
ATOM     21  C   UNL     1       5.165   6.557  15.892  0.00  0.00    +0.000 C 
ATOM     22  O   UNL     1       6.000   6.668  17.062  0.00  0.00    +0.000 OA
ENDBRANCH  13  14
ENDBRANCH   1  13
TORSDOF 5
ENDMDL
MODEL 9
REMARK VINA RESULT:      -6.7      2.857      4.722
REMARK  Name = 
REMARK  7 active torsions:
REMARK  status: ('A' for Active; 'I' for Inactive)
REMARK    1  A    between atoms: C_1  and  C_2
REMARK    2  A    between atoms: C_7  and  C_8
REMARK    3  A    between atoms: C_9  and  C_10
REMARK    4  A    between atoms: C_10  and  N_11
REMARK    5  A    between atoms: N_11  and  C_12
REMARK    6  A    between atoms: N_11  and  C_13
REMARK    7  A    between atoms: C_13  and  C_14
REMARK                            x       y       z     vdW  Elec       q    Type
REMARK                         _______ _______ _______ _____ _____    ______ ____
ROOT
ATOM      1  N   UNL     1       3.653   4.255  19.725  0.00  0.00    +0.000 NA
ATOM      2  C   UNL     1       3.819   2.818  19.876  0.00  0.00    +0.000 C 
ENDROOT
BRANCH   1   3
ATOM      3  C   UNL     1       2.555   4.762  20.562  0.00  0.00    +0.000 C 
BRANCH   3   5
ATOM      4  C   UNL     1       1.981   7.210  20.526  0.00  0.00    +0.000 C 
ATOM      5  C   UNL     1       1.842   5.972  20.027  0.00  0.00    +0.000 C 
BRANCH   4  12
ATOM      6  C   UNL     1       2.463   8.564  17.767  0.00  0.00    +0.000 C 
ATOM      7  C   UNL     1       1.525   9.081  18.823  0.00  0.00    +0.000 A 
ATOM      8  C   UNL     1       0.845  10.284  18.553  0.00  0.00    +0.000 A 
ATOM      9  C   UNL     1      -0.032  10.847  19.482  0.00  0.00    +0.000 A 
ATOM     10  C   UNL     1      -0.257  10.207  20.691  0.00  0.00    +0.000 A 
ATOM     11  C   UNL     1       0.403   9.011  20.974  0.00  0.00    +0.000 A 
ATOM     12  C   UNL     1       1.298   8.427  20.055  0.00  0.00    +0.000 A 
ENDBRANCH   4  12
ENDBRANCH   3   5
ENDBRANCH   1   3
BRANCH   1  13
ATOM     13  C   UNL     1       3.610   4.663  18.303  0.00  0.00    +0.000 C 
BRANCH  13  14
ATOM     14  C   UNL     1       4.976   4.498  17.657  0.00  0.00    +0.000 A 
ATOM     15  C   UNL     1       6.021   5.385  18.023  0.00  0.00    +0.000 A 
ATOM     16  C   UNL     1       7.076   5.639  17.148  0.00  0.00    +0.000 A 
ATOM     17  C   UNL     1       7.024   5.020  15.920  0.00  0.00    +0.000 A 
ATOM     18  C   UNL     1       6.078   4.061  15.620  0.00  0.00    +0.000 A 
ATOM     19  C   UNL     1       5.081   3.716  16.497  0.00  0.00    +0.000 A 
ATOM     20  O   UNL     1       6.118   3.697  14.306  0.00  0.00    +0.000 OA
ATOM     21  C   UNL     1       6.894   4.804  13.804  0.00  0.00    +0.000 C 
ATOM     22  O   UNL     1       7.747   5.374  14.817  0.00  0.00    +0.000 OA
ENDBRANCH  13  14
ENDBRANCH   1  13
TORSDOF 5
ENDMDL
