MODEL 1
REMARK VINA RESULT:      -8.2      0.000      0.000
REMARK  Name = 
REMARK  7 active torsions:
REMARK  status: ('A' for Active; 'I' for Inactive)
REMARK    1  A    between atoms: C_1  and  N_2
REMARK    2  A    between atoms: N_2  and  C_3
REMARK    3  A    between atoms: C_3  and  C_4
REMARK    4  A    between atoms: N_6  and  C_7
REMARK    5  A    between atoms: C_12  and  C_13
REMARK    6  A    between atoms: C_18  and  C_20
REMARK    7  A    between atoms: C_20  and  C_21
REMARK                            x       y       z     vdW  Elec       q    Type
REMARK                         _______ _______ _______ _____ _____    ______ ____
ROOT
ATOM      1  C   UNL     1      -0.611   9.098  22.839  0.00  0.00    +0.000 C 
ATOM      2  N   UNL     1      -0.027  10.301  22.257  0.00  0.00    +0.000 N 
ATOM      3  C   UNL     1      -0.794  11.461  22.357  0.00  0.00    +0.000 C 
ATOM      4  O   UNL     1      -1.872  11.459  22.951  0.00  0.00    +0.000 OA
ENDROOT
BRANCH   2   5
ATOM      5  C   UNL     1       1.223  10.138  21.494  0.00  0.00    +0.000 C 
BRANCH   5   6
ATOM      6  C   UNL     1       1.302   9.016  20.441  0.00  0.00    +0.000 C 
ATOM      7  O   UNL     1       0.762   9.162  19.343  0.00  0.00    +0.000 OA
ATOM      8  N   UNL     1       1.991   7.880  20.824  0.00  0.00    +0.000 N 
ATOM      9  H   UNL     1       2.148   7.771  21.818  0.00  0.00    +0.000 HD
BRANCH   8  10
ATOM     10  C   UNL     1       2.114   6.732  20.013  0.00  0.00    +0.000 A 
ATOM     11  C   UNL     1       2.610   6.892  18.722  0.00  0.00    +0.000 A 
ATOM     12  C   UNL     1       2.781   5.777  17.900  0.00  0.00    +0.000 A 
ATOM     13  C   UNL     1       2.382   4.503  18.322  0.00  0.00    +0.000 A 
ATOM     14 CL   UNL     1       2.625   3.216  17.201  0.00  0.00    +0.000 Cl
ATOM     15  C   UNL     1       1.820   4.327  19.590  0.00  0.00    +0.000 A 
ATOM     16  C   UNL     1       1.736   5.457  20.445  0.00  0.00    +0.000 A 
BRANCH  15  17
ATOM     17  C   UNL     1       1.257   3.024  20.100  0.00  0.00    +0.000 C 
ATOM     18  F   UNL     1       2.087   1.949  20.064  0.00  0.00    +0.000 F 
ATOM     19  F   UNL     1       0.828   3.112  21.389  0.00  0.00    +0.000 F 
ATOM     20  F   UNL     1       0.158   2.645  19.379  0.00  0.00    +0.000 F 
ENDBRANCH  15  17
ENDBRANCH   8  10
ENDBRANCH   5   6
ENDBRANCH   2   5
BRANCH   3  21
ATOM     21  C   UNL     1      -0.312  12.721  21.674  0.00  0.00    +0.000 C 
BRANCH  21  22
ATOM     22  C   UNL     1      -1.217  13.134  20.502  0.00  0.00    +0.000 C 
ATOM     23  S   UNL     1      -0.822  14.816  19.897  0.00  0.00    +0.000 S 
ATOM     24  C   UNL     1       0.791  14.450  19.239  0.00  0.00    +0.000 A 
ATOM     25  C   UNL     1       1.775  15.439  19.281  0.00  0.00    +0.000 A 
ATOM     26  C   UNL     1       3.049  15.173  18.781  0.00  0.00    +0.000 A 
ATOM     27  C   UNL     1       3.336  13.927  18.225  0.00  0.00    +0.000 A 
ATOM     28  C   UNL     1       2.348  12.944  18.155  0.00  0.00    +0.000 A 
ATOM     29  C   UNL     1       1.083  13.197  18.683  0.00  0.00    +0.000 A 
ATOM     30  N   UNL     1       0.126  12.163  18.645  0.00  0.00    +0.000 N 
ATOM     31  C   UNL     1      -1.040  12.124  19.371  0.00  0.00    +0.000 C 
ATOM     32  O   UNL     1      -1.827  11.197  19.196  0.00  0.00    +0.000 OA
ATOM     33  H   UNL     1       0.283  11.366  18.041  0.00  0.00    +0.000 HD
ENDBRANCH  21  22
ENDBRANCH   3  21
TORSDOF 6
ENDMDL
MODEL 2
REMARK VINA RESULT:      -8.1      1.221      1.575
REMARK  Name = 
REMARK  7 active torsions:
REMARK  status: ('A' for Active; 'I' for Inactive)
REMARK    1  A    between atoms: C_1  and  N_2
REMARK    2  A    between atoms: N_2  and  C_3
REMARK    3  A    between atoms: C_3  and  C_4
REMARK    4  A    between atoms: N_6  and  C_7
REMARK    5  A    between atoms: C_12  and  C_13
REMARK    6  A    between atoms: C_18  and  C_20
REMARK    7  A    between atoms: C_20  and  C_21
REMARK                            x       y       z     vdW  Elec       q    Type
REMARK                         _______ _______ _______ _____ _____    ______ ____
ROOT
ATOM      1  C   UNL     1      -1.155  10.444  23.195  0.00  0.00    +0.000 C 
ATOM      2  N   UNL     1       0.012  10.711  22.362  0.00  0.00    +0.000 N 
ATOM      3  C   UNL     1      -0.047  11.865  21.581  0.00  0.00    +0.000 C 
ATOM      4  O   UNL     1      -1.013  12.625  21.647  0.00  0.00    +0.000 OA
ENDROOT
BRANCH   2   5
ATOM      5  C   UNL     1       1.052   9.668  22.309  0.00  0.00    +0.000 C 
BRANCH   5   6
ATOM      6  C   UNL     1       0.996   8.629  21.172  0.00  0.00    +0.000 C 
ATOM      7  O   UNL     1       0.088   8.675  20.340  0.00  0.00    +0.000 OA
ATOM      8  N   UNL     1       2.001   7.680  21.175  0.00  0.00    +0.000 N 
ATOM      9  H   UNL     1       2.516   7.583  22.041  0.00  0.00    +0.000 HD
BRANCH   8  10
ATOM     10  C   UNL     1       2.076   6.620  20.247  0.00  0.00    +0.000 A 
ATOM     11  C   UNL     1       2.499   6.911  18.953  0.00  0.00    +0.000 A 
ATOM     12  C   UNL     1       2.620   5.884  18.014  0.00  0.00    +0.000 A 
ATOM     13  C   UNL     1       2.242   4.573  18.328  0.00  0.00    +0.000 A 
ATOM     14 CL   UNL     1       2.418   3.406  17.072  0.00  0.00    +0.000 Cl
ATOM     15  C   UNL     1       1.752   4.269  19.602  0.00  0.00    +0.000 A 
ATOM     16  C   UNL     1       1.719   5.307  20.569  0.00  0.00    +0.000 A 
BRANCH  15  17
ATOM     17  C   UNL     1       1.216   2.919  20.009  0.00  0.00    +0.000 C 
ATOM     18  F   UNL     1       2.058   1.863  19.865  0.00  0.00    +0.000 F 
ATOM     19  F   UNL     1       0.812   2.891  21.309  0.00  0.00    +0.000 F 
ATOM     20  F   UNL     1       0.107   2.588  19.279  0.00  0.00    +0.000 F 
ENDBRANCH  15  17
ENDBRANCH   8  10
ENDBRANCH   5   6
ENDBRANCH   2   5
BRANCH   3  21
ATOM     21  C   UNL     1       1.070  12.148  20.602  0.00  0.00    +0.000 C 
BRANCH  21  22
ATOM     22  C   UNL     1       0.625  11.977  19.142  0.00  0.00    +0.000 C 
ATOM     23  S   UNL     1      -0.061  13.530  18.454  0.00  0.00    +0.000 S 
ATOM     24  C   UNL     1       1.451  14.469  18.458  0.00  0.00    +0.000 A 
ATOM     25  C   UNL     1       1.387  15.845  18.680  0.00  0.00    +0.000 A 
ATOM     26  C   UNL     1       2.557  16.601  18.698  0.00  0.00    +0.000 A 
ATOM     27  C   UNL     1       3.790  15.988  18.477  0.00  0.00    +0.000 A 
ATOM     28  C   UNL     1       3.857  14.617  18.226  0.00  0.00    +0.000 A 
ATOM     29  C   UNL     1       2.690  13.853  18.240  0.00  0.00    +0.000 A 
ATOM     30  N   UNL     1       2.802  12.463  18.037  0.00  0.00    +0.000 N 
ATOM     31  C   UNL     1       1.828  11.534  18.314  0.00  0.00    +0.000 C 
ATOM     32  O   UNL     1       2.023  10.355  18.026  0.00  0.00    +0.000 OA
ATOM     33  H   UNL     1       3.661  12.086  17.657  0.00  0.00    +0.000 HD
ENDBRANCH  21  22
ENDBRANCH   3  21
TORSDOF 6
ENDMDL
MODEL 3
REMARK VINA RESULT:      -8.1      5.258      8.616
REMARK  Name = 
REMARK  7 active torsions:
REMARK  status: ('A' for Active; 'I' for Inactive)
REMARK    1  A    between atoms: C_1  and  N_2
REMARK    2  A    between atoms: N_2  and  C_3
REMARK    3  A    between atoms: C_3  and  C_4
REMARK    4  A    between atoms: N_6  and  C_7
REMARK    5  A    between atoms: C_12  and  C_13
REMARK    6  A    between atoms: C_18  and  C_20
REMARK    7  A    between atoms: C_20  and  C_21
REMARK                            x       y       z     vdW  Elec       q    Type
REMARK                         _______ _______ _______ _____ _____    ______ ____
ROOT
ATOM      1  C   UNL     1       0.749   4.627  20.338  0.00  0.00    +0.000 C 
ATOM      2  N   UNL     1       1.789   5.095  19.428  0.00  0.00    +0.000 N 
ATOM      3  C   UNL     1       1.995   4.319  18.288  0.00  0.00    +0.000 C 
ATOM      4  O   UNL     1       1.294   3.333  18.057  0.00  0.00    +0.000 OA
ENDROOT
BRANCH   2   5
ATOM      5  C   UNL     1       2.612   6.232  19.876  0.00  0.00    +0.000 C 
BRANCH   5   6
ATOM      6  C   UNL     1       1.954   7.622  19.980  0.00  0.00    +0.000 C 
ATOM      7  O   UNL     1       1.533   8.024  21.065  0.00  0.00    +0.000 OA
ATOM      8  N   UNL     1       1.874   8.337  18.800  0.00  0.00    +0.000 N 
ATOM      9  H   UNL     1       2.001   7.805  17.949  0.00  0.00    +0.000 HD
BRANCH   8  10
ATOM     10  C   UNL     1       1.253   9.599  18.695  0.00  0.00    +0.000 A 
ATOM     11  C   UNL     1       2.038  10.734  18.883  0.00  0.00    +0.000 A 
ATOM     12  C   UNL     1       1.469  12.003  18.752  0.00  0.00    +0.000 A 
ATOM     13  C   UNL     1       0.097  12.156  18.517  0.00  0.00    +0.000 A 
ATOM     14 CL   UNL     1      -0.482  13.776  18.402  0.00  0.00    +0.000 Cl
ATOM     15  C   UNL     1      -0.724  11.031  18.390  0.00  0.00    +0.000 A 
ATOM     16  C   UNL     1      -0.113   9.751  18.438  0.00  0.00    +0.000 A 
BRANCH  15  17
ATOM     17  C   UNL     1      -2.224  11.083  18.247  0.00  0.00    +0.000 C 
ATOM     18  F   UNL     1      -2.910  11.684  19.254  0.00  0.00    +0.000 F 
ATOM     19  F   UNL     1      -2.615  11.719  17.108  0.00  0.00    +0.000 F 
ATOM     20  F   UNL     1      -2.756   9.826  18.160  0.00  0.00    +0.000 F 
ENDBRANCH  15  17
ENDBRANCH   8  10
ENDBRANCH   5   6
ENDBRANCH   2   5
BRANCH   3  21
ATOM     21  C   UNL     1       3.134   4.669  17.357  0.00  0.00    +0.000 C 
BRANCH  21  22
ATOM     22  C   UNL     1       4.032   3.460  17.051  0.00  0.00    +0.000 C 
ATOM     23  S   UNL     1       5.395   3.897  15.909  0.00  0.00    +0.000 S 
ATOM     24  C   UNL     1       6.284   4.972  17.015  0.00  0.00    +0.000 A 
ATOM     25  C   UNL     1       6.977   6.061  16.482  0.00  0.00    +0.000 A 
ATOM     26  C   UNL     1       7.672   6.923  17.329  0.00  0.00    +0.000 A 
ATOM     27  C   UNL     1       7.691   6.690  18.704  0.00  0.00    +0.000 A 
ATOM     28  C   UNL     1       7.023   5.587  19.238  0.00  0.00    +0.000 A 
ATOM     29  C   UNL     1       6.301   4.741  18.397  0.00  0.00    +0.000 A 
ATOM     30  N   UNL     1       5.594   3.670  18.978  0.00  0.00    +0.000 N 
ATOM     31  C   UNL     1       4.607   2.936  18.364  0.00  0.00    +0.000 C 
ATOM     32  O   UNL     1       4.115   1.978  18.955  0.00  0.00    +0.000 OA
ATOM     33  H   UNL     1       5.808   3.392  19.927  0.00  0.00    +0.000 HD
ENDBRANCH  21  22
ENDBRANCH   3  21
TORSDOF 6
ENDMDL
MODEL 4
REMARK VINA RESULT:      -8.0      5.309      8.719
REMARK  Name = 
REMARK  7 active torsions:
REMARK  status: ('A' for Active; 'I' for Inactive)
REMARK    1  A    between atoms: C_1  and  N_2
REMARK    2  A    between atoms: N_2  and  C_3
REMARK    3  A    between atoms: C_3  and  C_4
REMARK    4  A    between atoms: N_6  and  C_7
REMARK    5  A    between atoms: C_12  and  C_13
REMARK    6  A    between atoms: C_18  and  C_20
REMARK    7  A    between atoms: C_20  and  C_21
REMARK                            x       y       z     vdW  Elec       q    Type
REMARK                         _______ _______ _______ _____ _____    ______ ____
ROOT
ATOM      1  C   UNL     1       0.727   4.202  20.431  0.00  0.00    +0.000 C 
ATOM      2  N   UNL     1       1.759   4.766  19.569  0.00  0.00    +0.000 N 
ATOM      3  C   UNL     1       1.991   4.090  18.371  0.00  0.00    +0.000 C 
ATOM      4  O   UNL     1       1.317   3.109  18.058  0.00  0.00    +0.000 OA
ENDROOT
BRANCH   2   5
ATOM      5  C   UNL     1       2.551   5.884  20.113  0.00  0.00    +0.000 C 
BRANCH   5   6
ATOM      6  C   UNL     1       1.932   7.295  20.109  0.00  0.00    +0.000 C 
ATOM      7  O   UNL     1       2.252   8.105  19.238  0.00  0.00    +0.000 OA
ATOM      8  N   UNL     1       1.036   7.561  21.128  0.00  0.00    +0.000 N 
ATOM      9  H   UNL     1       1.063   6.928  21.917  0.00  0.00    +0.000 HD
BRANCH   8  10
ATOM     10  C   UNL     1       0.419   8.815  21.316  0.00  0.00    +0.000 A 
ATOM     11  C   UNL     1       0.141   9.221  22.619  0.00  0.00    +0.000 A 
ATOM     12  C   UNL     1      -0.438  10.470  22.850  0.00  0.00    +0.000 A 
ATOM     13  C   UNL     1      -0.823  11.293  21.784  0.00  0.00    +0.000 A 
ATOM     14 CL   UNL     1      -1.549  12.799  22.206  0.00  0.00    +0.000 Cl
ATOM     15  C   UNL     1      -0.614  10.879  20.465  0.00  0.00    +0.000 A 
ATOM     16  C   UNL     1       0.055   9.646  20.251  0.00  0.00    +0.000 A 
BRANCH  15  17
ATOM     17  C   UNL     1      -1.089  11.635  19.249  0.00  0.00    +0.000 C 
ATOM     18  F   UNL     1      -0.887  11.037  18.046  0.00  0.00    +0.000 F 
ATOM     19  F   UNL     1      -2.420  11.916  19.300  0.00  0.00    +0.000 F 
ATOM     20  F   UNL     1      -0.466  12.848  19.148  0.00  0.00    +0.000 F 
ENDBRANCH  15  17
ENDBRANCH   8  10
ENDBRANCH   5   6
ENDBRANCH   2   5
BRANCH   3  21
ATOM     21  C   UNL     1       3.126   4.541  17.480  0.00  0.00    +0.000 C 
BRANCH  21  22
ATOM     22  C   UNL     1       4.061   3.386  17.092  0.00  0.00    +0.000 C 
ATOM     23  S   UNL     1       5.350   3.921  15.907  0.00  0.00    +0.000 S 
ATOM     24  C   UNL     1       6.241   4.998  17.009  0.00  0.00    +0.000 A 
ATOM     25  C   UNL     1       6.860   6.134  16.486  0.00  0.00    +0.000 A 
ATOM     26  C   UNL     1       7.555   6.997  17.330  0.00  0.00    +0.000 A 
ATOM     27  C   UNL     1       7.647   6.720  18.694  0.00  0.00    +0.000 A 
ATOM     28  C   UNL     1       7.054   5.571  19.218  0.00  0.00    +0.000 A 
ATOM     29  C   UNL     1       6.331   4.722  18.380  0.00  0.00    +0.000 A 
ATOM     30  N   UNL     1       5.699   3.601  18.954  0.00  0.00    +0.000 N 
ATOM     31  C   UNL     1       4.718   2.844  18.359  0.00  0.00    +0.000 C 
ATOM     32  O   UNL     1       4.295   1.846  18.937  0.00  0.00    +0.000 OA
ATOM     33  H   UNL     1       5.968   3.302  19.883  0.00  0.00    +0.000 HD
ENDBRANCH  21  22
ENDBRANCH   3  21
TORSDOF 6
ENDMDL
MODEL 5
REMARK VINA RESULT:      -8.0      5.422      8.832
REMARK  Name = 
REMARK  7 active torsions:
REMARK  status: ('A' for Active; 'I' for Inactive)
REMARK    1  A    between atoms: C_1  and  N_2
REMARK    2  A    between atoms: N_2  and  C_3
REMARK    3  A    between atoms: C_3  and  C_4
REMARK    4  A    between atoms: N_6  and  C_7
REMARK    5  A    between atoms: C_12  and  C_13
REMARK    6  A    between atoms: C_18  and  C_20
REMARK    7  A    between atoms: C_20  and  C_21
REMARK                            x       y       z     vdW  Elec       q    Type
REMARK                         _______ _______ _______ _____ _____    ______ ____
ROOT
ATOM      1  C   UNL     1       0.761   4.437  20.385  0.00  0.00    +0.000 C 
ATOM      2  N   UNL     1       1.795   4.961  19.499  0.00  0.00    +0.000 N 
ATOM      3  C   UNL     1       2.019   4.237  18.328  0.00  0.00    +0.000 C 
ATOM      4  O   UNL     1       1.338   3.249  18.054  0.00  0.00    +0.000 OA
ENDROOT
BRANCH   2   5
ATOM      5  C   UNL     1       2.596   6.093  19.998  0.00  0.00    +0.000 C 
BRANCH   5   6
ATOM      6  C   UNL     1       1.922   7.473  20.121  0.00  0.00    +0.000 C 
ATOM      7  O   UNL     1       1.905   8.239  19.157  0.00  0.00    +0.000 OA
ATOM      8  N   UNL     1       1.375   7.766  21.357  0.00  0.00    +0.000 N 
ATOM      9  H   UNL     1       1.684   7.187  22.127  0.00  0.00    +0.000 HD
BRANCH   8  10
ATOM     10  C   UNL     1       0.771   9.001  21.669  0.00  0.00    +0.000 A 
ATOM     11  C   UNL     1      -0.203   9.022  22.665  0.00  0.00    +0.000 A 
ATOM     12  C   UNL     1      -0.799  10.231  23.028  0.00  0.00    +0.000 A 
ATOM     13  C   UNL     1      -0.495  11.418  22.349  0.00  0.00    +0.000 A 
ATOM     14 CL   UNL     1      -1.320  12.835  22.881  0.00  0.00    +0.000 Cl
ATOM     15  C   UNL     1       0.432  11.410  21.302  0.00  0.00    +0.000 A 
ATOM     16  C   UNL     1       1.093  10.189  21.006  0.00  0.00    +0.000 A 
BRANCH  15  17
ATOM     17  C   UNL     1       0.750  12.603  20.437  0.00  0.00    +0.000 C 
ATOM     18  F   UNL     1      -0.296  13.175  19.784  0.00  0.00    +0.000 F 
ATOM     19  F   UNL     1       1.339  13.611  21.137  0.00  0.00    +0.000 F 
ATOM     20  F   UNL     1       1.642  12.277  19.453  0.00  0.00    +0.000 F 
ENDBRANCH  15  17
ENDBRANCH   8  10
ENDBRANCH   5   6
ENDBRANCH   2   5
BRANCH   3  21
ATOM     21  C   UNL     1       3.154   4.647  17.417  0.00  0.00    +0.000 C 
BRANCH  21  22
ATOM     22  C   UNL     1       4.069   3.466  17.055  0.00  0.00    +0.000 C 
ATOM     23  S   UNL     1       5.392   3.962  15.890  0.00  0.00    +0.000 S 
ATOM     24  C   UNL     1       6.288   5.026  17.001  0.00  0.00    +0.000 A 
ATOM     25  C   UNL     1       6.943   6.143  16.481  0.00  0.00    +0.000 A 
ATOM     26  C   UNL     1       7.643   6.997  17.332  0.00  0.00    +0.000 A 
ATOM     27  C   UNL     1       7.703   6.728  18.699  0.00  0.00    +0.000 A 
ATOM     28  C   UNL     1       7.073   5.597  19.221  0.00  0.00    +0.000 A 
ATOM     29  C   UNL     1       6.346   4.759  18.376  0.00  0.00    +0.000 A 
ATOM     30  N   UNL     1       5.677   3.657  18.946  0.00  0.00    +0.000 N 
ATOM     31  C   UNL     1       4.689   2.919  18.338  0.00  0.00    +0.000 C 
ATOM     32  O   UNL     1       4.233   1.935  18.915  0.00  0.00    +0.000 OA
ATOM     33  H   UNL     1       5.922   3.359  19.881  0.00  0.00    +0.000 HD
ENDBRANCH  21  22
ENDBRANCH   3  21
TORSDOF 6
ENDMDL
MODEL 6
REMARK VINA RESULT:      -8.0      5.264      8.673
REMARK  Name = 
REMARK  7 active torsions:
REMARK  status: ('A' for Active; 'I' for Inactive)
REMARK    1  A    between atoms: C_1  and  N_2
REMARK    2  A    between atoms: N_2  and  C_3
REMARK    3  A    between atoms: C_3  and  C_4
REMARK    4  A    between atoms: N_6  and  C_7
REMARK    5  A    between atoms: C_12  and  C_13
REMARK    6  A    between atoms: C_18  and  C_20
REMARK    7  A    between atoms: C_20  and  C_21
REMARK                            x       y       z     vdW  Elec       q    Type
REMARK                         _______ _______ _______ _____ _____    ______ ____
ROOT
ATOM      1  C   UNL     1       0.846   4.561  20.551  0.00  0.00    +0.000 C 
ATOM      2  N   UNL     1       1.837   5.051  19.599  0.00  0.00    +0.000 N 
ATOM      3  C   UNL     1       2.055   4.251  18.479  0.00  0.00    +0.000 C 
ATOM      4  O   UNL     1       1.401   3.224  18.297  0.00  0.00    +0.000 OA
ENDROOT
BRANCH   2   5
ATOM      5  C   UNL     1       2.610   6.243  19.991  0.00  0.00    +0.000 C 
BRANCH   5   6
ATOM      6  C   UNL     1       2.070   7.633  19.601  0.00  0.00    +0.000 C 
ATOM      7  O   UNL     1       2.436   8.163  18.551  0.00  0.00    +0.000 OA
ATOM      8  N   UNL     1       1.187   8.207  20.497  0.00  0.00    +0.000 N 
ATOM      9  H   UNL     1       1.177   7.807  21.426  0.00  0.00    +0.000 HD
BRANCH   8  10
ATOM     10  C   UNL     1       0.639   9.496  20.333  0.00  0.00    +0.000 A 
ATOM     11  C   UNL     1       1.081  10.509  21.180  0.00  0.00    +0.000 A 
ATOM     12  C   UNL     1       0.589  11.807  21.028  0.00  0.00    +0.000 A 
ATOM     13  C   UNL     1      -0.409  12.093  20.088  0.00  0.00    +0.000 A 
ATOM     14 CL   UNL     1      -0.946  13.730  20.020  0.00  0.00    +0.000 Cl
ATOM     15  C   UNL     1      -0.916  11.078  19.271  0.00  0.00    +0.000 A 
ATOM     16  C   UNL     1      -0.341   9.785  19.379  0.00  0.00    +0.000 A 
BRANCH  15  17
ATOM     17  C   UNL     1      -2.063  11.254  18.308  0.00  0.00    +0.000 C 
ATOM     18  F   UNL     1      -3.236  11.692  18.834  0.00  0.00    +0.000 F 
ATOM     19  F   UNL     1      -1.767  12.121  17.301  0.00  0.00    +0.000 F 
ATOM     20  F   UNL     1      -2.373  10.074  17.689  0.00  0.00    +0.000 F 
ENDBRANCH  15  17
ENDBRANCH   8  10
ENDBRANCH   5   6
ENDBRANCH   2   5
BRANCH   3  21
ATOM     21  C   UNL     1       3.150   4.629  17.508  0.00  0.00    +0.000 C 
BRANCH  21  22
ATOM     22  C   UNL     1       4.060   3.440  17.161  0.00  0.00    +0.000 C 
ATOM     23  S   UNL     1       5.360   3.906  15.958  0.00  0.00    +0.000 S 
ATOM     24  C   UNL     1       6.275   5.001  17.022  0.00  0.00    +0.000 A 
ATOM     25  C   UNL     1       6.918   6.105  16.460  0.00  0.00    +0.000 A 
ATOM     26  C   UNL     1       7.632   6.982  17.274  0.00  0.00    +0.000 A 
ATOM     27  C   UNL     1       7.718   6.750  18.646  0.00  0.00    +0.000 A 
ATOM     28  C   UNL     1       7.100   5.633  19.210  0.00  0.00    +0.000 A 
ATOM     29  C   UNL     1       6.359   4.772  18.402  0.00  0.00    +0.000 A 
ATOM     30  N   UNL     1       5.703   3.685  19.014  0.00  0.00    +0.000 N 
ATOM     31  C   UNL     1       4.706   2.929  18.446  0.00  0.00    +0.000 C 
ATOM     32  O   UNL     1       4.262   1.961  19.058  0.00  0.00    +0.000 OA
ATOM     33  H   UNL     1       5.966   3.413  19.953  0.00  0.00    +0.000 HD
ENDBRANCH  21  22
ENDBRANCH   3  21
TORSDOF 6
ENDMDL
MODEL 7
REMARK VINA RESULT:      -7.8      5.271      8.706
REMARK  Name = 
REMARK  7 active torsions:
REMARK  status: ('A' for Active; 'I' for Inactive)
REMARK    1  A    between atoms: C_1  and  N_2
REMARK    2  A    between atoms: N_2  and  C_3
REMARK    3  A    between atoms: C_3  and  C_4
REMARK    4  A    between atoms: N_6  and  C_7
REMARK    5  A    between atoms: C_12  and  C_13
REMARK    6  A    between atoms: C_18  and  C_20
REMARK    7  A    between atoms: C_20  and  C_21
REMARK                            x       y       z     vdW  Elec       q    Type
REMARK                         _______ _______ _______ _____ _____    ______ ____
ROOT
ATOM      1  C   UNL     1       0.806   4.344  20.437  0.00  0.00    +0.000 C 
ATOM      2  N   UNL     1       1.819   4.837  19.510  0.00  0.00    +0.000 N 
ATOM      3  C   UNL     1       2.002   4.084  18.350  0.00  0.00    +0.000 C 
ATOM      4  O   UNL     1       1.303   3.098  18.118  0.00  0.00    +0.000 OA
ENDROOT
BRANCH   2   5
ATOM      5  C   UNL     1       2.646   5.971  19.960  0.00  0.00    +0.000 C 
BRANCH   5   6
ATOM      6  C   UNL     1       2.152   7.402  19.670  0.00  0.00    +0.000 C 
ATOM      7  O   UNL     1       2.564   8.006  18.678  0.00  0.00    +0.000 OA
ATOM      8  N   UNL     1       1.257   7.926  20.584  0.00  0.00    +0.000 N 
ATOM      9  H   UNL     1       1.208   7.452  21.477  0.00  0.00    +0.000 HD
BRANCH   8  10
ATOM     10  C   UNL     1       0.747   9.238  20.511  0.00  0.00    +0.000 A 
ATOM     11  C   UNL     1       1.147  10.039  19.444  0.00  0.00    +0.000 A 
ATOM     12  C   UNL     1       0.637  11.332  19.315  0.00  0.00    +0.000 A 
ATOM     13  C   UNL     1      -0.210  11.873  20.291  0.00  0.00    +0.000 A 
ATOM     14 CL   UNL     1      -0.748  13.488  20.025  0.00  0.00    +0.000 Cl
ATOM     15  C   UNL     1      -0.573  11.111  21.406  0.00  0.00    +0.000 A 
ATOM     16  C   UNL     1      -0.117   9.769  21.474  0.00  0.00    +0.000 A 
BRANCH  15  17
ATOM     17  C   UNL     1      -1.386  11.631  22.565  0.00  0.00    +0.000 C 
ATOM     18  F   UNL     1      -1.650  10.751  23.565  0.00  0.00    +0.000 F 
ATOM     19  F   UNL     1      -0.804  12.705  23.167  0.00  0.00    +0.000 F 
ATOM     20  F   UNL     1      -2.613  12.070  22.150  0.00  0.00    +0.000 F 
ENDBRANCH  15  17
ENDBRANCH   8  10
ENDBRANCH   5   6
ENDBRANCH   2   5
BRANCH   3  21
ATOM     21  C   UNL     1       3.115   4.461  17.398  0.00  0.00    +0.000 C 
BRANCH  21  22
ATOM     22  C   UNL     1       4.059   3.285  17.108  0.00  0.00    +0.000 C 
ATOM     23  S   UNL     1       5.385   3.750  15.933  0.00  0.00    +0.000 S 
ATOM     24  C   UNL     1       6.244   4.890  16.997  0.00  0.00    +0.000 A 
ATOM     25  C   UNL     1       6.880   5.993  16.427  0.00  0.00    +0.000 A 
ATOM     26  C   UNL     1       7.550   6.906  17.240  0.00  0.00    +0.000 A 
ATOM     27  C   UNL     1       7.599   6.709  18.620  0.00  0.00    +0.000 A 
ATOM     28  C   UNL     1       6.989   5.592  19.193  0.00  0.00    +0.000 A 
ATOM     29  C   UNL     1       6.291   4.696  18.385  0.00  0.00    +0.000 A 
ATOM     30  N   UNL     1       5.640   3.610  19.003  0.00  0.00    +0.000 N 
ATOM     31  C   UNL     1       4.676   2.819  18.424  0.00  0.00    +0.000 C 
ATOM     32  O   UNL     1       4.235   1.856  19.047  0.00  0.00    +0.000 OA
ATOM     33  H   UNL     1       5.880   3.366  19.956  0.00  0.00    +0.000 HD
ENDBRANCH  21  22
ENDBRANCH   3  21
TORSDOF 6
ENDMDL
MODEL 8
REMARK VINA RESULT:      -7.5      5.617      8.904
REMARK  Name = 
REMARK  7 active torsions:
REMARK  status: ('A' for Active; 'I' for Inactive)
REMARK    1  A    between atoms: C_1  and  N_2
REMARK    2  A    between atoms: N_2  and  C_3
REMARK    3  A    between atoms: C_3  and  C_4
REMARK    4  A    between atoms: N_6  and  C_7
REMARK    5  A    between atoms: C_12  and  C_13
REMARK    6  A    between atoms: C_18  and  C_20
REMARK    7  A    between atoms: C_20  and  C_21
REMARK                            x       y       z     vdW  Elec       q    Type
REMARK                         _______ _______ _______ _____ _____    ______ ____
ROOT
ATOM      1  C   UNL     1       0.711   4.590  20.336  0.00  0.00    +0.000 C 
ATOM      2  N   UNL     1       1.757   5.040  19.424  0.00  0.00    +0.000 N 
ATOM      3  C   UNL     1       1.936   4.272  18.274  0.00  0.00    +0.000 C 
ATOM      4  O   UNL     1       1.209   3.308  18.037  0.00  0.00    +0.000 OA
ENDROOT
BRANCH   2   5
ATOM      5  C   UNL     1       2.613   6.150  19.880  0.00  0.00    +0.000 C 
BRANCH   5   6
ATOM      6  C   UNL     1       1.984   7.549  20.034  0.00  0.00    +0.000 C 
ATOM      7  O   UNL     1       1.541   7.908  21.125  0.00  0.00    +0.000 OA
ATOM      8  N   UNL     1       1.955   8.324  18.889  0.00  0.00    +0.000 N 
ATOM      9  H   UNL     1       2.095   7.830  18.017  0.00  0.00    +0.000 HD
BRANCH   8  10
ATOM     10  C   UNL     1       1.366   9.604  18.829  0.00  0.00    +0.000 A 
ATOM     11  C   UNL     1      -0.024   9.687  18.826  0.00  0.00    +0.000 A 
ATOM     12  C   UNL     1      -0.646  10.936  18.803  0.00  0.00    +0.000 A 
ATOM     13  C   UNL     1       0.106  12.114  18.698  0.00  0.00    +0.000 A 
ATOM     14 CL   UNL     1      -0.786  13.588  18.655  0.00  0.00    +0.000 Cl
ATOM     15  C   UNL     1       1.501  12.052  18.633  0.00  0.00    +0.000 A 
ATOM     16  C   UNL     1       2.119  10.779  18.747  0.00  0.00    +0.000 A 
BRANCH  15  17
ATOM     17  C   UNL     1       2.397  13.245  18.409  0.00  0.00    +0.000 C 
ATOM     18  F   UNL     1       3.712  12.984  18.191  0.00  0.00    +0.000 F 
ATOM     19  F   UNL     1       1.994  14.005  17.354  0.00  0.00    +0.000 F 
ATOM     20  F   UNL     1       2.378  14.085  19.488  0.00  0.00    +0.000 F 
ENDBRANCH  15  17
ENDBRANCH   8  10
ENDBRANCH   5   6
ENDBRANCH   2   5
BRANCH   3  21
ATOM     21  C   UNL     1       3.079   4.603  17.340  0.00  0.00    +0.000 C 
BRANCH  21  22
ATOM     22  C   UNL     1       3.982   3.390  17.068  0.00  0.00    +0.000 C 
ATOM     23  S   UNL     1       5.350   3.804  15.923  0.00  0.00    +0.000 S 
ATOM     24  C   UNL     1       6.230   4.907  17.008  0.00  0.00    +0.000 A 
ATOM     25  C   UNL     1       6.922   5.984  16.453  0.00  0.00    +0.000 A 
ATOM     26  C   UNL     1       7.611   6.868  17.283  0.00  0.00    +0.000 A 
ATOM     27  C   UNL     1       7.622   6.668  18.663  0.00  0.00    +0.000 A 
ATOM     28  C   UNL     1       6.955   5.576  19.220  0.00  0.00    +0.000 A 
ATOM     29  C   UNL     1       6.240   4.709  18.395  0.00  0.00    +0.000 A 
ATOM     30  N   UNL     1       5.533   3.649  18.998  0.00  0.00    +0.000 N 
ATOM     31  C   UNL     1       4.551   2.899  18.396  0.00  0.00    +0.000 C 
ATOM     32  O   UNL     1       4.058   1.953  19.007  0.00  0.00    +0.000 OA
ATOM     33  H   UNL     1       5.742   3.395  19.955  0.00  0.00    +0.000 HD
ENDBRANCH  21  22
ENDBRANCH   3  21
TORSDOF 6
ENDMDL
MODEL 9
REMARK VINA RESULT:      -7.4      2.134      3.022
REMARK  Name = 
REMARK  7 active torsions:
REMARK  status: ('A' for Active; 'I' for Inactive)
REMARK    1  A    between atoms: C_1  and  N_2
REMARK    2  A    between atoms: N_2  and  C_3
REMARK    3  A    between atoms: C_3  and  C_4
REMARK    4  A    between atoms: N_6  and  C_7
REMARK    5  A    between atoms: C_12  and  C_13
REMARK    6  A    between atoms: C_18  and  C_20
REMARK    7  A    between atoms: C_20  and  C_21
REMARK                            x       y       z     vdW  Elec       q    Type
REMARK                         _______ _______ _______ _____ _____    ______ ____
ROOT
ATOM      1  C   UNL     1      -1.182   9.904  18.790  0.00  0.00    +0.000 C 
ATOM      2  N   UNL     1      -0.234  11.012  18.834  0.00  0.00    +0.000 N 
ATOM      3  C   UNL     1      -0.755  12.272  18.540  0.00  0.00    +0.000 C 
ATOM      4  O   UNL     1      -1.955  12.424  18.313  0.00  0.00    +0.000 OA
ENDROOT
BRANCH   2   5
ATOM      5  C   UNL     1       1.187  10.672  19.024  0.00  0.00    +0.000 C 
BRANCH   5   6
ATOM      6  C   UNL     1       1.723   9.369  18.398  0.00  0.00    +0.000 C 
ATOM      7  O   UNL     1       1.874   9.288  17.179  0.00  0.00    +0.000 OA
ATOM      8  N   UNL     1       1.994   8.345  19.286  0.00  0.00    +0.000 N 
ATOM      9  H   UNL     1       1.581   8.434  20.206  0.00  0.00    +0.000 HD
BRANCH   8  10
ATOM     10  C   UNL     1       2.434   7.065  18.889  0.00  0.00    +0.000 A 
ATOM     11  C   UNL     1       3.453   6.986  17.943  0.00  0.00    +0.000 A 
ATOM     12  C   UNL     1       3.942   5.739  17.549  0.00  0.00    +0.000 A 
ATOM     13  C   UNL     1       3.365   4.556  18.028  0.00  0.00    +0.000 A 
ATOM     14 CL   UNL     1       4.045   3.084  17.443  0.00  0.00    +0.000 Cl
ATOM     15  C   UNL     1       2.296   4.609  18.928  0.00  0.00    +0.000 A 
ATOM     16  C   UNL     1       1.872   5.884  19.385  0.00  0.00    +0.000 A 
BRANCH  15  17
ATOM     17  C   UNL     1       1.534   3.404  19.418  0.00  0.00    +0.000 C 
ATOM     18  F   UNL     1       0.546   3.636  20.321  0.00  0.00    +0.000 F 
ATOM     19  F   UNL     1       0.946   2.713  18.402  0.00  0.00    +0.000 F 
ATOM     20  F   UNL     1       2.367   2.508  20.029  0.00  0.00    +0.000 F 
ENDBRANCH  15  17
ENDBRANCH   8  10
ENDBRANCH   5   6
ENDBRANCH   2   5
BRANCH   3  21
ATOM     21  C   UNL     1       0.186  13.452  18.448  0.00  0.00    +0.000 C 
BRANCH  21  22
ATOM     22  C   UNL     1       0.367  14.164  19.797  0.00  0.00    +0.000 C 
ATOM     23  S   UNL     1       1.776  15.333  19.767  0.00  0.00    +0.000 S 
ATOM     24  C   UNL     1       1.078  16.503  18.622  0.00  0.00    +0.000 A 
ATOM     25  C   UNL     1       1.931  17.186  17.754  0.00  0.00    +0.000 A 
ATOM     26  C   UNL     1       1.407  18.100  16.842  0.00  0.00    +0.000 A 
ATOM     27  C   UNL     1       0.034  18.345  16.806  0.00  0.00    +0.000 A 
ATOM     28  C   UNL     1      -0.820  17.686  17.691  0.00  0.00    +0.000 A 
ATOM     29  C   UNL     1      -0.302  16.748  18.583  0.00  0.00    +0.000 A 
ATOM     30  N   UNL     1      -1.201  16.061  19.423  0.00  0.00    +0.000 N 
ATOM     31  C   UNL     1      -0.920  14.915  20.128  0.00  0.00    +0.000 C 
ATOM     32  O   UNL     1      -1.771  14.451  20.884  0.00  0.00    +0.000 OA
ATOM     33  H   UNL     1      -2.141  16.416  19.537  0.00  0.00    +0.000 HD
ENDBRANCH  21  22
ENDBRANCH   3  21
TORSDOF 6
ENDMDL
