MODEL 1
REMARK VINA RESULT:      -8.4      0.000      0.000
REMARK  Name = 
REMARK  7 active torsions:
REMARK  status: ('A' for Active; 'I' for Inactive)
REMARK    1  A    between atoms: C_2  and  C_3
REMARK    2  A    between atoms: C_5  and  C_6
REMARK    3  A    between atoms: C_6  and  N_7
REMARK    4  A    between atoms: C_9  and  C_10
REMARK    5  A    between atoms: C_10  and  O_12
REMARK    6  A    between atoms: C_14  and  C_15
REMARK    7  A    between atoms: C_18  and  C_19
REMARK                            x       y       z     vdW  Elec       q    Type
REMARK                         _______ _______ _______ _____ _____    ______ ____
ROOT
ATOM      1  C   UNL     1       5.419   4.875  15.825  0.00  0.00    +0.000 A 
ATOM      2  C   UNL     1       4.519   3.893  16.439  0.00  0.00    +0.000 A 
ATOM      3  C   UNL     1       3.515   4.285  17.250  0.00  0.00    +0.000 A 
ATOM      4  N   UNL     1       3.368   5.651  17.531  0.00  0.00    +0.000 N 
ATOM      5  N   UNL     1       2.448   6.224  18.345  0.00  0.00    +0.000 NA
ATOM      6  C   UNL     1       2.652   7.547  18.259  0.00  0.00    +0.000 A 
ATOM      7  C   UNL     1       3.773   7.831  17.441  0.00  0.00    +0.000 A 
ATOM      8  C   UNL     1       4.212   6.612  16.985  0.00  0.00    +0.000 A 
ATOM      9  C   UNL     1       5.259   6.187  16.120  0.00  0.00    +0.000 A 
ENDROOT
BRANCH   6  10
ATOM     10  C   UNL     1       1.769   8.492  18.943  0.00  0.00    +0.000 A 
ATOM     11  C   UNL     1       1.492   8.342  20.310  0.00  0.00    +0.000 A 
ATOM     12  C   UNL     1       0.608   9.208  20.958  0.00  0.00    +0.000 A 
ATOM     13  C   UNL     1      -0.011  10.232  20.245  0.00  0.00    +0.000 A 
ATOM     14  C   UNL     1       0.261  10.398  18.888  0.00  0.00    +0.000 A 
ATOM     15  C   UNL     1       1.150   9.536  18.240  0.00  0.00    +0.000 A 
ENDBRANCH   6  10
BRANCH   1  17
ATOM     16  C   UNL     1       6.305   3.978  13.698  0.00  0.00    +0.000 C 
ATOM     17  C   UNL     1       6.489   4.444  14.939  0.00  0.00    +0.000 C 
ENDBRANCH   1  17
BRANCH   3  18
ATOM     18  C   UNL     1       2.542   3.321  17.870  0.00  0.00    +0.000 C 
BRANCH  18  19
ATOM     19  N   UNL     1       2.998   2.844  19.176  0.00  0.00    +0.000 N 
ATOM     20  N   UNL     1       4.164   2.148  19.248  0.00  0.00    +0.000 NA
ATOM     21  C   UNL     1       4.252   1.794  20.547  0.00  0.00    +0.000 A 
ATOM     22  C   UNL     1       3.193   2.340  21.302  0.00  0.00    +0.000 A 
ATOM     23  C   UNL     1       2.415   3.039  20.404  0.00  0.00    +0.000 A 
ATOM     24  C   UNL     1       1.182   3.833  20.627  0.00  0.00    +0.000 C 
BRANCH  21  25
ATOM     25  C   UNL     1       5.358   0.952  21.010  0.00  0.00    +0.000 C 
ATOM     26  O   UNL     1       5.936   1.086  22.079  0.00  0.00    +0.000 OA
BRANCH  25  27
ATOM     27  O   UNL     1       5.678  -0.018  20.109  0.00  0.00    +0.000 OA
ATOM     28  H   UNL     1       6.152   0.446  19.379  0.00  0.00    +0.000 HD
ENDBRANCH  25  27
ENDBRANCH  21  25
ENDBRANCH  18  19
ENDBRANCH   3  18
TORSDOF 6
ENDMDL
MODEL 2
REMARK VINA RESULT:      -7.9      2.826      4.918
REMARK  Name = 
REMARK  7 active torsions:
REMARK  status: ('A' for Active; 'I' for Inactive)
REMARK    1  A    between atoms: C_2  and  C_3
REMARK    2  A    between atoms: C_5  and  C_6
REMARK    3  A    between atoms: C_6  and  N_7
REMARK    4  A    between atoms: C_9  and  C_10
REMARK    5  A    between atoms: C_10  and  O_12
REMARK    6  A    between atoms: C_14  and  C_15
REMARK    7  A    between atoms: C_18  and  C_19
REMARK                            x       y       z     vdW  Elec       q    Type
REMARK                         _______ _______ _______ _____ _____    ______ ____
ROOT
ATOM      1  C   UNL     1       2.929   3.486  19.291  0.00  0.00    +0.000 A 
ATOM      2  C   UNL     1       3.726   4.376  18.442  0.00  0.00    +0.000 A 
ATOM      3  C   UNL     1       3.573   5.716  18.506  0.00  0.00    +0.000 A 
ATOM      4  N   UNL     1       2.606   6.244  19.373  0.00  0.00    +0.000 N 
ATOM      5  N   UNL     1       2.287   7.551  19.544  0.00  0.00    +0.000 NA
ATOM      6  C   UNL     1       1.357   7.581  20.510  0.00  0.00    +0.000 A 
ATOM      7  C   UNL     1       1.007   6.268  20.913  0.00  0.00    +0.000 A 
ATOM      8  C   UNL     1       1.816   5.433  20.180  0.00  0.00    +0.000 A 
ATOM      9  C   UNL     1       1.996   4.023  20.114  0.00  0.00    +0.000 A 
ENDROOT
BRANCH   6  10
ATOM     10  C   UNL     1       0.844   8.851  21.024  0.00  0.00    +0.000 A 
ATOM     11  C   UNL     1       0.289   8.922  22.311  0.00  0.00    +0.000 A 
ATOM     12  C   UNL     1      -0.252  10.119  22.788  0.00  0.00    +0.000 A 
ATOM     13  C   UNL     1      -0.245  11.256  21.984  0.00  0.00    +0.000 A 
ATOM     14  C   UNL     1       0.311  11.202  20.707  0.00  0.00    +0.000 A 
ATOM     15  C   UNL     1       0.857  10.006  20.230  0.00  0.00    +0.000 A 
ENDBRANCH   6  10
BRANCH   1  17
ATOM     16  C   UNL     1       3.689   1.398  18.208  0.00  0.00    +0.000 C 
ATOM     17  C   UNL     1       3.112   2.045  19.227  0.00  0.00    +0.000 C 
ENDBRANCH   1  17
BRANCH   3  18
ATOM     18  C   UNL     1       4.394   6.672  17.687  0.00  0.00    +0.000 C 
BRANCH  18  19
ATOM     19  N   UNL     1       5.517   6.005  17.027  0.00  0.00    +0.000 N 
ATOM     20  N   UNL     1       5.469   5.819  15.681  0.00  0.00    +0.000 NA
ATOM     21  C   UNL     1       6.593   5.123  15.408  0.00  0.00    +0.000 A 
ATOM     22  C   UNL     1       7.384   4.950  16.564  0.00  0.00    +0.000 A 
ATOM     23  C   UNL     1       6.687   5.554  17.588  0.00  0.00    +0.000 A 
ATOM     24  C   UNL     1       7.039   5.703  19.022  0.00  0.00    +0.000 C 
BRANCH  21  25
ATOM     25  C   UNL     1       6.863   4.660  14.045  0.00  0.00    +0.000 C 
ATOM     26  O   UNL     1       7.524   5.273  13.219  0.00  0.00    +0.000 OA
BRANCH  25  27
ATOM     27  O   UNL     1       6.291   3.451  13.790  0.00  0.00    +0.000 OA
ATOM     28  H   UNL     1       6.684   3.148  12.937  0.00  0.00    +0.000 HD
ENDBRANCH  25  27
ENDBRANCH  21  25
ENDBRANCH  18  19
ENDBRANCH   3  18
TORSDOF 6
ENDMDL
MODEL 3
REMARK VINA RESULT:      -7.9      2.752      5.051
REMARK  Name = 
REMARK  7 active torsions:
REMARK  status: ('A' for Active; 'I' for Inactive)
REMARK    1  A    between atoms: C_2  and  C_3
REMARK    2  A    between atoms: C_5  and  C_6
REMARK    3  A    between atoms: C_6  and  N_7
REMARK    4  A    between atoms: C_9  and  C_10
REMARK    5  A    between atoms: C_10  and  O_12
REMARK    6  A    between atoms: C_14  and  C_15
REMARK    7  A    between atoms: C_18  and  C_19
REMARK                            x       y       z     vdW  Elec       q    Type
REMARK                         _______ _______ _______ _____ _____    ______ ____
ROOT
ATOM      1  C   UNL     1       3.470   3.576  19.360  0.00  0.00    +0.000 A 
ATOM      2  C   UNL     1       4.089   4.444  18.353  0.00  0.00    +0.000 A 
ATOM      3  C   UNL     1       3.795   5.760  18.298  0.00  0.00    +0.000 A 
ATOM      4  N   UNL     1       2.855   6.280  19.199  0.00  0.00    +0.000 N 
ATOM      5  N   UNL     1       2.410   7.559  19.270  0.00  0.00    +0.000 NA
ATOM      6  C   UNL     1       1.569   7.600  20.314  0.00  0.00    +0.000 A 
ATOM      7  C   UNL     1       1.402   6.311  20.877  0.00  0.00    +0.000 A 
ATOM      8  C   UNL     1       2.231   5.487  20.156  0.00  0.00    +0.000 A 
ATOM      9  C   UNL     1       2.559   4.103  20.212  0.00  0.00    +0.000 A 
ENDROOT
BRANCH   6  10
ATOM     10  C   UNL     1       0.966   8.861  20.747  0.00  0.00    +0.000 A 
ATOM     11  C   UNL     1       0.915   9.959  19.874  0.00  0.00    +0.000 A 
ATOM     12  C   UNL     1       0.390  11.183  20.298  0.00  0.00    +0.000 A 
ATOM     13  C   UNL     1      -0.087  11.322  21.599  0.00  0.00    +0.000 A 
ATOM     14  C   UNL     1      -0.051  10.237  22.474  0.00  0.00    +0.000 A 
ATOM     15  C   UNL     1       0.469   9.011  22.049  0.00  0.00    +0.000 A 
ENDBRANCH   6  10
BRANCH   1  17
ATOM     16  C   UNL     1       3.709   1.314  18.390  0.00  0.00    +0.000 C 
ATOM     17  C   UNL     1       3.804   2.162  19.422  0.00  0.00    +0.000 C 
ENDBRANCH   1  17
BRANCH   3  18
ATOM     18  C   UNL     1       4.433   6.698  17.313  0.00  0.00    +0.000 C 
BRANCH  18  19
ATOM     19  N   UNL     1       5.550   6.074  16.603  0.00  0.00    +0.000 N 
ATOM     20  N   UNL     1       5.347   5.612  15.340  0.00  0.00    +0.000 NA
ATOM     21  C   UNL     1       6.523   5.038  15.011  0.00  0.00    +0.000 A 
ATOM     22  C   UNL     1       7.485   5.217  16.027  0.00  0.00    +0.000 A 
ATOM     23  C   UNL     1       6.845   5.914  17.029  0.00  0.00    +0.000 A 
ATOM     24  C   UNL     1       7.363   6.400  18.332  0.00  0.00    +0.000 C 
BRANCH  21  25
ATOM     25  C   UNL     1       6.675   4.349  13.727  0.00  0.00    +0.000 C 
ATOM     26  O   UNL     1       7.281   4.795  12.764  0.00  0.00    +0.000 OA
BRANCH  25  27
ATOM     27  O   UNL     1       6.060   3.134  13.720  0.00  0.00    +0.000 OA
ATOM     28  H   UNL     1       5.723   3.014  12.801  0.00  0.00    +0.000 HD
ENDBRANCH  25  27
ENDBRANCH  21  25
ENDBRANCH  18  19
ENDBRANCH   3  18
TORSDOF 6
ENDMDL
MODEL 4
REMARK VINA RESULT:      -7.5      2.608      4.949
REMARK  Name = 
REMARK  7 active torsions:
REMARK  status: ('A' for Active; 'I' for Inactive)
REMARK    1  A    between atoms: C_2  and  C_3
REMARK    2  A    between atoms: C_5  and  C_6
REMARK    3  A    between atoms: C_6  and  N_7
REMARK    4  A    between atoms: C_9  and  C_10
REMARK    5  A    between atoms: C_10  and  O_12
REMARK    6  A    between atoms: C_14  and  C_15
REMARK    7  A    between atoms: C_18  and  C_19
REMARK                            x       y       z     vdW  Elec       q    Type
REMARK                         _______ _______ _______ _____ _____    ______ ____
ROOT
ATOM      1  C   UNL     1       2.181   5.026  20.608  0.00  0.00    +0.000 A 
ATOM      2  C   UNL     1       2.895   5.035  19.328  0.00  0.00    +0.000 A 
ATOM      3  C   UNL     1       2.958   6.155  18.577  0.00  0.00    +0.000 A 
ATOM      4  N   UNL     1       2.293   7.306  19.025  0.00  0.00    +0.000 N 
ATOM      5  N   UNL     1       2.215   8.503  18.393  0.00  0.00    +0.000 NA
ATOM      6  C   UNL     1       1.534   9.312  19.218  0.00  0.00    +0.000 A 
ATOM      7  C   UNL     1       1.092   8.606  20.364  0.00  0.00    +0.000 A 
ATOM      8  C   UNL     1       1.589   7.333  20.223  0.00  0.00    +0.000 A 
ATOM      9  C   UNL     1       1.541   6.150  21.012  0.00  0.00    +0.000 A 
ENDROOT
BRANCH   6  10
ATOM     10  C   UNL     1       1.339  10.726  18.896  0.00  0.00    +0.000 A 
ATOM     11  C   UNL     1       2.363  11.460  18.276  0.00  0.00    +0.000 A 
ATOM     12  C   UNL     1       2.204  12.823  18.015  0.00  0.00    +0.000 A 
ATOM     13  C   UNL     1       1.023  13.468  18.373  0.00  0.00    +0.000 A 
ATOM     14  C   UNL     1      -0.005  12.750  18.981  0.00  0.00    +0.000 A 
ATOM     15  C   UNL     1       0.150  11.385  19.238  0.00  0.00    +0.000 A 
ENDBRANCH   6  10
BRANCH   1  17
ATOM     16  C   UNL     1       1.442   2.717  21.097  0.00  0.00    +0.000 C 
ATOM     17  C   UNL     1       2.131   3.819  21.418  0.00  0.00    +0.000 C 
ENDBRANCH   1  17
BRANCH   3  18
ATOM     18  C   UNL     1       3.711   6.226  17.279  0.00  0.00    +0.000 C 
BRANCH  18  19
ATOM     19  N   UNL     1       5.094   5.771  17.420  0.00  0.00    +0.000 N 
ATOM     20  N   UNL     1       5.801   6.156  18.515  0.00  0.00    +0.000 NA
ATOM     21  C   UNL     1       7.033   5.646  18.304  0.00  0.00    +0.000 A 
ATOM     22  C   UNL     1       7.073   4.870  17.126  0.00  0.00    +0.000 A 
ATOM     23  C   UNL     1       5.805   4.939  16.590  0.00  0.00    +0.000 A 
ATOM     24  C   UNL     1       5.252   4.305  15.367  0.00  0.00    +0.000 C 
BRANCH  21  25
ATOM     25  C   UNL     1       8.118   5.918  19.250  0.00  0.00    +0.000 C 
ATOM     26  O   UNL     1       8.547   5.117  20.068  0.00  0.00    +0.000 OA
BRANCH  25  27
ATOM     27  O   UNL     1       8.611   7.181  19.118  0.00  0.00    +0.000 OA
ATOM     28  H   UNL     1       8.463   7.425  18.174  0.00  0.00    +0.000 HD
ENDBRANCH  25  27
ENDBRANCH  21  25
ENDBRANCH  18  19
ENDBRANCH   3  18
TORSDOF 6
ENDMDL
MODEL 5
REMARK VINA RESULT:      -7.4      6.674      9.538
REMARK  Name = 
REMARK  7 active torsions:
REMARK  status: ('A' for Active; 'I' for Inactive)
REMARK    1  A    between atoms: C_2  and  C_3
REMARK    2  A    between atoms: C_5  and  C_6
REMARK    3  A    between atoms: C_6  and  N_7
REMARK    4  A    between atoms: C_9  and  C_10
REMARK    5  A    between atoms: C_10  and  O_12
REMARK    6  A    between atoms: C_14  and  C_15
REMARK    7  A    between atoms: C_18  and  C_19
REMARK                            x       y       z     vdW  Elec       q    Type
REMARK                         _______ _______ _______ _____ _____    ______ ____
ROOT
ATOM      1  C   UNL     1      -3.159  10.643  15.976  0.00  0.00    +0.000 A 
ATOM      2  C   UNL     1      -1.973  11.125  16.691  0.00  0.00    +0.000 A 
ATOM      3  C   UNL     1      -2.078  11.664  17.924  0.00  0.00    +0.000 A 
ATOM      4  N   UNL     1      -3.351  11.793  18.498  0.00  0.00    +0.000 N 
ATOM      5  N   UNL     1      -3.654  12.338  19.702  0.00  0.00    +0.000 NA
ATOM      6  C   UNL     1      -4.978  12.190  19.851  0.00  0.00    +0.000 A 
ATOM      7  C   UNL     1      -5.555  11.614  18.692  0.00  0.00    +0.000 A 
ATOM      8  C   UNL     1      -4.502  11.367  17.845  0.00  0.00    +0.000 A 
ATOM      9  C   UNL     1      -4.377  10.788  16.551  0.00  0.00    +0.000 A 
ENDROOT
BRANCH   6  10
ATOM     10  C   UNL     1      -5.646  12.585  21.092  0.00  0.00    +0.000 A 
ATOM     11  C   UNL     1      -4.928  13.236  22.107  0.00  0.00    +0.000 A 
ATOM     12  C   UNL     1      -5.545  13.568  23.316  0.00  0.00    +0.000 A 
ATOM     13  C   UNL     1      -6.885  13.252  23.523  0.00  0.00    +0.000 A 
ATOM     14  C   UNL     1      -7.613  12.614  22.520  0.00  0.00    +0.000 A 
ATOM     15  C   UNL     1      -6.999  12.286  21.308  0.00  0.00    +0.000 A 
ENDBRANCH   6  10
BRANCH   1  17
ATOM     16  C   UNL     1      -3.987  10.082  13.715  0.00  0.00    +0.000 C 
ATOM     17  C   UNL     1      -3.034  10.049  14.654  0.00  0.00    +0.000 C 
ENDBRANCH   1  17
BRANCH   3  18
ATOM     18  C   UNL     1      -0.889  12.135  18.713  0.00  0.00    +0.000 C 
BRANCH  18  19
ATOM     19  N   UNL     1      -0.407  11.112  19.642  0.00  0.00    +0.000 N 
ATOM     20  N   UNL     1      -0.792  11.177  20.945  0.00  0.00    +0.000 NA
ATOM     21  C   UNL     1      -0.125  10.162  21.532  0.00  0.00    +0.000 A 
ATOM     22  C   UNL     1       0.605   9.410  20.587  0.00  0.00    +0.000 A 
ATOM     23  C   UNL     1       0.383  10.022  19.372  0.00  0.00    +0.000 A 
ATOM     24  C   UNL     1       0.877   9.662  18.020  0.00  0.00    +0.000 C 
BRANCH  21  25
ATOM     25  C   UNL     1      -0.225   9.951  22.978  0.00  0.00    +0.000 C 
ATOM     26  O   UNL     1       0.697   9.589  23.695  0.00  0.00    +0.000 OA
BRANCH  25  27
ATOM     27  O   UNL     1      -1.476  10.207  23.451  0.00  0.00    +0.000 OA
ATOM     28  H   UNL     1      -1.664   9.492  24.104  0.00  0.00    +0.000 HD
ENDBRANCH  25  27
ENDBRANCH  21  25
ENDBRANCH  18  19
ENDBRANCH   3  18
TORSDOF 6
ENDMDL
MODEL 6
REMARK VINA RESULT:      -7.4      4.823      9.049
REMARK  Name = 
REMARK  7 active torsions:
REMARK  status: ('A' for Active; 'I' for Inactive)
REMARK    1  A    between atoms: C_2  and  C_3
REMARK    2  A    between atoms: C_5  and  C_6
REMARK    3  A    between atoms: C_6  and  N_7
REMARK    4  A    between atoms: C_9  and  C_10
REMARK    5  A    between atoms: C_10  and  O_12
REMARK    6  A    between atoms: C_14  and  C_15
REMARK    7  A    between atoms: C_18  and  C_19
REMARK                            x       y       z     vdW  Elec       q    Type
REMARK                         _______ _______ _______ _____ _____    ______ ____
ROOT
ATOM      1  C   UNL     1       0.536   8.643  21.592  0.00  0.00    +0.000 A 
ATOM      2  C   UNL     1       0.506   9.636  20.514  0.00  0.00    +0.000 A 
ATOM      3  C   UNL     1       1.158   9.419  19.352  0.00  0.00    +0.000 A 
ATOM      4  N   UNL     1       1.902   8.239  19.206  0.00  0.00    +0.000 N 
ATOM      5  N   UNL     1       2.645   7.868  18.135  0.00  0.00    +0.000 NA
ATOM      6  C   UNL     1       3.123   6.648  18.422  0.00  0.00    +0.000 A 
ATOM      7  C   UNL     1       2.752   6.257  19.732  0.00  0.00    +0.000 A 
ATOM      8  C   UNL     1       1.973   7.282  20.212  0.00  0.00    +0.000 A 
ATOM      9  C   UNL     1       1.270   7.516  21.427  0.00  0.00    +0.000 A 
ENDROOT
BRANCH   6  10
ATOM     10  C   UNL     1       3.901   5.893  17.439  0.00  0.00    +0.000 A 
ATOM     11  C   UNL     1       3.846   4.491  17.417  0.00  0.00    +0.000 A 
ATOM     12  C   UNL     1       4.627   3.761  16.518  0.00  0.00    +0.000 A 
ATOM     13  C   UNL     1       5.473   4.425  15.632  0.00  0.00    +0.000 A 
ATOM     14  C   UNL     1       5.531   5.818  15.637  0.00  0.00    +0.000 A 
ATOM     15  C   UNL     1       4.746   6.549  16.533  0.00  0.00    +0.000 A 
ENDBRANCH   6  10
BRANCH   1  17
ATOM     16  C   UNL     1      -0.615  10.077  23.245  0.00  0.00    +0.000 C 
ATOM     17  C   UNL     1      -0.182   8.879  22.834  0.00  0.00    +0.000 C 
ENDBRANCH   1  17
BRANCH   3  18
ATOM     18  C   UNL     1       1.123  10.386  18.203  0.00  0.00    +0.000 C 
BRANCH  18  19
ATOM     19  N   UNL     1      -0.123  11.153  18.168  0.00  0.00    +0.000 N 
ATOM     20  N   UNL     1      -1.236  10.570  17.649  0.00  0.00    +0.000 NA
ATOM     21  C   UNL     1      -2.165  11.548  17.691  0.00  0.00    +0.000 A 
ATOM     22  C   UNL     1      -1.661  12.710  18.313  0.00  0.00    +0.000 A 
ATOM     23  C   UNL     1      -0.354  12.422  18.641  0.00  0.00    +0.000 A 
ATOM     24  C   UNL     1       0.662  13.256  19.330  0.00  0.00    +0.000 C 
BRANCH  21  25
ATOM     25  C   UNL     1      -3.502  11.321  17.137  0.00  0.00    +0.000 C 
ATOM     26  O   UNL     1      -4.473  10.960  17.786  0.00  0.00    +0.000 OA
BRANCH  25  27
ATOM     27  O   UNL     1      -3.552  11.562  15.798  0.00  0.00    +0.000 OA
ATOM     28  H   UNL     1      -2.708  11.206  15.433  0.00  0.00    +0.000 HD
ENDBRANCH  25  27
ENDBRANCH  21  25
ENDBRANCH  18  19
ENDBRANCH   3  18
TORSDOF 6
ENDMDL
MODEL 7
REMARK VINA RESULT:      -7.4      4.695      9.060
REMARK  Name = 
REMARK  7 active torsions:
REMARK  status: ('A' for Active; 'I' for Inactive)
REMARK    1  A    between atoms: C_2  and  C_3
REMARK    2  A    between atoms: C_5  and  C_6
REMARK    3  A    between atoms: C_6  and  N_7
REMARK    4  A    between atoms: C_9  and  C_10
REMARK    5  A    between atoms: C_10  and  O_12
REMARK    6  A    between atoms: C_14  and  C_15
REMARK    7  A    between atoms: C_18  and  C_19
REMARK                            x       y       z     vdW  Elec       q    Type
REMARK                         _______ _______ _______ _____ _____    ______ ____
ROOT
ATOM      1  C   UNL     1       0.288   9.218  21.932  0.00  0.00    +0.000 A 
ATOM      2  C   UNL     1       0.250  10.150  20.801  0.00  0.00    +0.000 A 
ATOM      3  C   UNL     1       0.861   9.851  19.635  0.00  0.00    +0.000 A 
ATOM      4  N   UNL     1       1.570   8.645  19.535  0.00  0.00    +0.000 N 
ATOM      5  N   UNL     1       2.271   8.195  18.465  0.00  0.00    +0.000 NA
ATOM      6  C   UNL     1       2.725   6.980  18.806  0.00  0.00    +0.000 A 
ATOM      7  C   UNL     1       2.384   6.673  20.146  0.00  0.00    +0.000 A 
ATOM      8  C   UNL     1       1.646   7.743  20.590  0.00  0.00    +0.000 A 
ATOM      9  C   UNL     1       0.987   8.064  21.810  0.00  0.00    +0.000 A 
ENDROOT
BRANCH   6  10
ATOM     10  C   UNL     1       3.453   6.151  17.845  0.00  0.00    +0.000 A 
ATOM     11  C   UNL     1       3.211   4.770  17.775  0.00  0.00    +0.000 A 
ATOM     12  C   UNL     1       3.941   3.963  16.898  0.00  0.00    +0.000 A 
ATOM     13  C   UNL     1       4.921   4.527  16.085  0.00  0.00    +0.000 A 
ATOM     14  C   UNL     1       5.165   5.898  16.138  0.00  0.00    +0.000 A 
ATOM     15  C   UNL     1       4.433   6.707  17.011  0.00  0.00    +0.000 A 
ENDBRANCH   6  10
BRANCH   1  17
ATOM     16  C   UNL     1      -1.271  10.536  23.328  0.00  0.00    +0.000 C 
ATOM     17  C   UNL     1      -0.386   9.542  23.179  0.00  0.00    +0.000 C 
ENDBRANCH   1  17
BRANCH   3  18
ATOM     18  C   UNL     1       0.817  10.754  18.435  0.00  0.00    +0.000 C 
BRANCH  18  19
ATOM     19  N   UNL     1      -0.554  11.098  18.057  0.00  0.00    +0.000 N 
ATOM     20  N   UNL     1      -1.241  10.251  17.245  0.00  0.00    +0.000 NA
ATOM     21  C   UNL     1      -2.413  10.885  17.030  0.00  0.00    +0.000 A 
ATOM     22  C   UNL     1      -2.494  12.082  17.773  0.00  0.00    +0.000 A 
ATOM     23  C   UNL     1      -1.299  12.182  18.452  0.00  0.00    +0.000 A 
ATOM     24  C   UNL     1      -0.826  13.221  19.400  0.00  0.00    +0.000 C 
BRANCH  21  25
ATOM     25  C   UNL     1      -3.409  10.309  16.124  0.00  0.00    +0.000 C 
ATOM     26  O   UNL     1      -3.176   9.447  15.288  0.00  0.00    +0.000 OA
BRANCH  25  27
ATOM     27  O   UNL     1      -4.647  10.842  16.314  0.00  0.00    +0.000 OA
ATOM     28  H   UNL     1      -5.016  10.380  17.104  0.00  0.00    +0.000 HD
ENDBRANCH  25  27
ENDBRANCH  21  25
ENDBRANCH  18  19
ENDBRANCH   3  18
TORSDOF 6
ENDMDL
MODEL 8
REMARK VINA RESULT:      -7.4      4.669      9.118
REMARK  Name = 
REMARK  7 active torsions:
REMARK  status: ('A' for Active; 'I' for Inactive)
REMARK    1  A    between atoms: C_2  and  C_3
REMARK    2  A    between atoms: C_5  and  C_6
REMARK    3  A    between atoms: C_6  and  N_7
REMARK    4  A    between atoms: C_9  and  C_10
REMARK    5  A    between atoms: C_10  and  O_12
REMARK    6  A    between atoms: C_14  and  C_15
REMARK    7  A    between atoms: C_18  and  C_19
REMARK                            x       y       z     vdW  Elec       q    Type
REMARK                         _______ _______ _______ _____ _____    ______ ____
ROOT
ATOM      1  C   UNL     1       0.361   9.085  21.592  0.00  0.00    +0.000 A 
ATOM      2  C   UNL     1       0.375  10.025  20.468  0.00  0.00    +0.000 A 
ATOM      3  C   UNL     1       1.046   9.737  19.332  0.00  0.00    +0.000 A 
ATOM      4  N   UNL     1       1.765   8.535  19.259  0.00  0.00    +0.000 N 
ATOM      5  N   UNL     1       2.521   8.096  18.224  0.00  0.00    +0.000 NA
ATOM      6  C   UNL     1       2.964   6.881  18.579  0.00  0.00    +0.000 A 
ATOM      7  C   UNL     1       2.557   6.562  19.898  0.00  0.00    +0.000 A 
ATOM      8  C   UNL     1       1.793   7.626  20.311  0.00  0.00    +0.000 A 
ATOM      9  C   UNL     1       1.071   7.935  21.498  0.00  0.00    +0.000 A 
ENDROOT
BRANCH   6  10
ATOM     10  C   UNL     1       3.744   6.062  17.650  0.00  0.00    +0.000 A 
ATOM     11  C   UNL     1       4.644   6.664  16.758  0.00  0.00    +0.000 A 
ATOM     12  C   UNL     1       5.352   5.893  15.832  0.00  0.00    +0.000 A 
ATOM     13  C   UNL     1       5.166   4.514  15.787  0.00  0.00    +0.000 A 
ATOM     14  C   UNL     1       4.282   3.902  16.674  0.00  0.00    +0.000 A 
ATOM     15  C   UNL     1       3.577   4.670  17.604  0.00  0.00    +0.000 A 
ENDBRANCH   6  10
BRANCH   1  17
ATOM     16  C   UNL     1      -1.003  10.558  23.037  0.00  0.00    +0.000 C 
ATOM     17  C   UNL     1      -0.378   9.397  22.806  0.00  0.00    +0.000 C 
ENDBRANCH   1  17
BRANCH   3  18
ATOM     18  C   UNL     1       1.058  10.648  18.137  0.00  0.00    +0.000 C 
BRANCH  18  19
ATOM     19  N   UNL     1       1.247  12.049  18.516  0.00  0.00    +0.000 N 
ATOM     20  N   UNL     1       2.514  12.526  18.648  0.00  0.00    +0.000 NA
ATOM     21  C   UNL     1       2.342  13.795  19.073  0.00  0.00    +0.000 A 
ATOM     22  C   UNL     1       0.974  14.139  19.123  0.00  0.00    +0.000 A 
ATOM     23  C   UNL     1       0.289  13.009  18.729  0.00  0.00    +0.000 A 
ATOM     24  C   UNL     1      -1.169  12.785  18.572  0.00  0.00    +0.000 C 
BRANCH  21  25
ATOM     25  C   UNL     1       3.500  14.627  19.406  0.00  0.00    +0.000 C 
ATOM     26  O   UNL     1       3.995  15.462  18.662  0.00  0.00    +0.000 OA
BRANCH  25  27
ATOM     27  O   UNL     1       3.977  14.369  20.655  0.00  0.00    +0.000 OA
ATOM     28  H   UNL     1       4.906  14.066  20.526  0.00  0.00    +0.000 HD
ENDBRANCH  25  27
ENDBRANCH  21  25
ENDBRANCH  18  19
ENDBRANCH   3  18
TORSDOF 6
ENDMDL
MODEL 9
REMARK VINA RESULT:      -7.4      2.482      4.882
REMARK  Name = 
REMARK  7 active torsions:
REMARK  status: ('A' for Active; 'I' for Inactive)
REMARK    1  A    between atoms: C_2  and  C_3
REMARK    2  A    between atoms: C_5  and  C_6
REMARK    3  A    between atoms: C_6  and  N_7
REMARK    4  A    between atoms: C_9  and  C_10
REMARK    5  A    between atoms: C_10  and  O_12
REMARK    6  A    between atoms: C_14  and  C_15
REMARK    7  A    between atoms: C_18  and  C_19
REMARK                            x       y       z     vdW  Elec       q    Type
REMARK                         _______ _______ _______ _____ _____    ______ ____
ROOT
ATOM      1  C   UNL     1       2.249   4.243  20.190  0.00  0.00    +0.000 A 
ATOM      2  C   UNL     1       2.935   4.568  18.936  0.00  0.00    +0.000 A 
ATOM      3  C   UNL     1       2.954   5.832  18.463  0.00  0.00    +0.000 A 
ATOM      4  N   UNL     1       2.270   6.829  19.175  0.00  0.00    +0.000 N 
ATOM      5  N   UNL     1       2.148   8.136  18.838  0.00  0.00    +0.000 NA
ATOM      6  C   UNL     1       1.464   8.713  19.838  0.00  0.00    +0.000 A 
ATOM      7  C   UNL     1       1.065   7.749  20.796  0.00  0.00    +0.000 A 
ATOM      8  C   UNL     1       1.591   6.558  20.357  0.00  0.00    +0.000 A 
ATOM      9  C   UNL     1       1.590   5.223  20.852  0.00  0.00    +0.000 A 
ENDROOT
BRANCH   6  10
ATOM     10  C   UNL     1       1.227  10.156  19.855  0.00  0.00    +0.000 A 
ATOM     11  C   UNL     1       0.745  10.782  21.015  0.00  0.00    +0.000 A 
ATOM     12  C   UNL     1       0.464  12.151  21.022  0.00  0.00    +0.000 A 
ATOM     13  C   UNL     1       0.661  12.908  19.870  0.00  0.00    +0.000 A 
ATOM     14  C   UNL     1       1.147  12.301  18.713  0.00  0.00    +0.000 A 
ATOM     15  C   UNL     1       1.433  10.933  18.706  0.00  0.00    +0.000 A 
ENDBRANCH   6  10
BRANCH   1  17
ATOM     16  C   UNL     1       1.736   2.513  21.881  0.00  0.00    +0.000 C 
ATOM     17  C   UNL     1       2.248   2.880  20.699  0.00  0.00    +0.000 C 
ENDBRANCH   1  17
BRANCH   3  18
ATOM     18  C   UNL     1       3.677   6.223  17.206  0.00  0.00    +0.000 C 
BRANCH  18  19
ATOM     19  N   UNL     1       5.105   5.910  17.272  0.00  0.00    +0.000 N 
ATOM     20  N   UNL     1       5.773   6.148  18.432  0.00  0.00    +0.000 NA
ATOM     21  C   UNL     1       7.053   5.834  18.141  0.00  0.00    +0.000 A 
ATOM     22  C   UNL     1       7.171   5.319  16.832  0.00  0.00    +0.000 A 
ATOM     23  C   UNL     1       5.898   5.348  16.303  0.00  0.00    +0.000 A 
ATOM     24  C   UNL     1       5.410   4.912  14.971  0.00  0.00    +0.000 C 
BRANCH  21  25
ATOM     25  C   UNL     1       8.108   6.034  19.136  0.00  0.00    +0.000 C 
ATOM     26  O   UNL     1       8.492   5.183  19.926  0.00  0.00    +0.000 OA
BRANCH  25  27
ATOM     27  O   UNL     1       8.629   7.292  19.088  0.00  0.00    +0.000 OA
ATOM     28  H   UNL     1       8.637   7.538  18.133  0.00  0.00    +0.000 HD
ENDBRANCH  25  27
ENDBRANCH  21  25
ENDBRANCH  18  19
ENDBRANCH   3  18
TORSDOF 6
ENDMDL
