MODEL 1
REMARK VINA RESULT:      -6.9      0.000      0.000
REMARK  Name = 
REMARK  4 active torsions:
REMARK  status: ('A' for Active; 'I' for Inactive)
REMARK    1  A    between atoms: C_1  and  C_2
REMARK    2  A    between atoms: N_4  and  C_5
REMARK    3  A    between atoms: N_4  and  C_23
REMARK    4  A    between atoms: C_6  and  N_7
REMARK                            x       y       z     vdW  Elec       q    Type
REMARK                         _______ _______ _______ _____ _____    ______ ____
ROOT
ATOM      1  C   UNL     1      -0.867  11.408  19.658  0.00  0.00    +0.000 C 
ATOM      2  C   UNL     1      -1.914  12.188  20.004  0.00  0.00    +0.000 C 
ATOM      3  C   UNL     1      -3.202  12.076  19.212  0.00  0.00    +0.000 C 
ATOM      4  O   UNL     1      -4.247  12.591  19.601  0.00  0.00    +0.000 OA
ATOM      5  C   UNL     1      -3.195  11.327  17.945  0.00  0.00    +0.000 A 
ATOM      6  C   UNL     1      -4.315  11.362  17.096  0.00  0.00    +0.000 A 
ATOM      7  C   UNL     1      -4.299  10.686  15.875  0.00  0.00    +0.000 A 
ATOM      8  C   UNL     1      -3.175   9.968  15.494  0.00  0.00    +0.000 A 
ATOM      9  C   UNL     1      -2.064   9.907  16.338  0.00  0.00    +0.000 A 
ATOM     10  C   UNL     1      -2.080  10.590  17.567  0.00  0.00    +0.000 A 
ATOM     11  C   UNL     1      -0.904  10.518  18.456  0.00  0.00    +0.000 C 
ATOM     12  O   UNL     1       0.033   9.782  18.165  0.00  0.00    +0.000 OA
ENDROOT
BRANCH   2  13
ATOM     13  N   UNL     1      -1.880  13.121  21.051  0.00  0.00    +0.000 N 
ATOM     14  C   UNL     1      -1.954  14.578  20.815  0.00  0.00    +0.000 C 
ATOM     15  C   UNL     1      -0.997  15.272  21.805  0.00  0.00    +0.000 C 
ATOM     16  O   UNL     1      -1.303  14.942  23.172  0.00  0.00    +0.000 OA
ATOM     17  C   UNL     1      -1.256  13.519  23.375  0.00  0.00    +0.000 C 
ATOM     18  C   UNL     1      -2.249  12.810  22.445  0.00  0.00    +0.000 C 
ENDBRANCH   2  13
BRANCH   1  22
ATOM     19  C   UNL     1      -0.529   9.507  21.755  0.00  0.00    +0.000 C 
ATOM     20  C   UNL     1       0.585  10.467  21.395  0.00  0.00    +0.000 C 
ATOM     21  O   UNL     1       1.652  10.321  22.001  0.00  0.00    +0.000 OA
ATOM     22  N   UNL     1       0.354  11.408  20.363  0.00  0.00    +0.000 N 
BRANCH  22  23
ATOM     23  C   UNL     1       1.378  12.388  20.017  0.00  0.00    +0.000 A 
ATOM     24  C   UNL     1       2.000  12.422  18.755  0.00  0.00    +0.000 A 
ATOM     25  C   UNL     1       2.911  13.428  18.405  0.00  0.00    +0.000 A 
ATOM     26  C   UNL     1       3.214  14.426  19.316  0.00  0.00    +0.000 A 
ATOM     27  F   UNL     1       4.060  15.405  18.972  0.00  0.00    +0.000 F 
ATOM     28  C   UNL     1       2.643  14.401  20.576  0.00  0.00    +0.000 A 
ATOM     29  F   UNL     1       2.899  15.381  21.453  0.00  0.00    +0.000 F 
ATOM     30  C   UNL     1       1.768  13.377  20.941  0.00  0.00    +0.000 A 
ENDBRANCH  22  23
ENDBRANCH   1  22
TORSDOF 3
ENDMDL
MODEL 2
REMARK VINA RESULT:      -6.8      0.569      1.218
REMARK  Name = 
REMARK  4 active torsions:
REMARK  status: ('A' for Active; 'I' for Inactive)
REMARK    1  A    between atoms: C_1  and  C_2
REMARK    2  A    between atoms: N_4  and  C_5
REMARK    3  A    between atoms: N_4  and  C_23
REMARK    4  A    between atoms: C_6  and  N_7
REMARK                            x       y       z     vdW  Elec       q    Type
REMARK                         _______ _______ _______ _____ _____    ______ ____
ROOT
ATOM      1  C   UNL     1      -1.017  11.364  19.649  0.00  0.00    +0.000 C 
ATOM      2  C   UNL     1      -2.137  12.041  19.984  0.00  0.00    +0.000 C 
ATOM      3  C   UNL     1      -3.374  11.881  19.123  0.00  0.00    +0.000 C 
ATOM      4  O   UNL     1      -4.472  12.292  19.486  0.00  0.00    +0.000 OA
ATOM      5  C   UNL     1      -3.249  11.211  17.818  0.00  0.00    +0.000 A 
ATOM      6  C   UNL     1      -4.328  11.213  16.916  0.00  0.00    +0.000 A 
ATOM      7  C   UNL     1      -4.203  10.615  15.662  0.00  0.00    +0.000 A 
ATOM      8  C   UNL     1      -3.009  10.007  15.299  0.00  0.00    +0.000 A 
ATOM      9  C   UNL     1      -1.937   9.979  16.193  0.00  0.00    +0.000 A 
ATOM     10  C   UNL     1      -2.065  10.584  17.456  0.00  0.00    +0.000 A 
ATOM     11  C   UNL     1      -0.928  10.548  18.399  0.00  0.00    +0.000 C 
ATOM     12  O   UNL     1       0.075   9.903  18.116  0.00  0.00    +0.000 OA
ENDROOT
BRANCH   2  13
ATOM     13  N   UNL     1      -2.225  12.910  21.083  0.00  0.00    +0.000 N 
ATOM     14  C   UNL     1      -2.496  14.355  20.929  0.00  0.00    +0.000 C 
ATOM     15  C   UNL     1      -1.637  15.115  21.960  0.00  0.00    +0.000 C 
ATOM     16  O   UNL     1      -1.889  14.671  23.305  0.00  0.00    +0.000 OA
ATOM     17  C   UNL     1      -1.650  13.257  23.427  0.00  0.00    +0.000 C 
ATOM     18  C   UNL     1      -2.541  12.474  22.456  0.00  0.00    +0.000 C 
ENDBRANCH   2  13
BRANCH   1  22
ATOM     19  C   UNL     1      -0.564   9.293  21.554  0.00  0.00    +0.000 C 
ATOM     20  C   UNL     1       0.453  10.396  21.355  0.00  0.00    +0.000 C 
ATOM     21  O   UNL     1       1.504  10.295  21.998  0.00  0.00    +0.000 OA
ATOM     22  N   UNL     1       0.166  11.413  20.415  0.00  0.00    +0.000 N 
BRANCH  22  23
ATOM     23  C   UNL     1       1.091  12.526  20.226  0.00  0.00    +0.000 A 
ATOM     24  C   UNL     1       1.291  13.521  21.200  0.00  0.00    +0.000 A 
ATOM     25  C   UNL     1       2.253  14.528  21.044  0.00  0.00    +0.000 A 
ATOM     26  C   UNL     1       3.039  14.555  19.905  0.00  0.00    +0.000 A 
ATOM     27  F   UNL     1       3.979  15.499  19.769  0.00  0.00    +0.000 F 
ATOM     28  C   UNL     1       2.844  13.609  18.915  0.00  0.00    +0.000 A 
ATOM     29  F   UNL     1       3.623  13.602  17.825  0.00  0.00    +0.000 F 
ATOM     30  C   UNL     1       1.859  12.630  19.049  0.00  0.00    +0.000 A 
ENDBRANCH  22  23
ENDBRANCH   1  22
TORSDOF 3
ENDMDL
MODEL 3
REMARK VINA RESULT:      -6.6      2.921      5.683
REMARK  Name = 
REMARK  4 active torsions:
REMARK  status: ('A' for Active; 'I' for Inactive)
REMARK    1  A    between atoms: C_1  and  C_2
REMARK    2  A    between atoms: N_4  and  C_5
REMARK    3  A    between atoms: N_4  and  C_23
REMARK    4  A    between atoms: C_6  and  N_7
REMARK                            x       y       z     vdW  Elec       q    Type
REMARK                         _______ _______ _______ _____ _____    ______ ____
ROOT
ATOM      1  C   UNL     1      -0.942  12.389  20.361  0.00  0.00    +0.000 C 
ATOM      2  C   UNL     1      -2.107  12.104  19.740  0.00  0.00    +0.000 C 
ATOM      3  C   UNL     1      -3.403  12.590  20.358  0.00  0.00    +0.000 C 
ATOM      4  O   UNL     1      -4.466  12.552  19.746  0.00  0.00    +0.000 OA
ATOM      5  C   UNL     1      -3.380  13.124  21.730  0.00  0.00    +0.000 A 
ATOM      6  C   UNL     1      -4.583  13.405  22.400  0.00  0.00    +0.000 A 
ATOM      7  C   UNL     1      -4.569  13.874  23.715  0.00  0.00    +0.000 A 
ATOM      8  C   UNL     1      -3.361  14.070  24.368  0.00  0.00    +0.000 A 
ATOM      9  C   UNL     1      -2.158  13.814  23.707  0.00  0.00    +0.000 A 
ATOM     10  C   UNL     1      -2.174  13.341  22.383  0.00  0.00    +0.000 A 
ATOM     11  C   UNL     1      -0.898  13.077  21.689  0.00  0.00    +0.000 C 
ATOM     12  O   UNL     1       0.161  13.370  22.232  0.00  0.00    +0.000 OA
ENDROOT
BRANCH   2  13
ATOM     13  N   UNL     1      -2.198  11.359  18.554  0.00  0.00    +0.000 N 
ATOM     14  C   UNL     1      -1.761  11.895  17.249  0.00  0.00    +0.000 C 
ATOM     15  C   UNL     1      -2.762  11.418  16.176  0.00  0.00    +0.000 C 
ATOM     16  O   UNL     1      -2.878   9.984  16.147  0.00  0.00    +0.000 OA
ATOM     17  C   UNL     1      -3.275   9.479  17.435  0.00  0.00    +0.000 C 
ATOM     18  C   UNL     1      -2.258   9.886  18.509  0.00  0.00    +0.000 C 
ENDBRANCH   2  13
BRANCH   1  22
ATOM     19  C   UNL     1       0.512  14.331  18.864  0.00  0.00    +0.000 C 
ATOM     20  C   UNL     1       1.090  12.954  19.111  0.00  0.00    +0.000 C 
ATOM     21  O   UNL     1       2.240  12.761  18.701  0.00  0.00    +0.000 OA
ATOM     22  N   UNL     1       0.315  12.020  19.838  0.00  0.00    +0.000 N 
BRANCH  22  23
ATOM     23  C   UNL     1       0.807  10.664  20.056  0.00  0.00    +0.000 A 
ATOM     24  C   UNL     1       0.839  10.063  21.328  0.00  0.00    +0.000 A 
ATOM     25  C   UNL     1       1.224   8.727  21.506  0.00  0.00    +0.000 A 
ATOM     26  C   UNL     1       1.583   7.964  20.409  0.00  0.00    +0.000 A 
ATOM     27  F   UNL     1       1.921   6.680  20.575  0.00  0.00    +0.000 F 
ATOM     28  C   UNL     1       1.593   8.537  19.149  0.00  0.00    +0.000 A 
ATOM     29  F   UNL     1       1.903   7.799  18.075  0.00  0.00    +0.000 F 
ATOM     30  C   UNL     1       1.250   9.878  18.974  0.00  0.00    +0.000 A 
ENDBRANCH  22  23
ENDBRANCH   1  22
TORSDOF 3
ENDMDL
MODEL 4
REMARK VINA RESULT:      -6.5      2.954      5.576
REMARK  Name = 
REMARK  4 active torsions:
REMARK  status: ('A' for Active; 'I' for Inactive)
REMARK    1  A    between atoms: C_1  and  C_2
REMARK    2  A    between atoms: N_4  and  C_5
REMARK    3  A    between atoms: N_4  and  C_23
REMARK    4  A    between atoms: C_6  and  N_7
REMARK                            x       y       z     vdW  Elec       q    Type
REMARK                         _______ _______ _______ _____ _____    ______ ____
ROOT
ATOM      1  C   UNL     1      -0.866  12.213  20.000  0.00  0.00    +0.000 C 
ATOM      2  C   UNL     1      -2.070  11.943  19.451  0.00  0.00    +0.000 C 
ATOM      3  C   UNL     1      -3.322  12.399  20.174  0.00  0.00    +0.000 C 
ATOM      4  O   UNL     1      -4.424  12.378  19.634  0.00  0.00    +0.000 OA
ATOM      5  C   UNL     1      -3.206  12.883  21.559  0.00  0.00    +0.000 A 
ATOM      6  C   UNL     1      -4.362  13.133  22.320  0.00  0.00    +0.000 A 
ATOM      7  C   UNL     1      -4.259  13.554  23.647  0.00  0.00    +0.000 A 
ATOM      8  C   UNL     1      -3.010  13.734  24.223  0.00  0.00    +0.000 A 
ATOM      9  C   UNL     1      -1.854  13.509  23.472  0.00  0.00    +0.000 A 
ATOM     10  C   UNL     1      -1.959  13.084  22.136  0.00  0.00    +0.000 A 
ATOM     11  C   UNL     1      -0.733  12.852  21.346  0.00  0.00    +0.000 C 
ATOM     12  O   UNL     1       0.360  13.131  21.827  0.00  0.00    +0.000 OA
ENDROOT
BRANCH   2  13
ATOM     13  N   UNL     1      -2.240  11.241  18.248  0.00  0.00    +0.000 N 
ATOM     14  C   UNL     1      -1.880  11.820  16.937  0.00  0.00    +0.000 C 
ATOM     15  C   UNL     1      -2.949  11.387  15.913  0.00  0.00    +0.000 C 
ATOM     16  O   UNL     1      -3.077   9.956  15.841  0.00  0.00    +0.000 OA
ATOM     17  C   UNL     1      -3.398   9.408  17.132  0.00  0.00    +0.000 C 
ATOM     18  C   UNL     1      -2.314   9.771  18.155  0.00  0.00    +0.000 C 
ENDBRANCH   2  13
BRANCH   1  22
ATOM     19  C   UNL     1       0.549  14.254  18.602  0.00  0.00    +0.000 C 
ATOM     20  C   UNL     1       1.110  12.851  18.696  0.00  0.00    +0.000 C 
ATOM     21  O   UNL     1       2.231  12.676  18.209  0.00  0.00    +0.000 OA
ATOM     22  N   UNL     1       0.354  11.870  19.380  0.00  0.00    +0.000 N 
BRANCH  22  23
ATOM     23  C   UNL     1       0.827  10.492  19.451  0.00  0.00    +0.000 A 
ATOM     24  C   UNL     1       1.396   9.826  18.350  0.00  0.00    +0.000 A 
ATOM     25  C   UNL     1       1.933   8.537  18.461  0.00  0.00    +0.000 A 
ATOM     26  C   UNL     1       1.913   7.888  19.683  0.00  0.00    +0.000 A 
ATOM     27  F   UNL     1       2.454   6.668  19.797  0.00  0.00    +0.000 F 
ATOM     28  C   UNL     1       1.331   8.504  20.777  0.00  0.00    +0.000 A 
ATOM     29  F   UNL     1       1.339   7.902  21.974  0.00  0.00    +0.000 F 
ATOM     30  C   UNL     1       0.759   9.771  20.660  0.00  0.00    +0.000 A 
ENDBRANCH  22  23
ENDBRANCH   1  22
TORSDOF 3
ENDMDL
MODEL 5
REMARK VINA RESULT:      -6.4      0.492      1.003
REMARK  Name = 
REMARK  4 active torsions:
REMARK  status: ('A' for Active; 'I' for Inactive)
REMARK    1  A    between atoms: C_1  and  C_2
REMARK    2  A    between atoms: N_4  and  C_5
REMARK    3  A    between atoms: N_4  and  C_23
REMARK    4  A    between atoms: C_6  and  N_7
REMARK                            x       y       z     vdW  Elec       q    Type
REMARK                         _______ _______ _______ _____ _____    ______ ____
ROOT
ATOM      1  C   UNL     1      -0.773  11.491  19.871  0.00  0.00    +0.000 C 
ATOM      2  C   UNL     1      -1.763  12.312  20.283  0.00  0.00    +0.000 C 
ATOM      3  C   UNL     1      -3.097  12.268  19.564  0.00  0.00    +0.000 C 
ATOM      4  O   UNL     1      -4.094  12.823  20.015  0.00  0.00    +0.000 OA
ATOM      5  C   UNL     1      -3.193  11.536  18.290  0.00  0.00    +0.000 A 
ATOM      6  C   UNL     1      -4.355  11.632  17.505  0.00  0.00    +0.000 A 
ATOM      7  C   UNL     1      -4.437  10.972  16.278  0.00  0.00    +0.000 A 
ATOM      8  C   UNL     1      -3.369  10.209  15.827  0.00  0.00    +0.000 A 
ATOM      9  C   UNL     1      -2.217  10.088  16.607  0.00  0.00    +0.000 A 
ATOM     10  C   UNL     1      -2.135  10.755  17.842  0.00  0.00    +0.000 A 
ATOM     11  C   UNL     1      -0.915  10.620  18.664  0.00  0.00    +0.000 C 
ATOM     12  O   UNL     1      -0.030   9.847  18.313  0.00  0.00    +0.000 OA
ENDROOT
BRANCH   2  13
ATOM     13  N   UNL     1      -1.630  13.229  21.337  0.00  0.00    +0.000 N 
ATOM     14  C   UNL     1      -1.408  12.802  22.734  0.00  0.00    +0.000 C 
ATOM     15  C   UNL     1      -2.220  13.735  23.655  0.00  0.00    +0.000 C 
ATOM     16  O   UNL     1      -1.871  15.118  23.464  0.00  0.00    +0.000 OA
ATOM     17  C   UNL     1      -2.064  15.507  22.092  0.00  0.00    +0.000 C 
ATOM     18  C   UNL     1      -1.215  14.633  21.160  0.00  0.00    +0.000 C 
ENDBRANCH   2  13
BRANCH   1  22
ATOM     19  C   UNL     1      -0.360   9.462  21.830  0.00  0.00    +0.000 C 
ATOM     20  C   UNL     1       0.751  10.423  21.467  0.00  0.00    +0.000 C 
ATOM     21  O   UNL     1       1.846  10.222  22.004  0.00  0.00    +0.000 OA
ATOM     22  N   UNL     1       0.484  11.428  20.507  0.00  0.00    +0.000 N 
BRANCH  22  23
ATOM     23  C   UNL     1       1.507  12.410  20.164  0.00  0.00    +0.000 A 
ATOM     24  C   UNL     1       1.969  12.597  18.848  0.00  0.00    +0.000 A 
ATOM     25  C   UNL     1       2.881  13.610  18.520  0.00  0.00    +0.000 A 
ATOM     26  C   UNL     1       3.347  14.460  19.508  0.00  0.00    +0.000 A 
ATOM     27  F   UNL     1       4.195  15.446  19.190  0.00  0.00    +0.000 F 
ATOM     28  C   UNL     1       2.937  14.280  20.817  0.00  0.00    +0.000 A 
ATOM     29  F   UNL     1       3.351  15.118  21.776  0.00  0.00    +0.000 F 
ATOM     30  C   UNL     1       2.061  13.247  21.153  0.00  0.00    +0.000 A 
ENDBRANCH  22  23
ENDBRANCH   1  22
TORSDOF 3
ENDMDL
MODEL 6
REMARK VINA RESULT:      -6.4      3.380      5.700
REMARK  Name = 
REMARK  4 active torsions:
REMARK  status: ('A' for Active; 'I' for Inactive)
REMARK    1  A    between atoms: C_1  and  C_2
REMARK    2  A    between atoms: N_4  and  C_5
REMARK    3  A    between atoms: N_4  and  C_23
REMARK    4  A    between atoms: C_6  and  N_7
REMARK                            x       y       z     vdW  Elec       q    Type
REMARK                         _______ _______ _______ _____ _____    ______ ____
ROOT
ATOM      1  C   UNL     1       0.086  11.012  19.701  0.00  0.00    +0.000 C 
ATOM      2  C   UNL     1       0.129  10.800  21.034  0.00  0.00    +0.000 C 
ATOM      3  C   UNL     1       0.943   9.637  21.564  0.00  0.00    +0.000 C 
ATOM      4  O   UNL     1       1.197   9.516  22.759  0.00  0.00    +0.000 OA
ATOM      5  C   UNL     1       1.442   8.628  20.615  0.00  0.00    +0.000 A 
ATOM      6  C   UNL     1       2.034   7.444  21.088  0.00  0.00    +0.000 A 
ATOM      7  C   UNL     1       2.473   6.466  20.194  0.00  0.00    +0.000 A 
ATOM      8  C   UNL     1       2.332   6.661  18.827  0.00  0.00    +0.000 A 
ATOM      9  C   UNL     1       1.765   7.842  18.344  0.00  0.00    +0.000 A 
ATOM     10  C   UNL     1       1.322   8.826  19.246  0.00  0.00    +0.000 A 
ATOM     11  C   UNL     1       0.727  10.074  18.728  0.00  0.00    +0.000 C 
ATOM     12  O   UNL     1       0.721  10.288  17.520  0.00  0.00    +0.000 OA
ENDROOT
BRANCH   2  13
ATOM     13  N   UNL     1      -0.556  11.588  21.972  0.00  0.00    +0.000 N 
ATOM     14  C   UNL     1      -1.407  10.999  23.027  0.00  0.00    +0.000 C 
ATOM     15  C   UNL     1      -2.649  11.898  23.197  0.00  0.00    +0.000 C 
ATOM     16  O   UNL     1      -2.293  13.259  23.503  0.00  0.00    +0.000 OA
ATOM     17  C   UNL     1      -1.440  13.804  22.480  0.00  0.00    +0.000 C 
ATOM     18  C   UNL     1      -0.165  12.962  22.337  0.00  0.00    +0.000 C 
ENDBRANCH   2  13
BRANCH   1  22
ATOM     19  C   UNL     1       1.510  13.445  19.282  0.00  0.00    +0.000 C 
ATOM     20  C   UNL     1       0.061  13.316  18.864  0.00  0.00    +0.000 C 
ATOM     21  O   UNL     1      -0.426  14.284  18.269  0.00  0.00    +0.000 OA
ATOM     22  N   UNL     1      -0.606  12.095  19.118  0.00  0.00    +0.000 N 
BRANCH  22  23
ATOM     23  C   UNL     1      -2.017  11.941  18.781  0.00  0.00    +0.000 A 
ATOM     24  C   UNL     1      -3.052  12.312  19.659  0.00  0.00    +0.000 A 
ATOM     25  C   UNL     1      -4.401  12.247  19.283  0.00  0.00    +0.000 A 
ATOM     26  C   UNL     1      -4.739  11.811  18.013  0.00  0.00    +0.000 A 
ATOM     27  F   UNL     1      -6.025  11.778  17.643  0.00  0.00    +0.000 F 
ATOM     28  C   UNL     1      -3.745  11.409  17.139  0.00  0.00    +0.000 A 
ATOM     29  F   UNL     1      -4.056  11.020  15.895  0.00  0.00    +0.000 F 
ATOM     30  C   UNL     1      -2.404  11.433  17.526  0.00  0.00    +0.000 A 
ENDBRANCH  22  23
ENDBRANCH   1  22
TORSDOF 3
ENDMDL
MODEL 7
REMARK VINA RESULT:      -6.4      3.285      5.544
REMARK  Name = 
REMARK  4 active torsions:
REMARK  status: ('A' for Active; 'I' for Inactive)
REMARK    1  A    between atoms: C_1  and  C_2
REMARK    2  A    between atoms: N_4  and  C_5
REMARK    3  A    between atoms: N_4  and  C_23
REMARK    4  A    between atoms: C_6  and  N_7
REMARK                            x       y       z     vdW  Elec       q    Type
REMARK                         _______ _______ _______ _____ _____    ______ ____
ROOT
ATOM      1  C   UNL     1       0.142  11.077  19.738  0.00  0.00    +0.000 C 
ATOM      2  C   UNL     1       0.137  10.839  21.067  0.00  0.00    +0.000 C 
ATOM      3  C   UNL     1       0.913   9.651  21.601  0.00  0.00    +0.000 C 
ATOM      4  O   UNL     1       1.125   9.503  22.800  0.00  0.00    +0.000 OA
ATOM      5  C   UNL     1       1.426   8.652  20.648  0.00  0.00    +0.000 A 
ATOM      6  C   UNL     1       1.982   7.449  21.117  0.00  0.00    +0.000 A 
ATOM      7  C   UNL     1       2.434   6.481  20.219  0.00  0.00    +0.000 A 
ATOM      8  C   UNL     1       2.341   6.705  18.852  0.00  0.00    +0.000 A 
ATOM      9  C   UNL     1       1.811   7.905  18.374  0.00  0.00    +0.000 A 
ATOM     10  C   UNL     1       1.355   8.879  19.280  0.00  0.00    +0.000 A 
ATOM     11  C   UNL     1       0.799  10.147  18.768  0.00  0.00    +0.000 C 
ATOM     12  O   UNL     1       0.836  10.384  17.565  0.00  0.00    +0.000 OA
ENDROOT
BRANCH   2  13
ATOM     13  N   UNL     1      -0.566  11.620  21.998  0.00  0.00    +0.000 N 
ATOM     14  C   UNL     1      -1.435  11.025  23.034  0.00  0.00    +0.000 C 
ATOM     15  C   UNL     1      -2.680  11.922  23.187  0.00  0.00    +0.000 C 
ATOM     16  O   UNL     1      -2.330  13.280  23.508  0.00  0.00    +0.000 OA
ATOM     17  C   UNL     1      -1.460  13.832  22.504  0.00  0.00    +0.000 C 
ATOM     18  C   UNL     1      -0.182  12.992  22.378  0.00  0.00    +0.000 C 
ENDBRANCH   2  13
BRANCH   1  22
ATOM     19  C   UNL     1       1.615  13.498  19.432  0.00  0.00    +0.000 C 
ATOM     20  C   UNL     1       0.182  13.400  18.954  0.00  0.00    +0.000 C 
ATOM     21  O   UNL     1      -0.268  14.388  18.365  0.00  0.00    +0.000 OA
ATOM     22  N   UNL     1      -0.511  12.183  19.155  0.00  0.00    +0.000 N 
BRANCH  22  23
ATOM     23  C   UNL     1      -1.910  12.057  18.760  0.00  0.00    +0.000 A 
ATOM     24  C   UNL     1      -2.303  11.570  17.499  0.00  0.00    +0.000 A 
ATOM     25  C   UNL     1      -3.650  11.365  17.171  0.00  0.00    +0.000 A 
ATOM     26  C   UNL     1      -4.633  11.642  18.105  0.00  0.00    +0.000 A 
ATOM     27  F   UNL     1      -5.918  11.418  17.802  0.00  0.00    +0.000 F 
ATOM     28  C   UNL     1      -4.281  12.153  19.341  0.00  0.00    +0.000 A 
ATOM     29  F   UNL     1      -5.220  12.391  20.266  0.00  0.00    +0.000 F 
ATOM     30  C   UNL     1      -2.943  12.397  19.655  0.00  0.00    +0.000 A 
ENDBRANCH  22  23
ENDBRANCH   1  22
TORSDOF 3
ENDMDL
MODEL 8
REMARK VINA RESULT:      -6.3      2.936      5.663
REMARK  Name = 
REMARK  4 active torsions:
REMARK  status: ('A' for Active; 'I' for Inactive)
REMARK    1  A    between atoms: C_1  and  C_2
REMARK    2  A    between atoms: N_4  and  C_5
REMARK    3  A    between atoms: N_4  and  C_23
REMARK    4  A    between atoms: C_6  and  N_7
REMARK                            x       y       z     vdW  Elec       q    Type
REMARK                         _______ _______ _______ _____ _____    ______ ____
ROOT
ATOM      1  C   UNL     1       0.110  12.538  19.892  0.00  0.00    +0.000 C 
ATOM      2  C   UNL     1      -0.380  13.461  20.749  0.00  0.00    +0.000 C 
ATOM      3  C   UNL     1       0.292  14.817  20.826  0.00  0.00    +0.000 C 
ATOM      4  O   UNL     1      -0.224  15.762  21.416  0.00  0.00    +0.000 OA
ATOM      5  C   UNL     1       1.598  15.002  20.172  0.00  0.00    +0.000 A 
ATOM      6  C   UNL     1       2.334  16.181  20.383  0.00  0.00    +0.000 A 
ATOM      7  C   UNL     1       3.590  16.345  19.797  0.00  0.00    +0.000 A 
ATOM      8  C   UNL     1       4.119  15.343  18.997  0.00  0.00    +0.000 A 
ATOM      9  C   UNL     1       3.389  14.175  18.762  0.00  0.00    +0.000 A 
ATOM     10  C   UNL     1       2.124  14.011  19.354  0.00  0.00    +0.000 A 
ATOM     11  C   UNL     1       1.356  12.776  19.099  0.00  0.00    +0.000 C 
ATOM     12  O   UNL     1       1.778  11.954  18.293  0.00  0.00    +0.000 OA
ENDROOT
BRANCH   2  13
ATOM     13  N   UNL     1      -1.475  13.235  21.596  0.00  0.00    +0.000 N 
ATOM     14  C   UNL     1      -1.312  12.823  23.006  0.00  0.00    +0.000 C 
ATOM     15  C   UNL     1      -2.414  11.795  23.335  0.00  0.00    +0.000 C 
ATOM     16  O   UNL     1      -3.731  12.318  23.086  0.00  0.00    +0.000 OA
ATOM     17  C   UNL     1      -3.861  12.742  21.718  0.00  0.00    +0.000 C 
ATOM     18  C   UNL     1      -2.815  13.814  21.385  0.00  0.00    +0.000 C 
ENDBRANCH   2  13
BRANCH   1  22
ATOM     19  C   UNL     1       0.884  10.447  21.667  0.00  0.00    +0.000 C 
ATOM     20  C   UNL     1      -0.148  10.202  20.587  0.00  0.00    +0.000 C 
ATOM     21  O   UNL     1      -0.678   9.085  20.579  0.00  0.00    +0.000 OA
ATOM     22  N   UNL     1      -0.475  11.268  19.717  0.00  0.00    +0.000 N 
BRANCH  22  23
ATOM     23  C   UNL     1      -1.425  11.065  18.627  0.00  0.00    +0.000 A 
ATOM     24  C   UNL     1      -1.200  10.147  17.585  0.00  0.00    +0.000 A 
ATOM     25  C   UNL     1      -2.163   9.894  16.599  0.00  0.00    +0.000 A 
ATOM     26  C   UNL     1      -3.378  10.557  16.641  0.00  0.00    +0.000 A 
ATOM     27  F   UNL     1      -4.311  10.294  15.718  0.00  0.00    +0.000 F 
ATOM     28  C   UNL     1      -3.616  11.490  17.635  0.00  0.00    +0.000 A 
ATOM     29  F   UNL     1      -4.801  12.111  17.709  0.00  0.00    +0.000 F 
ATOM     30  C   UNL     1      -2.642  11.773  18.594  0.00  0.00    +0.000 A 
ENDBRANCH  22  23
ENDBRANCH   1  22
TORSDOF 3
ENDMDL
MODEL 9
REMARK VINA RESULT:      -6.3      5.844      9.501
REMARK  Name = 
REMARK  4 active torsions:
REMARK  status: ('A' for Active; 'I' for Inactive)
REMARK    1  A    between atoms: C_1  and  C_2
REMARK    2  A    between atoms: N_4  and  C_5
REMARK    3  A    between atoms: N_4  and  C_23
REMARK    4  A    between atoms: C_6  and  N_7
REMARK                            x       y       z     vdW  Elec       q    Type
REMARK                         _______ _______ _______ _____ _____    ______ ____
ROOT
ATOM      1  C   UNL     1       7.464  14.854  19.909  0.00  0.00    +0.000 C 
ATOM      2  C   UNL     1       7.867  14.461  21.137  0.00  0.00    +0.000 C 
ATOM      3  C   UNL     1       9.100  13.588  21.257  0.00  0.00    +0.000 C 
ATOM      4  O   UNL     1       9.639  13.376  22.340  0.00  0.00    +0.000 OA
ATOM      5  C   UNL     1       9.665  12.984  20.039  0.00  0.00    +0.000 A 
ATOM      6  C   UNL     1      10.686  12.023  20.135  0.00  0.00    +0.000 A 
ATOM      7  C   UNL     1      11.198  11.417  18.987  0.00  0.00    +0.000 A 
ATOM      8  C   UNL     1      10.702  11.766  17.738  0.00  0.00    +0.000 A 
ATOM      9  C   UNL     1       9.702  12.734  17.628  0.00  0.00    +0.000 A 
ATOM     10  C   UNL     1       9.187  13.342  18.786  0.00  0.00    +0.000 A 
ATOM     11  C   UNL     1       8.132  14.369  18.662  0.00  0.00    +0.000 C 
ATOM     12  O   UNL     1       7.790  14.756  17.550  0.00  0.00    +0.000 OA
ENDROOT
BRANCH   2  13
ATOM     13  N   UNL     1       7.197  14.798  22.323  0.00  0.00    +0.000 N 
ATOM     14  C   UNL     1       6.561  13.783  23.187  0.00  0.00    +0.000 C 
ATOM     15  C   UNL     1       5.239  14.371  23.723  0.00  0.00    +0.000 C 
ATOM     16  O   UNL     1       5.446  15.609  24.426  0.00  0.00    +0.000 OA
ATOM     17  C   UNL     1       6.093  16.574  23.578  0.00  0.00    +0.000 C 
ATOM     18  C   UNL     1       7.443  16.037  23.085  0.00  0.00    +0.000 C 
ENDBRANCH   2  13
BRANCH   1  22
ATOM     19  C   UNL     1       7.921  17.667  19.863  0.00  0.00    +0.000 C 
ATOM     20  C   UNL     1       6.533  17.106  19.642  0.00  0.00    +0.000 C 
ATOM     21  O   UNL     1       5.649  17.924  19.366  0.00  0.00    +0.000 OA
ATOM     22  N   UNL     1       6.357  15.704  19.701  0.00  0.00    +0.000 N 
BRANCH  22  23
ATOM     23  C   UNL     1       5.030  15.119  19.546  0.00  0.00    +0.000 A 
ATOM     24  C   UNL     1       4.565  14.603  18.323  0.00  0.00    +0.000 A 
ATOM     25  C   UNL     1       3.325  13.958  18.214  0.00  0.00    +0.000 A 
ATOM     26  C   UNL     1       2.525  13.816  19.334  0.00  0.00    +0.000 A 
ATOM     27  F   UNL     1       1.354  13.174  19.238  0.00  0.00    +0.000 F 
ATOM     28  C   UNL     1       2.940  14.343  20.544  0.00  0.00    +0.000 A 
ATOM     29  F   UNL     1       2.192  14.179  21.644  0.00  0.00    +0.000 F 
ATOM     30  C   UNL     1       4.155  15.021  20.647  0.00  0.00    +0.000 A 
ENDBRANCH  22  23
ENDBRANCH   1  22
TORSDOF 3
ENDMDL
