MODEL 1
REMARK VINA RESULT:      -7.5      0.000      0.000
REMARK  Name = 
REMARK  10 active torsions:
REMARK  status: ('A' for Active; 'I' for Inactive)
REMARK    1  A    between atoms: C_1  and  O_2
REMARK    2  A    between atoms: O_2  and  C_3
REMARK    3  A    between atoms: C_3  and  C_5
REMARK    4  A    between atoms: C_5  and  N_6
REMARK    5  A    between atoms: N_6  and  C_7
REMARK    6  A    between atoms: N_6  and  S_16
REMARK    7  A    between atoms: C_13  and  O_14
REMARK    8  A    between atoms: O_14  and  C_15
REMARK    9  A    between atoms: S_16  and  C_19
REMARK   10  A    between atoms: C_22  and  C_23
REMARK                            x       y       z     vdW  Elec       q    Type
REMARK                         _______ _______ _______ _____ _____    ______ ____
ROOT
ATOM      1  N   UNL     1       5.693   4.852  16.553  0.00  0.00    +0.000 N 
ENDROOT
BRANCH   1   2
ATOM      2  C   UNL     1       4.366   5.054  17.086  0.00  0.00    +0.000 A 
ATOM      3  C   UNL     1       3.968   6.378  17.296  0.00  0.00    +0.000 A 
ATOM      4  C   UNL     1       2.723   6.651  17.854  0.00  0.00    +0.000 A 
ATOM      5 CL   UNL     1       2.232   8.281  18.101  0.00  0.00    +0.000 Cl
ATOM      6  C   UNL     1       1.867   5.614  18.215  0.00  0.00    +0.000 A 
ATOM      7  C   UNL     1       2.259   4.288  18.017  0.00  0.00    +0.000 A 
ATOM      8  C   UNL     1       3.506   3.992  17.447  0.00  0.00    +0.000 A 
BRANCH   8   9
ATOM      9  O   UNL     1       3.948   2.710  17.223  0.00  0.00    +0.000 OA
ATOM     10  C   UNL     1       3.621   1.746  18.222  0.00  0.00    +0.000 C 
ENDBRANCH   8   9
ENDBRANCH   1   2
BRANCH   1  11
ATOM     11  S   UNL     1       6.951   4.738  17.698  0.00  0.00    +0.000 S 
ATOM     12  O   UNL     1       6.429   4.217  18.947  0.00  0.00    +0.000 OA
ATOM     13  O   UNL     1       8.100   4.119  17.066  0.00  0.00    +0.000 OA
BRANCH  11  14
ATOM     14  C   UNL     1       7.410   6.440  18.033  0.00  0.00    +0.000 A 
ATOM     15  C   UNL     1       8.276   6.729  19.095  0.00  0.00    +0.000 A 
ATOM     16  C   UNL     1       8.792   8.024  19.243  0.00  0.00    +0.000 A 
ATOM     17  C   UNL     1       8.462   9.034  18.331  0.00  0.00    +0.000 A 
ATOM     18  C   UNL     1       9.048  10.411  18.450  0.00  0.00    +0.000 C 
ATOM     19  C   UNL     1       7.585   8.736  17.279  0.00  0.00    +0.000 A 
ATOM     20  C   UNL     1       7.072   7.443  17.120  0.00  0.00    +0.000 A 
ENDBRANCH  11  14
ENDBRANCH   1  11
BRANCH   1  21
ATOM     21  C   UNL     1       5.826   4.045  15.315  0.00  0.00    +0.000 C 
BRANCH  21  22
ATOM     22  C   UNL     1       6.764   4.659  14.301  0.00  0.00    +0.000 C 
ATOM     23  O   UNL     1       7.493   5.622  14.488  0.00  0.00    +0.000 OA
BRANCH  22  25
ATOM     24  C   UNL     1       5.324   3.506  12.827  0.00  0.00    +0.000 C 
ATOM     25  O   UNL     1       6.636   3.998  13.110  0.00  0.00    +0.000 OA
ENDBRANCH  22  25
ENDBRANCH  21  22
ENDBRANCH   1  21
TORSDOF 7
ENDMDL
MODEL 2
REMARK VINA RESULT:      -7.2      1.861      2.629
REMARK  Name = 
REMARK  10 active torsions:
REMARK  status: ('A' for Active; 'I' for Inactive)
REMARK    1  A    between atoms: C_1  and  O_2
REMARK    2  A    between atoms: O_2  and  C_3
REMARK    3  A    between atoms: C_3  and  C_5
REMARK    4  A    between atoms: C_5  and  N_6
REMARK    5  A    between atoms: N_6  and  C_7
REMARK    6  A    between atoms: N_6  and  S_16
REMARK    7  A    between atoms: C_13  and  O_14
REMARK    8  A    between atoms: O_14  and  C_15
REMARK    9  A    between atoms: S_16  and  C_19
REMARK   10  A    between atoms: C_22  and  C_23
REMARK                            x       y       z     vdW  Elec       q    Type
REMARK                         _______ _______ _______ _____ _____    ______ ____
ROOT
ATOM      1  N   UNL     1       5.792   4.940  17.275  0.00  0.00    +0.000 N 
ENDROOT
BRANCH   1   2
ATOM      2  C   UNL     1       4.426   4.686  17.667  0.00  0.00    +0.000 A 
ATOM      3  C   UNL     1       4.108   3.369  18.017  0.00  0.00    +0.000 A 
ATOM      4  C   UNL     1       2.800   3.035  18.358  0.00  0.00    +0.000 A 
ATOM      5 CL   UNL     1       2.415   1.418  18.798  0.00  0.00    +0.000 Cl
ATOM      6  C   UNL     1       1.798   4.001  18.346  0.00  0.00    +0.000 A 
ATOM      7  C   UNL     1       2.104   5.317  17.989  0.00  0.00    +0.000 A 
ATOM      8  C   UNL     1       3.417   5.676  17.652  0.00  0.00    +0.000 A 
BRANCH   8   9
ATOM      9  O   UNL     1       3.783   6.951  17.296  0.00  0.00    +0.000 OA
ATOM     10  C   UNL     1       3.040   8.011  17.895  0.00  0.00    +0.000 C 
ENDBRANCH   8   9
ENDBRANCH   1   2
BRANCH   1  11
ATOM     11  S   UNL     1       6.904   5.178  18.546  0.00  0.00    +0.000 S 
ATOM     12  O   UNL     1       6.194   5.246  19.809  0.00  0.00    +0.000 OA
ATOM     13  O   UNL     1       8.012   4.258  18.373  0.00  0.00    +0.000 OA
BRANCH  11  14
ATOM     14  C   UNL     1       7.562   6.824  18.266  0.00  0.00    +0.000 A 
ATOM     15  C   UNL     1       6.943   7.669  17.336  0.00  0.00    +0.000 A 
ATOM     16  C   UNL     1       7.326   9.015  17.254  0.00  0.00    +0.000 A 
ATOM     17  C   UNL     1       8.315   9.531  18.100  0.00  0.00    +0.000 A 
ATOM     18  C   UNL     1       8.699  10.982  18.055  0.00  0.00    +0.000 C 
ATOM     19  C   UNL     1       8.936   8.673  19.018  0.00  0.00    +0.000 A 
ATOM     20  C   UNL     1       8.553   7.329  19.113  0.00  0.00    +0.000 A 
ENDBRANCH  11  14
ENDBRANCH   1  11
BRANCH   1  21
ATOM     21  C   UNL     1       6.295   4.276  16.048  0.00  0.00    +0.000 C 
BRANCH  21  22
ATOM     22  C   UNL     1       6.142   5.123  14.806  0.00  0.00    +0.000 C 
ATOM     23  O   UNL     1       5.476   6.144  14.711  0.00  0.00    +0.000 OA
BRANCH  22  25
ATOM     24  C   UNL     1       6.061   3.651  12.962  0.00  0.00    +0.000 C 
ATOM     25  O   UNL     1       6.828   4.542  13.775  0.00  0.00    +0.000 OA
ENDBRANCH  22  25
ENDBRANCH  21  22
ENDBRANCH   1  21
TORSDOF 7
ENDMDL
MODEL 3
REMARK VINA RESULT:      -7.1      1.359      1.728
REMARK  Name = 
REMARK  10 active torsions:
REMARK  status: ('A' for Active; 'I' for Inactive)
REMARK    1  A    between atoms: C_1  and  O_2
REMARK    2  A    between atoms: O_2  and  C_3
REMARK    3  A    between atoms: C_3  and  C_5
REMARK    4  A    between atoms: C_5  and  N_6
REMARK    5  A    between atoms: N_6  and  C_7
REMARK    6  A    between atoms: N_6  and  S_16
REMARK    7  A    between atoms: C_13  and  O_14
REMARK    8  A    between atoms: O_14  and  C_15
REMARK    9  A    between atoms: S_16  and  C_19
REMARK   10  A    between atoms: C_22  and  C_23
REMARK                            x       y       z     vdW  Elec       q    Type
REMARK                         _______ _______ _______ _____ _____    ______ ____
ROOT
ATOM      1  N   UNL     1       5.328   5.327  17.675  0.00  0.00    +0.000 N 
ENDROOT
BRANCH   1   2
ATOM      2  C   UNL     1       4.167   5.245  18.530  0.00  0.00    +0.000 A 
ATOM      3  C   UNL     1       3.571   6.455  18.898  0.00  0.00    +0.000 A 
ATOM      4  C   UNL     1       2.478   6.460  19.760  0.00  0.00    +0.000 A 
ATOM      5 CL   UNL     1       1.740   7.949  20.202  0.00  0.00    +0.000 Cl
ATOM      6  C   UNL     1       1.975   5.266  20.270  0.00  0.00    +0.000 A 
ATOM      7  C   UNL     1       2.570   4.053  19.915  0.00  0.00    +0.000 A 
ATOM      8  C   UNL     1       3.665   4.026  19.040  0.00  0.00    +0.000 A 
BRANCH   8   9
ATOM      9  O   UNL     1       4.292   2.867  18.650  0.00  0.00    +0.000 OA
ATOM     10  C   UNL     1       3.452   1.729  18.460  0.00  0.00    +0.000 C 
ENDBRANCH   8   9
ENDBRANCH   1   2
BRANCH   1  11
ATOM     11  S   UNL     1       6.841   5.206  18.451  0.00  0.00    +0.000 S 
ATOM     12  O   UNL     1       6.645   5.023  19.877  0.00  0.00    +0.000 OA
ATOM     13  O   UNL     1       7.678   4.291  17.700  0.00  0.00    +0.000 OA
BRANCH  11  14
ATOM     14  C   UNL     1       7.574   6.834  18.265  0.00  0.00    +0.000 A 
ATOM     15  C   UNL     1       7.047   7.728  17.326  0.00  0.00    +0.000 A 
ATOM     16  C   UNL     1       7.482   9.061  17.310  0.00  0.00    +0.000 A 
ATOM     17  C   UNL     1       8.432   9.514  18.232  0.00  0.00    +0.000 A 
ATOM     18  C   UNL     1       8.870  10.950  18.257  0.00  0.00    +0.000 C 
ATOM     19  C   UNL     1       8.963   8.607  19.160  0.00  0.00    +0.000 A 
ATOM     20  C   UNL     1       8.526   7.277  19.188  0.00  0.00    +0.000 A 
ENDBRANCH  11  14
ENDBRANCH   1  11
BRANCH   1  21
ATOM     21  C   UNL     1       5.221   4.765  16.306  0.00  0.00    +0.000 C 
BRANCH  21  22
ATOM     22  C   UNL     1       5.549   5.767  15.223  0.00  0.00    +0.000 C 
ATOM     23  O   UNL     1       5.043   6.872  15.090  0.00  0.00    +0.000 OA
BRANCH  22  25
ATOM     24  C   UNL     1       6.247   3.856  14.026  0.00  0.00    +0.000 C 
ATOM     25  O   UNL     1       6.472   5.225  14.372  0.00  0.00    +0.000 OA
ENDBRANCH  22  25
ENDBRANCH  21  22
ENDBRANCH   1  21
TORSDOF 7
ENDMDL
MODEL 4
REMARK VINA RESULT:      -7.0      3.205      6.061
REMARK  Name = 
REMARK  10 active torsions:
REMARK  status: ('A' for Active; 'I' for Inactive)
REMARK    1  A    between atoms: C_1  and  O_2
REMARK    2  A    between atoms: O_2  and  C_3
REMARK    3  A    between atoms: C_3  and  C_5
REMARK    4  A    between atoms: C_5  and  N_6
REMARK    5  A    between atoms: N_6  and  C_7
REMARK    6  A    between atoms: N_6  and  S_16
REMARK    7  A    between atoms: C_13  and  O_14
REMARK    8  A    between atoms: O_14  and  C_15
REMARK    9  A    between atoms: S_16  and  C_19
REMARK   10  A    between atoms: C_22  and  C_23
REMARK                            x       y       z     vdW  Elec       q    Type
REMARK                         _______ _______ _______ _____ _____    ______ ____
ROOT
ATOM      1  N   UNL     1       3.965   3.335  18.570  0.00  0.00    +0.000 N 
ENDROOT
BRANCH   1   2
ATOM      2  C   UNL     1       4.930   3.905  17.659  0.00  0.00    +0.000 A 
ATOM      3  C   UNL     1       4.719   3.675  16.296  0.00  0.00    +0.000 A 
ATOM      4  C   UNL     1       5.633   4.151  15.359  0.00  0.00    +0.000 A 
ATOM      5 CL   UNL     1       5.365   3.876  13.683  0.00  0.00    +0.000 Cl
ATOM      6  C   UNL     1       6.766   4.848  15.769  0.00  0.00    +0.000 A 
ATOM      7  C   UNL     1       6.990   5.075  17.129  0.00  0.00    +0.000 A 
ATOM      8  C   UNL     1       6.076   4.613  18.087  0.00  0.00    +0.000 A 
BRANCH   8   9
ATOM      9  O   UNL     1       6.236   4.806  19.438  0.00  0.00    +0.000 OA
ATOM     10  C   UNL     1       7.395   5.537  19.838  0.00  0.00    +0.000 C 
ENDBRANCH   8   9
ENDBRANCH   1   2
BRANCH   1  11
ATOM     11  S   UNL     1       2.344   3.810  18.338  0.00  0.00    +0.000 S 
ATOM     12  O   UNL     1       2.090   4.003  16.923  0.00  0.00    +0.000 OA
ATOM     13  O   UNL     1       1.489   2.945  19.128  0.00  0.00    +0.000 OA
BRANCH  11  14
ATOM     14  C   UNL     1       2.243   5.441  19.079  0.00  0.00    +0.000 A 
ATOM     15  C   UNL     1       2.454   6.577  18.288  0.00  0.00    +0.000 A 
ATOM     16  C   UNL     1       2.186   7.850  18.809  0.00  0.00    +0.000 A 
ATOM     17  C   UNL     1       1.696   8.002  20.112  0.00  0.00    +0.000 A 
ATOM     18  C   UNL     1       1.358   9.356  20.664  0.00  0.00    +0.000 C 
ATOM     19  C   UNL     1       1.501   6.858  20.899  0.00  0.00    +0.000 A 
ATOM     20  C   UNL     1       1.758   5.582  20.383  0.00  0.00    +0.000 A 
ENDBRANCH  11  14
ENDBRANCH   1  11
BRANCH   1  21
ATOM     21  C   UNL     1       4.205   1.954  19.056  0.00  0.00    +0.000 C 
BRANCH  21  22
ATOM     22  C   UNL     1       4.421   1.877  20.550  0.00  0.00    +0.000 C 
ATOM     23  O   UNL     1       3.683   2.342  21.407  0.00  0.00    +0.000 OA
BRANCH  22  25
ATOM     24  C   UNL     1       5.638   0.469  22.002  0.00  0.00    +0.000 C 
ATOM     25  O   UNL     1       5.608   1.246  20.802  0.00  0.00    +0.000 OA
ENDBRANCH  22  25
ENDBRANCH  21  22
ENDBRANCH   1  21
TORSDOF 7
ENDMDL
MODEL 5
REMARK VINA RESULT:      -6.9      2.934      4.902
REMARK  Name = 
REMARK  10 active torsions:
REMARK  status: ('A' for Active; 'I' for Inactive)
REMARK    1  A    between atoms: C_1  and  O_2
REMARK    2  A    between atoms: O_2  and  C_3
REMARK    3  A    between atoms: C_3  and  C_5
REMARK    4  A    between atoms: C_5  and  N_6
REMARK    5  A    between atoms: N_6  and  C_7
REMARK    6  A    between atoms: N_6  and  S_16
REMARK    7  A    between atoms: C_13  and  O_14
REMARK    8  A    between atoms: O_14  and  C_15
REMARK    9  A    between atoms: S_16  and  C_19
REMARK   10  A    between atoms: C_22  and  C_23
REMARK                            x       y       z     vdW  Elec       q    Type
REMARK                         _______ _______ _______ _____ _____    ______ ____
ROOT
ATOM      1  N   UNL     1       3.429   4.860  18.900  0.00  0.00    +0.000 N 
ENDROOT
BRANCH   1   2
ATOM      2  C   UNL     1       2.956   6.222  18.985  0.00  0.00    +0.000 A 
ATOM      3  C   UNL     1       2.294   6.584  20.163  0.00  0.00    +0.000 A 
ATOM      4  C   UNL     1       1.765   7.864  20.300  0.00  0.00    +0.000 A 
ATOM      5 CL   UNL     1       0.961   8.309  21.753  0.00  0.00    +0.000 Cl
ATOM      6  C   UNL     1       1.882   8.791  19.268  0.00  0.00    +0.000 A 
ATOM      7  C   UNL     1       2.535   8.436  18.085  0.00  0.00    +0.000 A 
ATOM      8  C   UNL     1       3.083   7.154  17.931  0.00  0.00    +0.000 A 
BRANCH   8   9
ATOM      9  O   UNL     1       3.739   6.746  16.795  0.00  0.00    +0.000 OA
ATOM     10  C   UNL     1       4.893   7.499  16.427  0.00  0.00    +0.000 C 
ENDBRANCH   8   9
ENDBRANCH   1   2
BRANCH   1  11
ATOM     11  S   UNL     1       5.106   4.634  19.112  0.00  0.00    +0.000 S 
ATOM     12  O   UNL     1       5.710   5.869  19.575  0.00  0.00    +0.000 OA
ATOM     13  O   UNL     1       5.320   3.395  19.834  0.00  0.00    +0.000 OA
BRANCH  11  14
ATOM     14  C   UNL     1       5.739   4.373  17.454  0.00  0.00    +0.000 A 
ATOM     15  C   UNL     1       4.883   3.896  16.452  0.00  0.00    +0.000 A 
ATOM     16  C   UNL     1       5.314   3.875  15.118  0.00  0.00    +0.000 A 
ATOM     17  C   UNL     1       6.589   4.338  14.771  0.00  0.00    +0.000 A 
ATOM     18  C   UNL     1       7.043   4.367  13.340  0.00  0.00    +0.000 C 
ATOM     19  C   UNL     1       7.441   4.801  15.783  0.00  0.00    +0.000 A 
ATOM     20  C   UNL     1       7.015   4.833  17.116  0.00  0.00    +0.000 A 
ENDBRANCH  11  14
ENDBRANCH   1  11
BRANCH   1  21
ATOM     21  C   UNL     1       2.532   3.784  19.387  0.00  0.00    +0.000 C 
BRANCH  21  22
ATOM     22  C   UNL     1       1.739   3.124  18.283  0.00  0.00    +0.000 C 
ATOM     23  O   UNL     1       1.029   3.695  17.468  0.00  0.00    +0.000 OA
BRANCH  22  25
ATOM     24  C   UNL     1       3.250   1.314  18.414  0.00  0.00    +0.000 C 
ATOM     25  O   UNL     1       1.895   1.767  18.365  0.00  0.00    +0.000 OA
ENDBRANCH  22  25
ENDBRANCH  21  22
ENDBRANCH   1  21
TORSDOF 7
ENDMDL
MODEL 6
REMARK VINA RESULT:      -6.9      3.169      6.037
REMARK  Name = 
REMARK  10 active torsions:
REMARK  status: ('A' for Active; 'I' for Inactive)
REMARK    1  A    between atoms: C_1  and  O_2
REMARK    2  A    between atoms: O_2  and  C_3
REMARK    3  A    between atoms: C_3  and  C_5
REMARK    4  A    between atoms: C_5  and  N_6
REMARK    5  A    between atoms: N_6  and  C_7
REMARK    6  A    between atoms: N_6  and  S_16
REMARK    7  A    between atoms: C_13  and  O_14
REMARK    8  A    between atoms: O_14  and  C_15
REMARK    9  A    between atoms: S_16  and  C_19
REMARK   10  A    between atoms: C_22  and  C_23
REMARK                            x       y       z     vdW  Elec       q    Type
REMARK                         _______ _______ _______ _____ _____    ______ ____
ROOT
ATOM      1  N   UNL     1       4.062   3.259  18.352  0.00  0.00    +0.000 N 
ENDROOT
BRANCH   1   2
ATOM      2  C   UNL     1       5.069   3.835  17.492  0.00  0.00    +0.000 A 
ATOM      3  C   UNL     1       4.972   3.543  16.128  0.00  0.00    +0.000 A 
ATOM      4  C   UNL     1       5.934   4.022  15.242  0.00  0.00    +0.000 A 
ATOM      5 CL   UNL     1       5.805   3.669  13.564  0.00  0.00    +0.000 Cl
ATOM      6  C   UNL     1       7.002   4.784  15.704  0.00  0.00    +0.000 A 
ATOM      7  C   UNL     1       7.113   5.073  17.067  0.00  0.00    +0.000 A 
ATOM      8  C   UNL     1       6.149   4.610  17.974  0.00  0.00    +0.000 A 
BRANCH   8   9
ATOM      9  O   UNL     1       6.198   4.863  19.323  0.00  0.00    +0.000 OA
ATOM     10  C   UNL     1       7.353   5.556  19.793  0.00  0.00    +0.000 C 
ENDBRANCH   8   9
ENDBRANCH   1   2
BRANCH   1  11
ATOM     11  S   UNL     1       2.441   3.565  17.918  0.00  0.00    +0.000 S 
ATOM     12  O   UNL     1       2.363   3.853  16.499  0.00  0.00    +0.000 OA
ATOM     13  O   UNL     1       1.601   2.542  18.509  0.00  0.00    +0.000 OA
BRANCH  11  14
ATOM     14  C   UNL     1       2.035   5.101  18.751  0.00  0.00    +0.000 A 
ATOM     15  C   UNL     1       1.467   5.067  20.031  0.00  0.00    +0.000 A 
ATOM     16  C   UNL     1       1.328   6.253  20.765  0.00  0.00    +0.000 A 
ATOM     17  C   UNL     1       1.763   7.475  20.238  0.00  0.00    +0.000 A 
ATOM     18  C   UNL     1       1.665   8.745  21.034  0.00  0.00    +0.000 C 
ATOM     19  C   UNL     1       2.318   7.499  18.951  0.00  0.00    +0.000 A 
ATOM     20  C   UNL     1       2.468   6.318  18.216  0.00  0.00    +0.000 A 
ENDBRANCH  11  14
ENDBRANCH   1  11
BRANCH   1  21
ATOM     21  C   UNL     1       4.360   1.952  18.986  0.00  0.00    +0.000 C 
BRANCH  21  22
ATOM     22  C   UNL     1       4.580   2.049  20.478  0.00  0.00    +0.000 C 
ATOM     23  O   UNL     1       5.416   1.433  21.123  0.00  0.00    +0.000 OA
BRANCH  22  25
ATOM     24  C   UNL     1       2.571   2.273  21.697  0.00  0.00    +0.000 C 
ATOM     25  O   UNL     1       3.658   2.904  21.016  0.00  0.00    +0.000 OA
ENDBRANCH  22  25
ENDBRANCH  21  22
ENDBRANCH   1  21
TORSDOF 7
ENDMDL
MODEL 7
REMARK VINA RESULT:      -6.9      2.962      4.798
REMARK  Name = 
REMARK  10 active torsions:
REMARK  status: ('A' for Active; 'I' for Inactive)
REMARK    1  A    between atoms: C_1  and  O_2
REMARK    2  A    between atoms: O_2  and  C_3
REMARK    3  A    between atoms: C_3  and  C_5
REMARK    4  A    between atoms: C_5  and  N_6
REMARK    5  A    between atoms: N_6  and  C_7
REMARK    6  A    between atoms: N_6  and  S_16
REMARK    7  A    between atoms: C_13  and  O_14
REMARK    8  A    between atoms: O_14  and  C_15
REMARK    9  A    between atoms: S_16  and  C_19
REMARK   10  A    between atoms: C_22  and  C_23
REMARK                            x       y       z     vdW  Elec       q    Type
REMARK                         _______ _______ _______ _____ _____    ______ ____
ROOT
ATOM      1  N   UNL     1       3.651   4.968  17.905  0.00  0.00    +0.000 N 
ENDROOT
BRANCH   1   2
ATOM      2  C   UNL     1       2.964   5.991  18.657  0.00  0.00    +0.000 A 
ATOM      3  C   UNL     1       2.634   7.163  17.968  0.00  0.00    +0.000 A 
ATOM      4  C   UNL     1       2.015   8.214  18.638  0.00  0.00    +0.000 A 
ATOM      5 CL   UNL     1       1.602   9.650  17.785  0.00  0.00    +0.000 Cl
ATOM      6  C   UNL     1       1.728   8.116  19.996  0.00  0.00    +0.000 A 
ATOM      7  C   UNL     1       2.061   6.953  20.695  0.00  0.00    +0.000 A 
ATOM      8  C   UNL     1       2.676   5.878  20.036  0.00  0.00    +0.000 A 
BRANCH   8   9
ATOM      9  O   UNL     1       3.025   4.707  20.665  0.00  0.00    +0.000 OA
ATOM     10  C   UNL     1       2.003   4.075  21.434  0.00  0.00    +0.000 C 
ENDBRANCH   8   9
ENDBRANCH   1   2
BRANCH   1  11
ATOM     11  S   UNL     1       5.353   5.076  17.873  0.00  0.00    +0.000 S 
ATOM     12  O   UNL     1       5.763   6.416  18.249  0.00  0.00    +0.000 OA
ATOM     13  O   UNL     1       5.905   3.920  18.550  0.00  0.00    +0.000 OA
BRANCH  11  14
ATOM     14  C   UNL     1       5.782   4.904  16.139  0.00  0.00    +0.000 A 
ATOM     15  C   UNL     1       7.086   5.189  15.715  0.00  0.00    +0.000 A 
ATOM     16  C   UNL     1       7.480   4.872  14.408  0.00  0.00    +0.000 A 
ATOM     17  C   UNL     1       6.588   4.259  13.520  0.00  0.00    +0.000 A 
ATOM     18  C   UNL     1       7.013   3.869  12.134  0.00  0.00    +0.000 C 
ATOM     19  C   UNL     1       5.281   3.989  13.951  0.00  0.00    +0.000 A 
ATOM     20  C   UNL     1       4.883   4.295  15.258  0.00  0.00    +0.000 A 
ENDBRANCH  11  14
ENDBRANCH   1  11
BRANCH   1  21
ATOM     21  C   UNL     1       3.057   3.609  17.883  0.00  0.00    +0.000 C 
BRANCH  21  22
ATOM     22  C   UNL     1       1.565   3.614  17.643  0.00  0.00    +0.000 C 
ATOM     23  O   UNL     1       0.953   4.406  16.940  0.00  0.00    +0.000 OA
BRANCH  22  25
ATOM     24  C   UNL     1       1.894   1.657  18.922  0.00  0.00    +0.000 C 
ATOM     25  O   UNL     1       0.985   2.620  18.381  0.00  0.00    +0.000 OA
ENDBRANCH  22  25
ENDBRANCH  21  22
ENDBRANCH   1  21
TORSDOF 7
ENDMDL
MODEL 8
REMARK VINA RESULT:      -6.7      2.944      4.640
REMARK  Name = 
REMARK  10 active torsions:
REMARK  status: ('A' for Active; 'I' for Inactive)
REMARK    1  A    between atoms: C_1  and  O_2
REMARK    2  A    between atoms: O_2  and  C_3
REMARK    3  A    between atoms: C_3  and  C_5
REMARK    4  A    between atoms: C_5  and  N_6
REMARK    5  A    between atoms: N_6  and  C_7
REMARK    6  A    between atoms: N_6  and  S_16
REMARK    7  A    between atoms: C_13  and  O_14
REMARK    8  A    between atoms: O_14  and  C_15
REMARK    9  A    between atoms: S_16  and  C_19
REMARK   10  A    between atoms: C_22  and  C_23
REMARK                            x       y       z     vdW  Elec       q    Type
REMARK                         _______ _______ _______ _____ _____    ______ ____
ROOT
ATOM      1  N   UNL     1       4.459   4.501  18.538  0.00  0.00    +0.000 N 
ENDROOT
BRANCH   1   2
ATOM      2  C   UNL     1       3.498   5.470  19.010  0.00  0.00    +0.000 A 
ATOM      3  C   UNL     1       3.281   6.588  18.198  0.00  0.00    +0.000 A 
ATOM      4  C   UNL     1       2.406   7.590  18.609  0.00  0.00    +0.000 A 
ATOM      5 CL   UNL     1       2.133   8.957  17.603  0.00  0.00    +0.000 Cl
ATOM      6  C   UNL     1       1.749   7.495  19.833  0.00  0.00    +0.000 A 
ATOM      7  C   UNL     1       1.966   6.387  20.655  0.00  0.00    +0.000 A 
ATOM      8  C   UNL     1       2.835   5.362  20.254  0.00  0.00    +0.000 A 
BRANCH   8   9
ATOM      9  O   UNL     1       3.089   4.246  21.015  0.00  0.00    +0.000 OA
ATOM     10  C   UNL     1       1.963   3.654  21.661  0.00  0.00    +0.000 C 
ENDBRANCH   8   9
ENDBRANCH   1   2
BRANCH   1  11
ATOM     11  S   UNL     1       5.979   5.118  18.073  0.00  0.00    +0.000 S 
ATOM     12  O   UNL     1       5.997   6.558  18.254  0.00  0.00    +0.000 OA
ATOM     13  O   UNL     1       7.015   4.290  18.656  0.00  0.00    +0.000 OA
BRANCH  11  14
ATOM     14  C   UNL     1       6.050   4.849  16.300  0.00  0.00    +0.000 A 
ATOM     15  C   UNL     1       7.241   5.102  15.607  0.00  0.00    +0.000 A 
ATOM     16  C   UNL     1       7.366   4.712  14.267  0.00  0.00    +0.000 A 
ATOM     17  C   UNL     1       6.315   4.058  13.612  0.00  0.00    +0.000 A 
ATOM     18  C   UNL     1       6.454   3.591  12.191  0.00  0.00    +0.000 C 
ATOM     19  C   UNL     1       5.123   3.822  14.311  0.00  0.00    +0.000 A 
ATOM     20  C   UNL     1       4.995   4.200  15.653  0.00  0.00    +0.000 A 
ENDBRANCH  11  14
ENDBRANCH   1  11
BRANCH   1  21
ATOM     21  C   UNL     1       4.432   3.148  19.144  0.00  0.00    +0.000 C 
BRANCH  21  22
ATOM     22  C   UNL     1       3.585   2.164  18.370  0.00  0.00    +0.000 C 
ATOM     23  O   UNL     1       3.831   0.978  18.205  0.00  0.00    +0.000 OA
BRANCH  22  25
ATOM     24  C   UNL     1       1.248   2.497  18.416  0.00  0.00    +0.000 C 
ATOM     25  O   UNL     1       2.512   2.819  17.831  0.00  0.00    +0.000 OA
ENDBRANCH  22  25
ENDBRANCH  21  22
ENDBRANCH   1  21
TORSDOF 7
ENDMDL
MODEL 9
REMARK VINA RESULT:      -6.7      2.010      4.975
REMARK  Name = 
REMARK  10 active torsions:
REMARK  status: ('A' for Active; 'I' for Inactive)
REMARK    1  A    between atoms: C_1  and  O_2
REMARK    2  A    between atoms: O_2  and  C_3
REMARK    3  A    between atoms: C_3  and  C_5
REMARK    4  A    between atoms: C_5  and  N_6
REMARK    5  A    between atoms: N_6  and  C_7
REMARK    6  A    between atoms: N_6  and  S_16
REMARK    7  A    between atoms: C_13  and  O_14
REMARK    8  A    between atoms: O_14  and  C_15
REMARK    9  A    between atoms: S_16  and  C_19
REMARK   10  A    between atoms: C_22  and  C_23
REMARK                            x       y       z     vdW  Elec       q    Type
REMARK                         _______ _______ _______ _____ _____    ______ ____
ROOT
ATOM      1  N   UNL     1       5.492   4.860  16.769  0.00  0.00    +0.000 N 
ENDROOT
BRANCH   1   2
ATOM      2  C   UNL     1       4.158   5.145  17.243  0.00  0.00    +0.000 A 
ATOM      3  C   UNL     1       3.894   6.466  17.619  0.00  0.00    +0.000 A 
ATOM      4  C   UNL     1       2.647   6.809  18.133  0.00  0.00    +0.000 A 
ATOM      5 CL   UNL     1       2.322   8.436  18.584  0.00  0.00    +0.000 Cl
ATOM      6  C   UNL     1       1.656   5.843  18.286  0.00  0.00    +0.000 A 
ATOM      7  C   UNL     1       1.913   4.519  17.921  0.00  0.00    +0.000 A 
ATOM      8  C   UNL     1       3.160   4.156  17.392  0.00  0.00    +0.000 A 
BRANCH   8   9
ATOM      9  O   UNL     1       3.474   2.873  17.012  0.00  0.00    +0.000 OA
ATOM     10  C   UNL     1       3.166   1.843  17.950  0.00  0.00    +0.000 C 
ENDBRANCH   8   9
ENDBRANCH   1   2
BRANCH   1  11
ATOM     11  S   UNL     1       6.114   5.927  15.593  0.00  0.00    +0.000 S 
ATOM     12  O   UNL     1       5.132   6.954  15.298  0.00  0.00    +0.000 OA
ATOM     13  O   UNL     1       7.468   6.288  15.963  0.00  0.00    +0.000 OA
BRANCH  11  14
ATOM     14  C   UNL     1       6.241   4.932  14.105  0.00  0.00    +0.000 A 
ATOM     15  C   UNL     1       7.383   5.032  13.300  0.00  0.00    +0.000 A 
ATOM     16  C   UNL     1       7.578   4.123  12.250  0.00  0.00    +0.000 A 
ATOM     17  C   UNL     1       6.649   3.106  12.002  0.00  0.00    +0.000 A 
ATOM     18  C   UNL     1       6.871   2.097  10.913  0.00  0.00    +0.000 C 
ATOM     19  C   UNL     1       5.504   3.024  12.807  0.00  0.00    +0.000 A 
ATOM     20  C   UNL     1       5.306   3.921  13.863  0.00  0.00    +0.000 A 
ENDBRANCH  11  14
ENDBRANCH   1  11
BRANCH   1  21
ATOM     21  C   UNL     1       6.456   4.271  17.730  0.00  0.00    +0.000 C 
BRANCH  21  22
ATOM     22  C   UNL     1       6.040   4.443  19.173  0.00  0.00    +0.000 C 
ATOM     23  O   UNL     1       5.321   3.685  19.808  0.00  0.00    +0.000 OA
BRANCH  22  25
ATOM     24  C   UNL     1       7.934   5.841  19.356  0.00  0.00    +0.000 C 
ATOM     25  O   UNL     1       6.554   5.616  19.654  0.00  0.00    +0.000 OA
ENDBRANCH  22  25
ENDBRANCH  21  22
ENDBRANCH   1  21
TORSDOF 7
ENDMDL
