MODEL 1
REMARK VINA RESULT:      -8.1      0.000      0.000
REMARK  Name = 
REMARK  7 active torsions:
REMARK  status: ('A' for Active; 'I' for Inactive)
REMARK    1  A    between atoms: C_1  and  C_2
REMARK    2  A    between atoms: C_2  and  O_3
REMARK    3  A    between atoms: O_3  and  C_4
REMARK    4  A    between atoms: C_4  and  C_6
REMARK    5  A    between atoms: C_9  and  N_10
REMARK    6  A    between atoms: N_10  and  C_11
REMARK    7  A    between atoms: N_18  and  C_19
REMARK                            x       y       z     vdW  Elec       q    Type
REMARK                         _______ _______ _______ _____ _____    ______ ____
ROOT
ATOM      1  C   UNL     1       1.848   5.956  20.892  0.00  0.00    +0.000 C 
ATOM      2  C   UNL     1       2.636   4.925  20.542  0.00  0.00    +0.000 C 
ATOM      3  C   UNL     1       2.332   3.600  21.081  0.00  0.00    +0.000 C 
ATOM      4  O   UNL     1       1.590   3.395  22.038  0.00  0.00    +0.000 OA
ATOM      5  N   UNL     1       2.896   2.577  20.373  0.00  0.00    +0.000 N 
ATOM      6  C   UNL     1       3.693   2.660  19.253  0.00  0.00    +0.000 C 
ATOM      7  S   UNL     1       3.967   1.198  18.466  0.00  0.00    +0.000 S 
ATOM      8  N   UNL     1       4.128   3.941  18.887  0.00  0.00    +0.000 N 
ATOM      9  C   UNL     1       3.733   5.102  19.568  0.00  0.00    +0.000 C 
ATOM     10  O   UNL     1       4.271   6.206  19.451  0.00  0.00    +0.000 OA
ATOM     11  H   UNL     1       2.593   1.650  20.648  0.00  0.00    +0.000 HD
ENDROOT
BRANCH   8  12
ATOM     12  C   UNL     1       5.077   4.153  17.823  0.00  0.00    +0.000 A 
ATOM     13  C   UNL     1       6.422   4.445  18.087  0.00  0.00    +0.000 A 
ATOM     14  C   UNL     1       7.309   4.718  17.041  0.00  0.00    +0.000 A 
ATOM     15  C   UNL     1       6.865   4.709  15.718  0.00  0.00    +0.000 A 
ATOM     16  C   UNL     1       5.532   4.423  15.438  0.00  0.00    +0.000 A 
ATOM     17  C   UNL     1       4.652   4.152  16.483  0.00  0.00    +0.000 A 
ATOM     18  F   UNL     1       3.382   3.842  16.177  0.00  0.00    +0.000 F 
ENDBRANCH   8  12
BRANCH   1  19
ATOM     19  N   UNL     1       1.826   7.230  20.375  0.00  0.00    +0.000 N 
ATOM     20  H   UNL     1       2.458   7.409  19.590  0.00  0.00    +0.000 HD
BRANCH  19  24
ATOM     21  C   UNL     1      -0.089  10.662  21.913  0.00  0.00    +0.000 A 
ATOM     22  C   UNL     1       0.362   9.668  22.785  0.00  0.00    +0.000 A 
ATOM     23  C   UNL     1       0.987   8.524  22.287  0.00  0.00    +0.000 A 
ATOM     24  C   UNL     1       1.205   8.365  20.913  0.00  0.00    +0.000 A 
ATOM     25  C   UNL     1       0.711   9.343  20.042  0.00  0.00    +0.000 A 
ATOM     26  C   UNL     1       0.069  10.484  20.532  0.00  0.00    +0.000 A 
BRANCH  21  27
ATOM     27  C   UNL     1      -0.779  11.841  22.496  0.00  0.00    +0.000 C 
ATOM     28  O   UNL     1      -0.289  12.958  22.544  0.00  0.00    +0.000 OA
BRANCH  27  29
ATOM     29  O   UNL     1      -1.958  11.457  23.040  0.00  0.00    +0.000 OA
BRANCH  29  31
ATOM     30  C   UNL     1      -3.797  12.573  24.063  0.00  0.00    +0.000 C 
ATOM     31  C   UNL     1      -3.066  12.317  22.756  0.00  0.00    +0.000 C 
ENDBRANCH  29  31
ENDBRANCH  27  29
ENDBRANCH  21  27
ENDBRANCH  19  24
ENDBRANCH   1  19
TORSDOF 6
ENDMDL
MODEL 2
REMARK VINA RESULT:      -8.1      0.912      1.514
REMARK  Name = 
REMARK  7 active torsions:
REMARK  status: ('A' for Active; 'I' for Inactive)
REMARK    1  A    between atoms: C_1  and  C_2
REMARK    2  A    between atoms: C_2  and  O_3
REMARK    3  A    between atoms: O_3  and  C_4
REMARK    4  A    between atoms: C_4  and  C_6
REMARK    5  A    between atoms: C_9  and  N_10
REMARK    6  A    between atoms: N_10  and  C_11
REMARK    7  A    between atoms: N_18  and  C_19
REMARK                            x       y       z     vdW  Elec       q    Type
REMARK                         _______ _______ _______ _____ _____    ______ ____
ROOT
ATOM      1  C   UNL     1       1.715   5.971  20.814  0.00  0.00    +0.000 C 
ATOM      2  C   UNL     1       2.551   4.978  20.463  0.00  0.00    +0.000 C 
ATOM      3  C   UNL     1       2.341   3.652  21.043  0.00  0.00    +0.000 C 
ATOM      4  O   UNL     1       1.641   3.429  22.027  0.00  0.00    +0.000 OA
ATOM      5  N   UNL     1       2.942   2.645  20.341  0.00  0.00    +0.000 N 
ATOM      6  C   UNL     1       3.698   2.745  19.195  0.00  0.00    +0.000 C 
ATOM      7  S   UNL     1       4.034   1.282  18.435  0.00  0.00    +0.000 S 
ATOM      8  N   UNL     1       4.048   4.040  18.786  0.00  0.00    +0.000 N 
ATOM      9  C   UNL     1       3.606   5.194  19.452  0.00  0.00    +0.000 C 
ATOM     10  O   UNL     1       4.076   6.323  19.291  0.00  0.00    +0.000 OA
ATOM     11  H   UNL     1       2.701   1.710  20.648  0.00  0.00    +0.000 HD
ENDROOT
BRANCH   8  12
ATOM     12  C   UNL     1       4.950   4.279  17.688  0.00  0.00    +0.000 A 
ATOM     13  C   UNL     1       4.522   4.196  16.355  0.00  0.00    +0.000 A 
ATOM     14  C   UNL     1       5.431   4.361  15.306  0.00  0.00    +0.000 A 
ATOM     15  C   UNL     1       6.779   4.607  15.571  0.00  0.00    +0.000 A 
ATOM     16  C   UNL     1       7.221   4.692  16.888  0.00  0.00    +0.000 A 
ATOM     17  C   UNL     1       6.313   4.526  17.930  0.00  0.00    +0.000 A 
ATOM     18  F   UNL     1       6.763   4.651  19.189  0.00  0.00    +0.000 F 
ENDBRANCH   8  12
BRANCH   1  19
ATOM     19  N   UNL     1       1.604   7.228  20.268  0.00  0.00    +0.000 N 
ATOM     20  H   UNL     1       2.160   7.406  19.427  0.00  0.00    +0.000 HD
BRANCH  19  24
ATOM     21  C   UNL     1      -0.243  10.583  22.040  0.00  0.00    +0.000 A 
ATOM     22  C   UNL     1       0.531  10.744  20.887  0.00  0.00    +0.000 A 
ATOM     23  C   UNL     1       1.154   9.643  20.299  0.00  0.00    +0.000 A 
ATOM     24  C   UNL     1       0.992   8.357  20.829  0.00  0.00    +0.000 A 
ATOM     25  C   UNL     1       0.253   8.210  22.009  0.00  0.00    +0.000 A 
ATOM     26  C   UNL     1      -0.362   9.310  22.614  0.00  0.00    +0.000 A 
BRANCH  21  27
ATOM     27  C   UNL     1      -0.854  11.795  22.643  0.00  0.00    +0.000 C 
ATOM     28  O   UNL     1      -0.336  12.900  22.616  0.00  0.00    +0.000 OA
BRANCH  27  29
ATOM     29  O   UNL     1      -1.993  11.458  23.293  0.00  0.00    +0.000 OA
BRANCH  29  31
ATOM     30  C   UNL     1      -3.893  12.537  24.242  0.00  0.00    +0.000 C 
ATOM     31  C   UNL     1      -3.141  12.244  22.955  0.00  0.00    +0.000 C 
ENDBRANCH  29  31
ENDBRANCH  27  29
ENDBRANCH  21  27
ENDBRANCH  19  24
ENDBRANCH   1  19
TORSDOF 6
ENDMDL
MODEL 3
REMARK VINA RESULT:      -7.9      1.149      1.866
REMARK  Name = 
REMARK  7 active torsions:
REMARK  status: ('A' for Active; 'I' for Inactive)
REMARK    1  A    between atoms: C_1  and  C_2
REMARK    2  A    between atoms: C_2  and  O_3
REMARK    3  A    between atoms: O_3  and  C_4
REMARK    4  A    between atoms: C_4  and  C_6
REMARK    5  A    between atoms: C_9  and  N_10
REMARK    6  A    between atoms: N_10  and  C_11
REMARK    7  A    between atoms: N_18  and  C_19
REMARK                            x       y       z     vdW  Elec       q    Type
REMARK                         _______ _______ _______ _____ _____    ______ ____
ROOT
ATOM      1  C   UNL     1       1.846   6.066  20.865  0.00  0.00    +0.000 C 
ATOM      2  C   UNL     1       2.624   5.047  20.461  0.00  0.00    +0.000 C 
ATOM      3  C   UNL     1       2.358   3.711  20.994  0.00  0.00    +0.000 C 
ATOM      4  O   UNL     1       1.666   3.485  21.982  0.00  0.00    +0.000 OA
ATOM      5  N   UNL     1       2.895   2.704  20.242  0.00  0.00    +0.000 N 
ATOM      6  C   UNL     1       3.635   2.811  19.086  0.00  0.00    +0.000 C 
ATOM      7  S   UNL     1       3.882   1.364  18.264  0.00  0.00    +0.000 S 
ATOM      8  N   UNL     1       4.041   4.101  18.720  0.00  0.00    +0.000 N 
ATOM      9  C   UNL     1       3.671   5.249  19.438  0.00  0.00    +0.000 C 
ATOM     10  O   UNL     1       4.194   6.358  19.311  0.00  0.00    +0.000 OA
ATOM     11  H   UNL     1       2.613   1.771  20.518  0.00  0.00    +0.000 HD
ENDROOT
BRANCH   8  12
ATOM     12  C   UNL     1       4.935   4.338  17.614  0.00  0.00    +0.000 A 
ATOM     13  C   UNL     1       4.485   4.304  16.287  0.00  0.00    +0.000 A 
ATOM     14  C   UNL     1       5.383   4.466  15.227  0.00  0.00    +0.000 A 
ATOM     15  C   UNL     1       6.742   4.659  15.477  0.00  0.00    +0.000 A 
ATOM     16  C   UNL     1       7.206   4.694  16.788  0.00  0.00    +0.000 A 
ATOM     17  C   UNL     1       6.309   4.532  17.840  0.00  0.00    +0.000 A 
ATOM     18  F   UNL     1       6.782   4.608  19.095  0.00  0.00    +0.000 F 
ENDBRANCH   8  12
BRANCH   1  19
ATOM     19  N   UNL     1       1.789   7.347  20.370  0.00  0.00    +0.000 N 
ATOM     20  H   UNL     1       2.424   7.560  19.596  0.00  0.00    +0.000 HD
BRANCH  19  24
ATOM     21  C   UNL     1      -0.252  10.691  21.939  0.00  0.00    +0.000 A 
ATOM     22  C   UNL     1       0.144   9.656  22.791  0.00  0.00    +0.000 A 
ATOM     23  C   UNL     1       0.810   8.541  22.281  0.00  0.00    +0.000 A 
ATOM     24  C   UNL     1       1.124   8.451  20.920  0.00  0.00    +0.000 A 
ATOM     25  C   UNL     1       0.685   9.470  20.066  0.00  0.00    +0.000 A 
ATOM     26  C   UNL     1       0.002  10.583  20.566  0.00  0.00    +0.000 A 
BRANCH  21  27
ATOM     27  C   UNL     1      -0.989  11.836  22.532  0.00  0.00    +0.000 C 
ATOM     28  O   UNL     1      -2.205  11.888  22.619  0.00  0.00    +0.000 OA
BRANCH  27  29
ATOM     29  O   UNL     1      -0.118  12.823  22.853  0.00  0.00    +0.000 OA
BRANCH  29  31
ATOM     30  C   UNL     1       1.180  14.267  21.475  0.00  0.00    +0.000 C 
ATOM     31  C   UNL     1      -0.203  13.998  22.040  0.00  0.00    +0.000 C 
ENDBRANCH  29  31
ENDBRANCH  27  29
ENDBRANCH  21  27
ENDBRANCH  19  24
ENDBRANCH   1  19
TORSDOF 6
ENDMDL
MODEL 4
REMARK VINA RESULT:      -7.9      0.583      1.057
REMARK  Name = 
REMARK  7 active torsions:
REMARK  status: ('A' for Active; 'I' for Inactive)
REMARK    1  A    between atoms: C_1  and  C_2
REMARK    2  A    between atoms: C_2  and  O_3
REMARK    3  A    between atoms: O_3  and  C_4
REMARK    4  A    between atoms: C_4  and  C_6
REMARK    5  A    between atoms: C_9  and  N_10
REMARK    6  A    between atoms: N_10  and  C_11
REMARK    7  A    between atoms: N_18  and  C_19
REMARK                            x       y       z     vdW  Elec       q    Type
REMARK                         _______ _______ _______ _____ _____    ______ ____
ROOT
ATOM      1  C   UNL     1       1.935   6.061  20.768  0.00  0.00    +0.000 C 
ATOM      2  C   UNL     1       2.677   4.995  20.422  0.00  0.00    +0.000 C 
ATOM      3  C   UNL     1       2.284   3.678  20.925  0.00  0.00    +0.000 C 
ATOM      4  O   UNL     1       1.501   3.496  21.852  0.00  0.00    +0.000 OA
ATOM      5  N   UNL     1       2.816   2.639  20.214  0.00  0.00    +0.000 N 
ATOM      6  C   UNL     1       3.652   2.699  19.122  0.00  0.00    +0.000 C 
ATOM      7  S   UNL     1       3.874   1.239  18.315  0.00  0.00    +0.000 S 
ATOM      8  N   UNL     1       4.168   3.961  18.797  0.00  0.00    +0.000 N 
ATOM      9  C   UNL     1       3.814   5.130  19.489  0.00  0.00    +0.000 C 
ATOM     10  O   UNL     1       4.415   6.204  19.411  0.00  0.00    +0.000 OA
ATOM     11  H   UNL     1       2.454   1.726  20.461  0.00  0.00    +0.000 HD
ENDROOT
BRANCH   8  12
ATOM     12  C   UNL     1       5.162   4.141  17.768  0.00  0.00    +0.000 A 
ATOM     13  C   UNL     1       6.506   4.386  18.082  0.00  0.00    +0.000 A 
ATOM     14  C   UNL     1       7.439   4.629  17.069  0.00  0.00    +0.000 A 
ATOM     15  C   UNL     1       7.044   4.636  15.731  0.00  0.00    +0.000 A 
ATOM     16  C   UNL     1       5.713   4.396  15.402  0.00  0.00    +0.000 A 
ATOM     17  C   UNL     1       4.787   4.155  16.413  0.00  0.00    +0.000 A 
ATOM     18  F   UNL     1       3.518   3.889  16.061  0.00  0.00    +0.000 F 
ENDBRANCH   8  12
BRANCH   1  19
ATOM     19  N   UNL     1       1.999   7.343  20.277  0.00  0.00    +0.000 N 
ATOM     20  H   UNL     1       2.832   7.575  19.729  0.00  0.00    +0.000 HD
BRANCH  19  24
ATOM     21  C   UNL     1      -0.463  10.600  21.345  0.00  0.00    +0.000 A 
ATOM     22  C   UNL     1       0.101  10.544  20.067  0.00  0.00    +0.000 A 
ATOM     23  C   UNL     1       0.925   9.477  19.707  0.00  0.00    +0.000 A 
ATOM     24  C   UNL     1       1.175   8.429  20.601  0.00  0.00    +0.000 A 
ATOM     25  C   UNL     1       0.644   8.514  21.894  0.00  0.00    +0.000 A 
ATOM     26  C   UNL     1      -0.169   9.588  22.268  0.00  0.00    +0.000 A 
BRANCH  21  27
ATOM     27  C   UNL     1      -1.302  11.777  21.685  0.00  0.00    +0.000 C 
ATOM     28  O   UNL     1      -1.636  12.628  20.876  0.00  0.00    +0.000 OA
BRANCH  27  29
ATOM     29  O   UNL     1      -1.541  11.800  23.018  0.00  0.00    +0.000 OA
BRANCH  29  31
ATOM     30  C   UNL     1      -3.645  12.458  23.918  0.00  0.00    +0.000 C 
ATOM     31  C   UNL     1      -2.270  12.939  23.485  0.00  0.00    +0.000 C 
ENDBRANCH  29  31
ENDBRANCH  27  29
ENDBRANCH  21  27
ENDBRANCH  19  24
ENDBRANCH   1  19
TORSDOF 6
ENDMDL
MODEL 5
REMARK VINA RESULT:      -7.8      0.936      1.200
REMARK  Name = 
REMARK  7 active torsions:
REMARK  status: ('A' for Active; 'I' for Inactive)
REMARK    1  A    between atoms: C_1  and  C_2
REMARK    2  A    between atoms: C_2  and  O_3
REMARK    3  A    between atoms: O_3  and  C_4
REMARK    4  A    between atoms: C_4  and  C_6
REMARK    5  A    between atoms: C_9  and  N_10
REMARK    6  A    between atoms: N_10  and  C_11
REMARK    7  A    between atoms: N_18  and  C_19
REMARK                            x       y       z     vdW  Elec       q    Type
REMARK                         _______ _______ _______ _____ _____    ______ ____
ROOT
ATOM      1  C   UNL     1       1.877   6.043  20.780  0.00  0.00    +0.000 C 
ATOM      2  C   UNL     1       2.636   4.987  20.437  0.00  0.00    +0.000 C 
ATOM      3  C   UNL     1       2.266   3.667  20.946  0.00  0.00    +0.000 C 
ATOM      4  O   UNL     1       1.488   3.477  21.876  0.00  0.00    +0.000 OA
ATOM      5  N   UNL     1       2.812   2.634  20.238  0.00  0.00    +0.000 N 
ATOM      6  C   UNL     1       3.645   2.702  19.144  0.00  0.00    +0.000 C 
ATOM      7  S   UNL     1       3.889   1.243  18.343  0.00  0.00    +0.000 S 
ATOM      8  N   UNL     1       4.140   3.971  18.812  0.00  0.00    +0.000 N 
ATOM      9  C   UNL     1       3.768   5.137  19.499  0.00  0.00    +0.000 C 
ATOM     10  O   UNL     1       4.351   6.221  19.415  0.00  0.00    +0.000 OA
ATOM     11  H   UNL     1       2.466   1.715  20.490  0.00  0.00    +0.000 HD
ENDROOT
BRANCH   8  12
ATOM     12  C   UNL     1       5.128   4.163  17.780  0.00  0.00    +0.000 A 
ATOM     13  C   UNL     1       6.470   4.424  18.089  0.00  0.00    +0.000 A 
ATOM     14  C   UNL     1       7.397   4.677  17.073  0.00  0.00    +0.000 A 
ATOM     15  C   UNL     1       6.996   4.680  15.736  0.00  0.00    +0.000 A 
ATOM     16  C   UNL     1       5.667   4.424  15.412  0.00  0.00    +0.000 A 
ATOM     17  C   UNL     1       4.748   4.173  16.427  0.00  0.00    +0.000 A 
ATOM     18  F   UNL     1       3.481   3.892  16.079  0.00  0.00    +0.000 F 
ENDBRANCH   8  12
BRANCH   1  19
ATOM     19  N   UNL     1       1.919   7.323  20.283  0.00  0.00    +0.000 N 
ATOM     20  H   UNL     1       2.657   7.519  19.601  0.00  0.00    +0.000 HD
BRANCH  19  24
ATOM     21  C   UNL     1      -0.238  10.715  21.570  0.00  0.00    +0.000 A 
ATOM     22  C   UNL     1       0.149   9.744  22.498  0.00  0.00    +0.000 A 
ATOM     23  C   UNL     1       0.854   8.614  22.082  0.00  0.00    +0.000 A 
ATOM     24  C   UNL     1       1.215   8.446  20.739  0.00  0.00    +0.000 A 
ATOM     25  C   UNL     1       0.785   9.399  19.809  0.00  0.00    +0.000 A 
ATOM     26  C   UNL     1       0.065  10.527  20.215  0.00  0.00    +0.000 A 
BRANCH  21  27
ATOM     27  C   UNL     1      -1.016  11.879  22.065  0.00  0.00    +0.000 C 
ATOM     28  O   UNL     1      -0.937  12.313  23.203  0.00  0.00    +0.000 OA
BRANCH  27  29
ATOM     29  O   UNL     1      -1.873  12.298  21.103  0.00  0.00    +0.000 OA
BRANCH  29  31
ATOM     30  C   UNL     1      -0.890  14.083  19.869  0.00  0.00    +0.000 C 
ATOM     31  C   UNL     1      -1.929  13.716  20.915  0.00  0.00    +0.000 C 
ENDBRANCH  29  31
ENDBRANCH  27  29
ENDBRANCH  21  27
ENDBRANCH  19  24
ENDBRANCH   1  19
TORSDOF 6
ENDMDL
MODEL 6
REMARK VINA RESULT:      -7.8      2.296      2.889
REMARK  Name = 
REMARK  7 active torsions:
REMARK  status: ('A' for Active; 'I' for Inactive)
REMARK    1  A    between atoms: C_1  and  C_2
REMARK    2  A    between atoms: C_2  and  O_3
REMARK    3  A    between atoms: O_3  and  C_4
REMARK    4  A    between atoms: C_4  and  C_6
REMARK    5  A    between atoms: C_9  and  N_10
REMARK    6  A    between atoms: N_10  and  C_11
REMARK    7  A    between atoms: N_18  and  C_19
REMARK                            x       y       z     vdW  Elec       q    Type
REMARK                         _______ _______ _______ _____ _____    ______ ____
ROOT
ATOM      1  C   UNL     1       2.191   6.769  20.078  0.00  0.00    +0.000 C 
ATOM      2  C   UNL     1       2.890   5.660  19.779  0.00  0.00    +0.000 C 
ATOM      3  C   UNL     1       2.548   4.414  20.465  0.00  0.00    +0.000 C 
ATOM      4  O   UNL     1       1.865   4.349  21.483  0.00  0.00    +0.000 OA
ATOM      5  N   UNL     1       2.999   3.294  19.825  0.00  0.00    +0.000 N 
ATOM      6  C   UNL     1       3.717   3.219  18.653  0.00  0.00    +0.000 C 
ATOM      7  S   UNL     1       3.848   1.675  17.997  0.00  0.00    +0.000 S 
ATOM      8  N   UNL     1       4.200   4.429  18.135  0.00  0.00    +0.000 N 
ATOM      9  C   UNL     1       3.924   5.673  18.724  0.00  0.00    +0.000 C 
ATOM     10  O   UNL     1       4.516   6.723  18.464  0.00  0.00    +0.000 OA
ATOM     11  H   UNL     1       2.661   2.420  20.209  0.00  0.00    +0.000 HD
ENDROOT
BRANCH   8  12
ATOM     12  C   UNL     1       5.081   4.478  16.996  0.00  0.00    +0.000 A 
ATOM     13  C   UNL     1       4.587   4.447  15.684  0.00  0.00    +0.000 A 
ATOM     14  C   UNL     1       5.464   4.423  14.595  0.00  0.00    +0.000 A 
ATOM     15  C   UNL     1       6.844   4.425  14.799  0.00  0.00    +0.000 A 
ATOM     16  C   UNL     1       7.351   4.455  16.095  0.00  0.00    +0.000 A 
ATOM     17  C   UNL     1       6.475   4.478  17.176  0.00  0.00    +0.000 A 
ATOM     18  F   UNL     1       6.996   4.546  18.412  0.00  0.00    +0.000 F 
ENDBRANCH   8  12
BRANCH   1  19
ATOM     19  N   UNL     1       2.208   7.987  19.441  0.00  0.00    +0.000 N 
ATOM     20  H   UNL     1       3.122   8.316  19.119  0.00  0.00    +0.000 HD
BRANCH  19  24
ATOM     21  C   UNL     1      -0.928  10.791  19.106  0.00  0.00    +0.000 A 
ATOM     22  C   UNL     1      -0.524  10.348  20.368  0.00  0.00    +0.000 A 
ATOM     23  C   UNL     1       0.505   9.413  20.490  0.00  0.00    +0.000 A 
ATOM     24  C   UNL     1       1.173   8.928  19.359  0.00  0.00    +0.000 A 
ATOM     25  C   UNL     1       0.733   9.342  18.096  0.00  0.00    +0.000 A 
ATOM     26  C   UNL     1      -0.308  10.266  17.964  0.00  0.00    +0.000 A 
BRANCH  21  27
ATOM     27  C   UNL     1      -2.052  11.760  19.035  0.00  0.00    +0.000 C 
ATOM     28  O   UNL     1      -2.588  12.249  20.016  0.00  0.00    +0.000 OA
BRANCH  27  29
ATOM     29  O   UNL     1      -2.435  11.923  17.746  0.00  0.00    +0.000 OA
BRANCH  29  31
ATOM     30  C   UNL     1      -3.611  10.613  16.142  0.00  0.00    +0.000 C 
ATOM     31  C   UNL     1      -3.733  11.412  17.428  0.00  0.00    +0.000 C 
ENDBRANCH  29  31
ENDBRANCH  27  29
ENDBRANCH  21  27
ENDBRANCH  19  24
ENDBRANCH   1  19
TORSDOF 6
ENDMDL
MODEL 7
REMARK VINA RESULT:      -7.8      0.803      1.557
REMARK  Name = 
REMARK  7 active torsions:
REMARK  status: ('A' for Active; 'I' for Inactive)
REMARK    1  A    between atoms: C_1  and  C_2
REMARK    2  A    between atoms: C_2  and  O_3
REMARK    3  A    between atoms: O_3  and  C_4
REMARK    4  A    between atoms: C_4  and  C_6
REMARK    5  A    between atoms: C_9  and  N_10
REMARK    6  A    between atoms: N_10  and  C_11
REMARK    7  A    between atoms: N_18  and  C_19
REMARK                            x       y       z     vdW  Elec       q    Type
REMARK                         _______ _______ _______ _____ _____    ______ ____
ROOT
ATOM      1  C   UNL     1       1.866   5.970  20.836  0.00  0.00    +0.000 C 
ATOM      2  C   UNL     1       2.648   4.933  20.490  0.00  0.00    +0.000 C 
ATOM      3  C   UNL     1       2.329   3.609  21.023  0.00  0.00    +0.000 C 
ATOM      4  O   UNL     1       1.577   3.407  21.972  0.00  0.00    +0.000 OA
ATOM      5  N   UNL     1       2.892   2.583  20.316  0.00  0.00    +0.000 N 
ATOM      6  C   UNL     1       3.699   2.663  19.204  0.00  0.00    +0.000 C 
ATOM      7  S   UNL     1       3.969   1.201  18.415  0.00  0.00    +0.000 S 
ATOM      8  N   UNL     1       4.148   3.942  18.846  0.00  0.00    +0.000 N 
ATOM      9  C   UNL     1       3.756   5.104  19.527  0.00  0.00    +0.000 C 
ATOM     10  O   UNL     1       4.304   6.204  19.417  0.00  0.00    +0.000 OA
ATOM     11  H   UNL     1       2.578   1.658  20.586  0.00  0.00    +0.000 HD
ENDROOT
BRANCH   8  12
ATOM     12  C   UNL     1       5.108   4.150  17.791  0.00  0.00    +0.000 A 
ATOM     13  C   UNL     1       6.448   4.455  18.068  0.00  0.00    +0.000 A 
ATOM     14  C   UNL     1       7.345   4.723  17.029  0.00  0.00    +0.000 A 
ATOM     15  C   UNL     1       6.917   4.696  15.702  0.00  0.00    +0.000 A 
ATOM     16  C   UNL     1       5.590   4.396  15.409  0.00  0.00    +0.000 A 
ATOM     17  C   UNL     1       4.700   4.130  16.446  0.00  0.00    +0.000 A 
ATOM     18  F   UNL     1       3.435   3.807  16.128  0.00  0.00    +0.000 F 
ENDBRANCH   8  12
BRANCH   1  19
ATOM     19  N   UNL     1       1.859   7.245  20.323  0.00  0.00    +0.000 N 
ATOM     20  H   UNL     1       2.549   7.441  19.593  0.00  0.00    +0.000 HD
BRANCH  19  24
ATOM     21  C   UNL     1      -0.173  10.601  21.879  0.00  0.00    +0.000 A 
ATOM     22  C   UNL     1       0.063  10.506  20.504  0.00  0.00    +0.000 A 
ATOM     23  C   UNL     1       0.742   9.406  19.980  0.00  0.00    +0.000 A 
ATOM     24  C   UNL     1       1.171   8.364  20.811  0.00  0.00    +0.000 A 
ATOM     25  C   UNL     1       0.973   8.486  22.192  0.00  0.00    +0.000 A 
ATOM     26  C   UNL     1       0.306   9.593  22.727  0.00  0.00    +0.000 A 
BRANCH  21  27
ATOM     27  C   UNL     1      -0.869  11.811  22.384  0.00  0.00    +0.000 C 
ATOM     28  O   UNL     1      -2.034  11.820  22.750  0.00  0.00    +0.000 OA
BRANCH  27  29
ATOM     29  O   UNL     1      -0.053  12.887  22.277  0.00  0.00    +0.000 OA
BRANCH  29  31
ATOM     30  C   UNL     1       0.365  15.229  22.381  0.00  0.00    +0.000 C 
ATOM     31  C   UNL     1      -0.710  14.157  22.344  0.00  0.00    +0.000 C 
ENDBRANCH  29  31
ENDBRANCH  27  29
ENDBRANCH  21  27
ENDBRANCH  19  24
ENDBRANCH   1  19
TORSDOF 6
ENDMDL
MODEL 8
REMARK VINA RESULT:      -7.8      2.190      2.852
REMARK  Name = 
REMARK  7 active torsions:
REMARK  status: ('A' for Active; 'I' for Inactive)
REMARK    1  A    between atoms: C_1  and  C_2
REMARK    2  A    between atoms: C_2  and  O_3
REMARK    3  A    between atoms: O_3  and  C_4
REMARK    4  A    between atoms: C_4  and  C_6
REMARK    5  A    between atoms: C_9  and  N_10
REMARK    6  A    between atoms: N_10  and  C_11
REMARK    7  A    between atoms: N_18  and  C_19
REMARK                            x       y       z     vdW  Elec       q    Type
REMARK                         _______ _______ _______ _____ _____    ______ ____
ROOT
ATOM      1  C   UNL     1       2.059   6.195  20.781  0.00  0.00    +0.000 C 
ATOM      2  C   UNL     1       2.686   5.087  20.349  0.00  0.00    +0.000 C 
ATOM      3  C   UNL     1       2.110   3.784  20.682  0.00  0.00    +0.000 C 
ATOM      4  O   UNL     1       1.259   3.604  21.547  0.00  0.00    +0.000 OA
ATOM      5  N   UNL     1       2.553   2.769  19.882  0.00  0.00    +0.000 N 
ATOM      6  C   UNL     1       3.452   2.839  18.842  0.00  0.00    +0.000 C 
ATOM      7  S   UNL     1       3.543   1.458  17.885  0.00  0.00    +0.000 S 
ATOM      8  N   UNL     1       4.134   4.054  18.684  0.00  0.00    +0.000 N 
ATOM      9  C   UNL     1       3.883   5.177  19.488  0.00  0.00    +0.000 C 
ATOM     10  O   UNL     1       4.612   6.170  19.558  0.00  0.00    +0.000 OA
ATOM     11  H   UNL     1       2.071   1.887  20.008  0.00  0.00    +0.000 HD
ENDROOT
BRANCH   8  12
ATOM     12  C   UNL     1       5.199   4.217  17.727  0.00  0.00    +0.000 A 
ATOM     13  C   UNL     1       6.534   4.363  18.133  0.00  0.00    +0.000 A 
ATOM     14  C   UNL     1       7.542   4.591  17.191  0.00  0.00    +0.000 A 
ATOM     15  C   UNL     1       7.232   4.682  15.833  0.00  0.00    +0.000 A 
ATOM     16  C   UNL     1       5.913   4.542  15.414  0.00  0.00    +0.000 A 
ATOM     17  C   UNL     1       4.912   4.315  16.355  0.00  0.00    +0.000 A 
ATOM     18  F   UNL     1       3.654   4.146  15.915  0.00  0.00    +0.000 F 
ENDBRANCH   8  12
BRANCH   1  19
ATOM     19  N   UNL     1       2.304   7.503  20.441  0.00  0.00    +0.000 N 
ATOM     20  H   UNL     1       3.192   7.895  20.765  0.00  0.00    +0.000 HD
BRANCH  19  24
ATOM     21  C   UNL     1      -0.373  10.256  18.688  0.00  0.00    +0.000 A 
ATOM     22  C   UNL     1      -0.499   9.928  20.042  0.00  0.00    +0.000 A 
ATOM     23  C   UNL     1       0.374   9.012  20.629  0.00  0.00    +0.000 A 
ATOM     24  C   UNL     1       1.410   8.430  19.888  0.00  0.00    +0.000 A 
ATOM     25  C   UNL     1       1.502   8.727  18.523  0.00  0.00    +0.000 A 
ATOM     26  C   UNL     1       0.621   9.633  17.923  0.00  0.00    +0.000 A 
BRANCH  21  27
ATOM     27  C   UNL     1      -1.352  11.210  18.109  0.00  0.00    +0.000 C 
ATOM     28  O   UNL     1      -1.251  12.423  18.199  0.00  0.00    +0.000 OA
BRANCH  27  29
ATOM     29  O   UNL     1      -2.392  10.529  17.572  0.00  0.00    +0.000 OA
BRANCH  29  31
ATOM     30  C   UNL     1      -2.844   9.987  15.297  0.00  0.00    +0.000 C 
ATOM     31  C   UNL     1      -2.912  11.075  16.355  0.00  0.00    +0.000 C 
ENDBRANCH  29  31
ENDBRANCH  27  29
ENDBRANCH  21  27
ENDBRANCH  19  24
ENDBRANCH   1  19
TORSDOF 6
ENDMDL
MODEL 9
REMARK VINA RESULT:      -7.7      2.265      3.042
REMARK  Name = 
REMARK  7 active torsions:
REMARK  status: ('A' for Active; 'I' for Inactive)
REMARK    1  A    between atoms: C_1  and  C_2
REMARK    2  A    between atoms: C_2  and  O_3
REMARK    3  A    between atoms: O_3  and  C_4
REMARK    4  A    between atoms: C_4  and  C_6
REMARK    5  A    between atoms: C_9  and  N_10
REMARK    6  A    between atoms: N_10  and  C_11
REMARK    7  A    between atoms: N_18  and  C_19
REMARK                            x       y       z     vdW  Elec       q    Type
REMARK                         _______ _______ _______ _____ _____    ______ ____
ROOT
ATOM      1  C   UNL     1       1.951   6.372  20.695  0.00  0.00    +0.000 C 
ATOM      2  C   UNL     1       2.583   5.291  20.205  0.00  0.00    +0.000 C 
ATOM      3  C   UNL     1       2.049   3.967  20.525  0.00  0.00    +0.000 C 
ATOM      4  O   UNL     1       1.240   3.744  21.420  0.00  0.00    +0.000 OA
ATOM      5  N   UNL     1       2.478   2.985  19.677  0.00  0.00    +0.000 N 
ATOM      6  C   UNL     1       3.329   3.104  18.602  0.00  0.00    +0.000 C 
ATOM      7  S   UNL     1       3.408   1.753  17.603  0.00  0.00    +0.000 S 
ATOM      8  N   UNL     1       3.978   4.338  18.451  0.00  0.00    +0.000 N 
ATOM      9  C   UNL     1       3.739   5.432  19.296  0.00  0.00    +0.000 C 
ATOM     10  O   UNL     1       4.449   6.438  19.364  0.00  0.00    +0.000 OA
ATOM     11  H   UNL     1       2.020   2.089  19.798  0.00  0.00    +0.000 HD
ENDROOT
BRANCH   8  12
ATOM     12  C   UNL     1       4.997   4.551  17.454  0.00  0.00    +0.000 A 
ATOM     13  C   UNL     1       4.672   4.779  16.110  0.00  0.00    +0.000 A 
ATOM     14  C   UNL     1       5.679   4.912  15.148  0.00  0.00    +0.000 A 
ATOM     15  C   UNL     1       7.022   4.814  15.513  0.00  0.00    +0.000 A 
ATOM     16  C   UNL     1       7.362   4.587  16.844  0.00  0.00    +0.000 A 
ATOM     17  C   UNL     1       6.357   4.454  17.798  0.00  0.00    +0.000 A 
ATOM     18  F   UNL     1       6.719   4.274  19.079  0.00  0.00    +0.000 F 
ENDBRANCH   8  12
BRANCH   1  19
ATOM     19  N   UNL     1       2.155   7.695  20.383  0.00  0.00    +0.000 N 
ATOM     20  H   UNL     1       3.068   8.083  20.633  0.00  0.00    +0.000 HD
BRANCH  19  24
ATOM     21  C   UNL     1      -0.716  10.550  19.189  0.00  0.00    +0.000 A 
ATOM     22  C   UNL     1       0.216  10.071  18.263  0.00  0.00    +0.000 A 
ATOM     23  C   UNL     1       1.176   9.135  18.650  0.00  0.00    +0.000 A 
ATOM     24  C   UNL     1       1.205   8.633  19.957  0.00  0.00    +0.000 A 
ATOM     25  C   UNL     1       0.298   9.150  20.890  0.00  0.00    +0.000 A 
ATOM     26  C   UNL     1      -0.657  10.100  20.515  0.00  0.00    +0.000 A 
BRANCH  21  27
ATOM     27  C   UNL     1      -1.691  11.571  18.730  0.00  0.00    +0.000 C 
ATOM     28  O   UNL     1      -2.317  12.298  19.485  0.00  0.00    +0.000 OA
BRANCH  27  29
ATOM     29  O   UNL     1      -1.839  11.492  17.386  0.00  0.00    +0.000 OA
BRANCH  29  31
ATOM     30  C   UNL     1      -3.040  10.849  15.432  0.00  0.00    +0.000 C 
ATOM     31  C   UNL     1      -3.107  10.997  16.943  0.00  0.00    +0.000 C 
ENDBRANCH  29  31
ENDBRANCH  27  29
ENDBRANCH  21  27
ENDBRANCH  19  24
ENDBRANCH   1  19
TORSDOF 6
ENDMDL
