MODEL 1
REMARK VINA RESULT:      -8.6      0.000      0.000
REMARK  Name = 
REMARK  9 active torsions:
REMARK  status: ('A' for Active; 'I' for Inactive)
REMARK    1  A    between atoms: C_1  and  C_2
REMARK    2  A    between atoms: C_2  and  C_3
REMARK    3  A    between atoms: C_6  and  C_7
REMARK    4  A    between atoms: C_13  and  N_14
REMARK    5  A    between atoms: N_14  and  C_15
REMARK    6  A    between atoms: C_18  and  C_19
REMARK    7  A    between atoms: C_19  and  C_20
REMARK    8  A    between atoms: C_19  and  C_21
REMARK    9  A    between atoms: C_25  and  C_26
REMARK                            x       y       z     vdW  Elec       q    Type
REMARK                         _______ _______ _______ _____ _____    ______ ____
ROOT
ATOM      1  C   UNL     1       4.435   3.531  18.175  0.00  0.00    +0.000 C 
ATOM      2  O   UNL     1       4.395   2.563  17.422  0.00  0.00    +0.000 OA
ATOM      3  N   UNL     1       3.448   3.731  19.146  0.00  0.00    +0.000 N 
ATOM      4  C   UNL     1       2.518   2.651  19.461  0.00  0.00    +0.000 C 
ATOM      5  C   UNL     1       1.074   3.155  19.523  0.00  0.00    +0.000 C 
ATOM      6  C   UNL     1       0.927   4.338  20.481  0.00  0.00    +0.000 C 
ATOM      7  C   UNL     1       1.881   5.456  20.079  0.00  0.00    +0.000 C 
ATOM      8  C   UNL     1       3.309   4.927  19.970  0.00  0.00    +0.000 C 
ENDROOT
BRANCH   1  12
ATOM      9  C   UNL     1       6.924   6.175  17.582  0.00  0.00    +0.000 A 
ATOM     10  N   UNL     1       7.655   5.203  18.137  0.00  0.00    +0.000 NA
ATOM     11  N   UNL     1       6.749   4.262  18.437  0.00  0.00    +0.000 N 
ATOM     12  C   UNL     1       5.477   4.533  18.003  0.00  0.00    +0.000 A 
ATOM     13  C   UNL     1       5.542   5.843  17.528  0.00  0.00    +0.000 A 
ATOM     14  C   UNL     1       4.480   6.755  17.026  0.00  0.00    +0.000 C 
ATOM     15  H   UNL     1       7.060   3.421  18.915  0.00  0.00    +0.000 HD
BRANCH   9  17
ATOM     16  C   UNL     1       8.255   8.171  18.258  0.00  0.00    +0.000 C 
ATOM     17  C   UNL     1       7.563   7.441  17.118  0.00  0.00    +0.000 C 
ENDBRANCH   9  17
ENDBRANCH   1  12
BRANCH   7  18
ATOM     18  N   UNL     1       1.873   6.532  21.073  0.00  0.00    +0.000 N 
ATOM     19  H   UNL     1       1.615   6.241  22.011  0.00  0.00    +0.000 HD
BRANCH  18  20
ATOM     20  C   UNL     1       1.460   7.820  20.753  0.00  0.00    +0.000 A 
ATOM     21  C   UNL     1       1.670   8.300  19.455  0.00  0.00    +0.000 A 
ATOM     22  C   UNL     1       1.200   9.558  19.055  0.00  0.00    +0.000 A 
ATOM     23  C   UNL     1       0.468  10.357  19.940  0.00  0.00    +0.000 A 
ATOM     24  C   UNL     1       0.250   9.880  21.233  0.00  0.00    +0.000 A 
ATOM     25  C   UNL     1       0.723   8.625  21.626  0.00  0.00    +0.000 A 
BRANCH  23  26
ATOM     26  C   UNL     1      -0.122  11.678  19.482  0.00  0.00    +0.000 C 
ATOM     27  C   UNL     1      -1.453  11.455  18.757  0.00  0.00    +0.000 C 
ATOM     28  C   UNL     1      -0.299  12.662  20.640  0.00  0.00    +0.000 C 
ENDBRANCH  23  26
ENDBRANCH  18  20
ENDBRANCH   7  18
TORSDOF 5
ENDMDL
MODEL 2
REMARK VINA RESULT:      -8.5      1.394      1.939
REMARK  Name = 
REMARK  9 active torsions:
REMARK  status: ('A' for Active; 'I' for Inactive)
REMARK    1  A    between atoms: C_1  and  C_2
REMARK    2  A    between atoms: C_2  and  C_3
REMARK    3  A    between atoms: C_6  and  C_7
REMARK    4  A    between atoms: C_13  and  N_14
REMARK    5  A    between atoms: N_14  and  C_15
REMARK    6  A    between atoms: C_18  and  C_19
REMARK    7  A    between atoms: C_19  and  C_20
REMARK    8  A    between atoms: C_19  and  C_21
REMARK    9  A    between atoms: C_25  and  C_26
REMARK                            x       y       z     vdW  Elec       q    Type
REMARK                         _______ _______ _______ _____ _____    ______ ____
ROOT
ATOM      1  C   UNL     1       5.743   4.662  17.288  0.00  0.00    +0.000 C 
ATOM      2  O   UNL     1       5.999   3.897  16.363  0.00  0.00    +0.000 OA
ATOM      3  N   UNL     1       4.619   4.465  18.097  0.00  0.00    +0.000 N 
ATOM      4  C   UNL     1       3.896   3.199  18.031  0.00  0.00    +0.000 C 
ATOM      5  C   UNL     1       2.384   3.421  17.945  0.00  0.00    +0.000 C 
ATOM      6  C   UNL     1       1.876   4.314  19.078  0.00  0.00    +0.000 C 
ATOM      7  C   UNL     1       2.626   5.640  19.072  0.00  0.00    +0.000 C 
ATOM      8  C   UNL     1       4.134   5.402  19.105  0.00  0.00    +0.000 C 
ENDROOT
BRANCH   1  12
ATOM      9  C   UNL     1       7.860   7.574  18.049  0.00  0.00    +0.000 A 
ATOM     10  N   UNL     1       7.274   7.929  16.901  0.00  0.00    +0.000 NA
ATOM     11  N   UNL     1       6.562   6.845  16.564  0.00  0.00    +0.000 N 
ATOM     12  C   UNL     1       6.572   5.840  17.497  0.00  0.00    +0.000 A 
ATOM     13  C   UNL     1       7.511   6.253  18.443  0.00  0.00    +0.000 A 
ATOM     14  C   UNL     1       8.061   5.562  19.639  0.00  0.00    +0.000 C 
ATOM     15  H   UNL     1       6.047   6.852  15.688  0.00  0.00    +0.000 HD
BRANCH   9  17
ATOM     16  C   UNL     1       8.619   9.938  18.259  0.00  0.00    +0.000 C 
ATOM     17  C   UNL     1       8.777   8.511  18.760  0.00  0.00    +0.000 C 
ENDBRANCH   9  17
ENDBRANCH   1  12
BRANCH   7  18
ATOM     18  N   UNL     1       2.270   6.446  20.242  0.00  0.00    +0.000 N 
ATOM     19  H   UNL     1       1.871   5.920  21.013  0.00  0.00    +0.000 HD
BRANCH  18  20
ATOM     20  C   UNL     1       1.759   7.732  20.116  0.00  0.00    +0.000 A 
ATOM     21  C   UNL     1       1.839   8.379  18.877  0.00  0.00    +0.000 A 
ATOM     22  C   UNL     1       1.266   9.641  18.672  0.00  0.00    +0.000 A 
ATOM     23  C   UNL     1       0.559  10.276  19.699  0.00  0.00    +0.000 A 
ATOM     24  C   UNL     1       0.469   9.632  20.934  0.00  0.00    +0.000 A 
ATOM     25  C   UNL     1       1.045   8.374  21.132  0.00  0.00    +0.000 A 
BRANCH  23  26
ATOM     26  C   UNL     1      -0.142  11.599  19.453  0.00  0.00    +0.000 C 
ATOM     27  C   UNL     1      -0.934  12.031  20.691  0.00  0.00    +0.000 C 
ATOM     28  C   UNL     1       0.835  12.698  19.030  0.00  0.00    +0.000 C 
ENDBRANCH  23  26
ENDBRANCH  18  20
ENDBRANCH   7  18
TORSDOF 5
ENDMDL
MODEL 3
REMARK VINA RESULT:      -8.4      0.383      1.203
REMARK  Name = 
REMARK  9 active torsions:
REMARK  status: ('A' for Active; 'I' for Inactive)
REMARK    1  A    between atoms: C_1  and  C_2
REMARK    2  A    between atoms: C_2  and  C_3
REMARK    3  A    between atoms: C_6  and  C_7
REMARK    4  A    between atoms: C_13  and  N_14
REMARK    5  A    between atoms: N_14  and  C_15
REMARK    6  A    between atoms: C_18  and  C_19
REMARK    7  A    between atoms: C_19  and  C_20
REMARK    8  A    between atoms: C_19  and  C_21
REMARK    9  A    between atoms: C_25  and  C_26
REMARK                            x       y       z     vdW  Elec       q    Type
REMARK                         _______ _______ _______ _____ _____    ______ ____
ROOT
ATOM      1  C   UNL     1       4.384   3.514  18.269  0.00  0.00    +0.000 C 
ATOM      2  O   UNL     1       4.330   2.506  17.573  0.00  0.00    +0.000 OA
ATOM      3  N   UNL     1       3.400   3.784  19.226  0.00  0.00    +0.000 N 
ATOM      4  C   UNL     1       2.453   2.738  19.601  0.00  0.00    +0.000 C 
ATOM      5  C   UNL     1       1.017   3.267  19.632  0.00  0.00    +0.000 C 
ATOM      6  C   UNL     1       0.887   4.505  20.521  0.00  0.00    +0.000 C 
ATOM      7  C   UNL     1       1.858   5.583  20.058  0.00  0.00    +0.000 C 
ATOM      8  C   UNL     1       3.278   5.027  19.980  0.00  0.00    +0.000 C 
ENDROOT
BRANCH   1  12
ATOM      9  C   UNL     1       6.909   6.090  17.539  0.00  0.00    +0.000 A 
ATOM     10  N   UNL     1       7.636   5.114  18.092  0.00  0.00    +0.000 NA
ATOM     11  N   UNL     1       6.720   4.200  18.442  0.00  0.00    +0.000 N 
ATOM     12  C   UNL     1       5.441   4.489  18.043  0.00  0.00    +0.000 A 
ATOM     13  C   UNL     1       5.519   5.787  17.536  0.00  0.00    +0.000 A 
ATOM     14  C   UNL     1       4.461   6.711  17.049  0.00  0.00    +0.000 C 
ATOM     15  H   UNL     1       7.029   3.362  18.928  0.00  0.00    +0.000 HD
BRANCH   9  17
ATOM     16  C   UNL     1       8.141   8.166  18.156  0.00  0.00    +0.000 C 
ATOM     17  C   UNL     1       7.559   7.330  17.027  0.00  0.00    +0.000 C 
ENDBRANCH   9  17
ENDBRANCH   1  12
BRANCH   7  18
ATOM     18  N   UNL     1       1.866   6.715  20.988  0.00  0.00    +0.000 N 
ATOM     19  H   UNL     1       1.756   6.460  21.965  0.00  0.00    +0.000 HD
BRANCH  18  20
ATOM     20  C   UNL     1       1.290   7.935  20.660  0.00  0.00    +0.000 A 
ATOM     21  C   UNL     1       0.436   8.555  21.580  0.00  0.00    +0.000 A 
ATOM     22  C   UNL     1      -0.106   9.825  21.336  0.00  0.00    +0.000 A 
ATOM     23  C   UNL     1       0.227  10.527  20.172  0.00  0.00    +0.000 A 
ATOM     24  C   UNL     1       1.083   9.917  19.255  0.00  0.00    +0.000 A 
ATOM     25  C   UNL     1       1.618   8.650  19.505  0.00  0.00    +0.000 A 
BRANCH  23  26
ATOM     26  C   UNL     1      -0.284  11.938  19.948  0.00  0.00    +0.000 C 
ATOM     27  C   UNL     1       0.880  12.933  19.892  0.00  0.00    +0.000 C 
ATOM     28  C   UNL     1      -1.144  12.046  18.688  0.00  0.00    +0.000 C 
ENDBRANCH  23  26
ENDBRANCH  18  20
ENDBRANCH   7  18
TORSDOF 5
ENDMDL
MODEL 4
REMARK VINA RESULT:      -8.3      1.713      2.540
REMARK  Name = 
REMARK  9 active torsions:
REMARK  status: ('A' for Active; 'I' for Inactive)
REMARK    1  A    between atoms: C_1  and  C_2
REMARK    2  A    between atoms: C_2  and  C_3
REMARK    3  A    between atoms: C_6  and  C_7
REMARK    4  A    between atoms: C_13  and  N_14
REMARK    5  A    between atoms: N_14  and  C_15
REMARK    6  A    between atoms: C_18  and  C_19
REMARK    7  A    between atoms: C_19  and  C_20
REMARK    8  A    between atoms: C_19  and  C_21
REMARK    9  A    between atoms: C_25  and  C_26
REMARK                            x       y       z     vdW  Elec       q    Type
REMARK                         _______ _______ _______ _____ _____    ______ ____
ROOT
ATOM      1  C   UNL     1       6.035   4.803  17.161  0.00  0.00    +0.000 C 
ATOM      2  O   UNL     1       6.435   4.017  16.309  0.00  0.00    +0.000 OA
ATOM      3  N   UNL     1       4.806   4.611  17.801  0.00  0.00    +0.000 N 
ATOM      4  C   UNL     1       4.117   3.331  17.668  0.00  0.00    +0.000 C 
ATOM      5  C   UNL     1       2.632   3.524  17.352  0.00  0.00    +0.000 C 
ATOM      6  C   UNL     1       1.950   4.440  18.369  0.00  0.00    +0.000 C 
ATOM      7  C   UNL     1       2.676   5.778  18.433  0.00  0.00    +0.000 C 
ATOM      8  C   UNL     1       4.165   5.568  18.696  0.00  0.00    +0.000 C 
ENDROOT
BRANCH   1  12
ATOM      9  C   UNL     1       8.005   7.756  18.132  0.00  0.00    +0.000 A 
ATOM     10  N   UNL     1       7.450   8.139  16.977  0.00  0.00    +0.000 NA
ATOM     11  N   UNL     1       6.795   7.045  16.566  0.00  0.00    +0.000 N 
ATOM     12  C   UNL     1       6.809   6.001  17.454  0.00  0.00    +0.000 A 
ATOM     13  C   UNL     1       7.694   6.406  18.454  0.00  0.00    +0.000 A 
ATOM     14  C   UNL     1       8.224   5.684  19.640  0.00  0.00    +0.000 C 
ATOM     15  H   UNL     1       6.314   7.073  15.671  0.00  0.00    +0.000 HD
BRANCH   9  17
ATOM     16  C   UNL     1       8.903  10.076  18.285  0.00  0.00    +0.000 C 
ATOM     17  C   UNL     1       8.856   8.694  18.919  0.00  0.00    +0.000 C 
ENDBRANCH   9  17
ENDBRANCH   1  12
BRANCH   7  18
ATOM     18  N   UNL     1       2.139   6.612  19.512  0.00  0.00    +0.000 N 
ATOM     19  H   UNL     1       1.540   6.121  20.168  0.00  0.00    +0.000 HD
BRANCH  18  20
ATOM     20  C   UNL     1       1.773   7.935  19.300  0.00  0.00    +0.000 A 
ATOM     21  C   UNL     1       1.158   8.646  20.338  0.00  0.00    +0.000 A 
ATOM     22  C   UNL     1       0.843  10.005  20.208  0.00  0.00    +0.000 A 
ATOM     23  C   UNL     1       1.174  10.703  19.041  0.00  0.00    +0.000 A 
ATOM     24  C   UNL     1       1.794  10.001  18.006  0.00  0.00    +0.000 A 
ATOM     25  C   UNL     1       2.103   8.644  18.142  0.00  0.00    +0.000 A 
BRANCH  23  26
ATOM     26  C   UNL     1       0.918  12.195  18.932  0.00  0.00    +0.000 C 
ATOM     27  C   UNL     1       0.643  12.799  20.313  0.00  0.00    +0.000 C 
ATOM     28  C   UNL     1       2.072  12.928  18.245  0.00  0.00    +0.000 C 
ENDBRANCH  23  26
ENDBRANCH  18  20
ENDBRANCH   7  18
TORSDOF 5
ENDMDL
MODEL 5
REMARK VINA RESULT:      -8.2      1.269      1.917
REMARK  Name = 
REMARK  9 active torsions:
REMARK  status: ('A' for Active; 'I' for Inactive)
REMARK    1  A    between atoms: C_1  and  C_2
REMARK    2  A    between atoms: C_2  and  C_3
REMARK    3  A    between atoms: C_6  and  C_7
REMARK    4  A    between atoms: C_13  and  N_14
REMARK    5  A    between atoms: N_14  and  C_15
REMARK    6  A    between atoms: C_18  and  C_19
REMARK    7  A    between atoms: C_19  and  C_20
REMARK    8  A    between atoms: C_19  and  C_21
REMARK    9  A    between atoms: C_25  and  C_26
REMARK                            x       y       z     vdW  Elec       q    Type
REMARK                         _______ _______ _______ _____ _____    ______ ____
ROOT
ATOM      1  C   UNL     1       5.387   4.552  17.410  0.00  0.00    +0.000 C 
ATOM      2  O   UNL     1       5.555   3.747  16.499  0.00  0.00    +0.000 OA
ATOM      3  N   UNL     1       4.307   4.431  18.291  0.00  0.00    +0.000 N 
ATOM      4  C   UNL     1       3.528   3.196  18.310  0.00  0.00    +0.000 C 
ATOM      5  C   UNL     1       2.025   3.480  18.306  0.00  0.00    +0.000 C 
ATOM      6  C   UNL     1       1.623   4.431  19.434  0.00  0.00    +0.000 C 
ATOM      7  C   UNL     1       2.426   5.722  19.339  0.00  0.00    +0.000 C 
ATOM      8  C   UNL     1       3.922   5.420  19.291  0.00  0.00    +0.000 C 
ENDROOT
BRANCH   1  12
ATOM      9  C   UNL     1       7.656   7.398  17.946  0.00  0.00    +0.000 A 
ATOM     10  N   UNL     1       7.058   7.713  16.793  0.00  0.00    +0.000 NA
ATOM     11  N   UNL     1       6.288   6.646  16.538  0.00  0.00    +0.000 N 
ATOM     12  C   UNL     1       6.275   5.699  17.529  0.00  0.00    +0.000 A 
ATOM     13  C   UNL     1       7.257   6.121  18.427  0.00  0.00    +0.000 A 
ATOM     14  C   UNL     1       7.804   5.476  19.649  0.00  0.00    +0.000 C 
ATOM     15  H   UNL     1       5.752   6.627  15.675  0.00  0.00    +0.000 HD
BRANCH   9  17
ATOM     16  C   UNL     1       8.415   9.765  18.125  0.00  0.00    +0.000 C 
ATOM     17  C   UNL     1       8.634   8.330  18.579  0.00  0.00    +0.000 C 
ENDBRANCH   9  17
ENDBRANCH   1  12
BRANCH   7  18
ATOM     18  N   UNL     1       2.175   6.581  20.499  0.00  0.00    +0.000 N 
ATOM     19  H   UNL     1       1.865   6.088  21.331  0.00  0.00    +0.000 HD
BRANCH  18  20
ATOM     20  C   UNL     1       1.629   7.851  20.365  0.00  0.00    +0.000 A 
ATOM     21  C   UNL     1       1.150   8.511  21.503  0.00  0.00    +0.000 A 
ATOM     22  C   UNL     1       0.666   9.825  21.438  0.00  0.00    +0.000 A 
ATOM     23  C   UNL     1       0.685  10.530  20.230  0.00  0.00    +0.000 A 
ATOM     24  C   UNL     1       1.168   9.879  19.093  0.00  0.00    +0.000 A 
ATOM     25  C   UNL     1       1.648   8.568  19.166  0.00  0.00    +0.000 A 
BRANCH  23  26
ATOM     26  C   UNL     1       0.249  11.982  20.174  0.00  0.00    +0.000 C 
ATOM     27  C   UNL     1      -0.687  12.222  18.985  0.00  0.00    +0.000 C 
ATOM     28  C   UNL     1      -0.412  12.435  21.478  0.00  0.00    +0.000 C 
ENDBRANCH  23  26
ENDBRANCH  18  20
ENDBRANCH   7  18
TORSDOF 5
ENDMDL
MODEL 6
REMARK VINA RESULT:      -8.1      1.094      1.494
REMARK  Name = 
REMARK  9 active torsions:
REMARK  status: ('A' for Active; 'I' for Inactive)
REMARK    1  A    between atoms: C_1  and  C_2
REMARK    2  A    between atoms: C_2  and  C_3
REMARK    3  A    between atoms: C_6  and  C_7
REMARK    4  A    between atoms: C_13  and  N_14
REMARK    5  A    between atoms: N_14  and  C_15
REMARK    6  A    between atoms: C_18  and  C_19
REMARK    7  A    between atoms: C_19  and  C_20
REMARK    8  A    between atoms: C_19  and  C_21
REMARK    9  A    between atoms: C_25  and  C_26
REMARK                            x       y       z     vdW  Elec       q    Type
REMARK                         _______ _______ _______ _____ _____    ______ ____
ROOT
ATOM      1  C   UNL     1       4.803   4.243  17.811  0.00  0.00    +0.000 C 
ATOM      2  O   UNL     1       4.840   3.312  17.013  0.00  0.00    +0.000 OA
ATOM      3  N   UNL     1       3.822   4.301  18.807  0.00  0.00    +0.000 N 
ATOM      4  C   UNL     1       3.007   3.122  19.085  0.00  0.00    +0.000 C 
ATOM      5  C   UNL     1       1.523   3.480  19.195  0.00  0.00    +0.000 C 
ATOM      6  C   UNL     1       1.283   4.597  20.211  0.00  0.00    +0.000 C 
ATOM      7  C   UNL     1       2.117   5.820  19.849  0.00  0.00    +0.000 C 
ATOM      8  C   UNL     1       3.586   5.438  19.690  0.00  0.00    +0.000 C 
ENDROOT
BRANCH   1  12
ATOM      9  C   UNL     1       7.214   7.020  17.696  0.00  0.00    +0.000 A 
ATOM     10  N   UNL     1       6.527   7.180  16.560  0.00  0.00    +0.000 NA
ATOM     11  N   UNL     1       5.699   6.127  16.544  0.00  0.00    +0.000 N 
ATOM     12  C   UNL     1       5.739   5.348  17.671  0.00  0.00    +0.000 A 
ATOM     13  C   UNL     1       6.812   5.855  18.406  0.00  0.00    +0.000 A 
ATOM     14  C   UNL     1       7.443   5.383  19.667  0.00  0.00    +0.000 C 
ATOM     15  H   UNL     1       5.087   6.001  15.742  0.00  0.00    +0.000 HD
BRANCH   9  17
ATOM     16  C   UNL     1       7.907   9.414  17.708  0.00  0.00    +0.000 C 
ATOM     17  C   UNL     1       8.278   7.989  18.088  0.00  0.00    +0.000 C 
ENDBRANCH   9  17
ENDBRANCH   1  12
BRANCH   7  18
ATOM     18  N   UNL     1       2.026   6.843  20.893  0.00  0.00    +0.000 N 
ATOM     19  H   UNL     1       1.865   6.480  21.828  0.00  0.00    +0.000 HD
BRANCH  18  20
ATOM     20  C   UNL     1       1.429   8.075  20.660  0.00  0.00    +0.000 A 
ATOM     21  C   UNL     1       1.620   8.702  19.422  0.00  0.00    +0.000 A 
ATOM     22  C   UNL     1       0.975   9.904  19.103  0.00  0.00    +0.000 A 
ATOM     23  C   UNL     1       0.086  10.495  20.007  0.00  0.00    +0.000 A 
ATOM     24  C   UNL     1      -0.114   9.871  21.239  0.00  0.00    +0.000 A 
ATOM     25  C   UNL     1       0.534   8.673  21.551  0.00  0.00    +0.000 A 
BRANCH  23  26
ATOM     26  C   UNL     1      -0.684  11.747  19.628  0.00  0.00    +0.000 C 
ATOM     27  C   UNL     1       0.155  12.644  18.713  0.00  0.00    +0.000 C 
ATOM     28  C   UNL     1      -2.028  11.420  18.974  0.00  0.00    +0.000 C 
ENDBRANCH  23  26
ENDBRANCH  18  20
ENDBRANCH   7  18
TORSDOF 5
ENDMDL
MODEL 7
REMARK VINA RESULT:      -7.8      1.124      1.780
REMARK  Name = 
REMARK  9 active torsions:
REMARK  status: ('A' for Active; 'I' for Inactive)
REMARK    1  A    between atoms: C_1  and  C_2
REMARK    2  A    between atoms: C_2  and  C_3
REMARK    3  A    between atoms: C_6  and  C_7
REMARK    4  A    between atoms: C_13  and  N_14
REMARK    5  A    between atoms: N_14  and  C_15
REMARK    6  A    between atoms: C_18  and  C_19
REMARK    7  A    between atoms: C_19  and  C_20
REMARK    8  A    between atoms: C_19  and  C_21
REMARK    9  A    between atoms: C_25  and  C_26
REMARK                            x       y       z     vdW  Elec       q    Type
REMARK                         _______ _______ _______ _____ _____    ______ ____
ROOT
ATOM      1  C   UNL     1       4.650   4.177  17.936  0.00  0.00    +0.000 C 
ATOM      2  O   UNL     1       4.653   3.186  17.213  0.00  0.00    +0.000 OA
ATOM      3  N   UNL     1       3.712   4.319  18.964  0.00  0.00    +0.000 N 
ATOM      4  C   UNL     1       2.906   3.170  19.367  0.00  0.00    +0.000 C 
ATOM      5  C   UNL     1       1.429   3.543  19.510  0.00  0.00    +0.000 C 
ATOM      6  C   UNL     1       1.233   4.738  20.443  0.00  0.00    +0.000 C 
ATOM      7  C   UNL     1       2.054   5.924  19.952  0.00  0.00    +0.000 C 
ATOM      8  C   UNL     1       3.514   5.523  19.764  0.00  0.00    +0.000 C 
ENDROOT
BRANCH   1  12
ATOM      9  C   UNL     1       7.064   6.921  17.504  0.00  0.00    +0.000 A 
ATOM     10  N   UNL     1       6.315   7.013  16.401  0.00  0.00    +0.000 NA
ATOM     11  N   UNL     1       5.481   5.968  16.500  0.00  0.00    +0.000 N 
ATOM     12  C   UNL     1       5.583   5.263  17.672  0.00  0.00    +0.000 A 
ATOM     13  C   UNL     1       6.698   5.808  18.310  0.00  0.00    +0.000 A 
ATOM     14  C   UNL     1       7.398   5.412  19.561  0.00  0.00    +0.000 C 
ATOM     15  H   UNL     1       4.824   5.795  15.745  0.00  0.00    +0.000 HD
BRANCH   9  17
ATOM     16  C   UNL     1       7.633   9.332  17.769  0.00  0.00    +0.000 C 
ATOM     17  C   UNL     1       8.154   7.904  17.771  0.00  0.00    +0.000 C 
ENDBRANCH   9  17
ENDBRANCH   1  12
BRANCH   7  18
ATOM     18  N   UNL     1       2.008   7.027  20.916  0.00  0.00    +0.000 N 
ATOM     19  H   UNL     1       1.919   6.738  21.885  0.00  0.00    +0.000 HD
BRANCH  18  20
ATOM     20  C   UNL     1       1.366   8.224  20.627  0.00  0.00    +0.000 A 
ATOM     21  C   UNL     1       0.680   8.894  21.648  0.00  0.00    +0.000 A 
ATOM     22  C   UNL     1       0.086  10.145  21.433  0.00  0.00    +0.000 A 
ATOM     23  C   UNL     1       0.197  10.780  20.191  0.00  0.00    +0.000 A 
ATOM     24  C   UNL     1       0.886  10.120  19.172  0.00  0.00    +0.000 A 
ATOM     25  C   UNL     1       1.474   8.872  19.393  0.00  0.00    +0.000 A 
BRANCH  23  26
ATOM     26  C   UNL     1      -0.364  12.174  19.982  0.00  0.00    +0.000 C 
ATOM     27  C   UNL     1       0.691  13.237  20.304  0.00  0.00    +0.000 C 
ATOM     28  C   UNL     1      -0.909  12.369  18.566  0.00  0.00    +0.000 C 
ENDBRANCH  23  26
ENDBRANCH  18  20
ENDBRANCH   7  18
TORSDOF 5
ENDMDL
MODEL 8
REMARK VINA RESULT:      -7.5      1.514      1.747
REMARK  Name = 
REMARK  9 active torsions:
REMARK  status: ('A' for Active; 'I' for Inactive)
REMARK    1  A    between atoms: C_1  and  C_2
REMARK    2  A    between atoms: C_2  and  C_3
REMARK    3  A    between atoms: C_6  and  C_7
REMARK    4  A    between atoms: C_13  and  N_14
REMARK    5  A    between atoms: N_14  and  C_15
REMARK    6  A    between atoms: C_18  and  C_19
REMARK    7  A    between atoms: C_19  and  C_20
REMARK    8  A    between atoms: C_19  and  C_21
REMARK    9  A    between atoms: C_25  and  C_26
REMARK                            x       y       z     vdW  Elec       q    Type
REMARK                         _______ _______ _______ _____ _____    ______ ____
ROOT
ATOM      1  C   UNL     1       4.169   2.977  18.569  0.00  0.00    +0.000 C 
ATOM      2  O   UNL     1       3.920   1.803  18.314  0.00  0.00    +0.000 OA
ATOM      3  N   UNL     1       3.414   3.688  19.508  0.00  0.00    +0.000 N 
ATOM      4  C   UNL     1       2.506   2.968  20.396  0.00  0.00    +0.000 C 
ATOM      5  C   UNL     1       1.137   3.649  20.470  0.00  0.00    +0.000 C 
ATOM      6  C   UNL     1       1.258   5.126  20.845  0.00  0.00    +0.000 C 
ATOM      7  C   UNL     1       2.174   5.842  19.861  0.00  0.00    +0.000 C 
ATOM      8  C   UNL     1       3.516   5.121  19.758  0.00  0.00    +0.000 C 
ENDROOT
BRANCH   1  12
ATOM      9  C   UNL     1       6.678   4.680  16.484  0.00  0.00    +0.000 A 
ATOM     10  N   UNL     1       7.346   4.449  17.618  0.00  0.00    +0.000 NA
ATOM     11  N   UNL     1       6.422   3.903  18.421  0.00  0.00    +0.000 N 
ATOM     12  C   UNL     1       5.210   3.669  17.824  0.00  0.00    +0.000 A 
ATOM     13  C   UNL     1       5.318   4.272  16.570  0.00  0.00    +0.000 A 
ATOM     14  C   UNL     1       4.315   4.465  15.490  0.00  0.00    +0.000 C 
ATOM     15  H   UNL     1       6.682   3.671  19.376  0.00  0.00    +0.000 HD
BRANCH   9  17
ATOM     16  C   UNL     1       7.094   4.543  14.030  0.00  0.00    +0.000 C 
ATOM     17  C   UNL     1       7.353   5.315  15.315  0.00  0.00    +0.000 C 
ENDBRANCH   9  17
ENDBRANCH   1  12
BRANCH   7  18
ATOM     18  N   UNL     1       2.431   7.218  20.292  0.00  0.00    +0.000 N 
ATOM     19  H   UNL     1       2.768   7.307  21.245  0.00  0.00    +0.000 HD
BRANCH  18  20
ATOM     20  C   UNL     1       1.630   8.275  19.880  0.00  0.00    +0.000 A 
ATOM     21  C   UNL     1       1.664   8.674  18.538  0.00  0.00    +0.000 A 
ATOM     22  C   UNL     1       0.817   9.678  18.051  0.00  0.00    +0.000 A 
ATOM     23  C   UNL     1      -0.121  10.287  18.892  0.00  0.00    +0.000 A 
ATOM     24  C   UNL     1      -0.165   9.888  20.229  0.00  0.00    +0.000 A 
ATOM     25  C   UNL     1       0.685   8.887  20.708  0.00  0.00    +0.000 A 
BRANCH  23  26
ATOM     26  C   UNL     1      -1.102  11.308  18.347  0.00  0.00    +0.000 C 
ATOM     27  C   UNL     1      -2.193  10.622  17.518  0.00  0.00    +0.000 C 
ATOM     28  C   UNL     1      -1.725  12.158  19.456  0.00  0.00    +0.000 C 
ENDBRANCH  23  26
ENDBRANCH  18  20
ENDBRANCH   7  18
TORSDOF 5
ENDMDL
MODEL 9
REMARK VINA RESULT:      -7.4      1.034      1.684
REMARK  Name = 
REMARK  9 active torsions:
REMARK  status: ('A' for Active; 'I' for Inactive)
REMARK    1  A    between atoms: C_1  and  C_2
REMARK    2  A    between atoms: C_2  and  C_3
REMARK    3  A    between atoms: C_6  and  C_7
REMARK    4  A    between atoms: C_13  and  N_14
REMARK    5  A    between atoms: N_14  and  C_15
REMARK    6  A    between atoms: C_18  and  C_19
REMARK    7  A    between atoms: C_19  and  C_20
REMARK    8  A    between atoms: C_19  and  C_21
REMARK    9  A    between atoms: C_25  and  C_26
REMARK                            x       y       z     vdW  Elec       q    Type
REMARK                         _______ _______ _______ _____ _____    ______ ____
ROOT
ATOM      1  C   UNL     1       5.645   4.400  17.881  0.00  0.00    +0.000 C 
ATOM      2  O   UNL     1       5.936   3.544  17.052  0.00  0.00    +0.000 OA
ATOM      3  N   UNL     1       4.511   4.266  18.690  0.00  0.00    +0.000 N 
ATOM      4  C   UNL     1       3.819   2.982  18.754  0.00  0.00    +0.000 C 
ATOM      5  C   UNL     1       2.305   3.154  18.621  0.00  0.00    +0.000 C 
ATOM      6  C   UNL     1       1.755   4.155  19.638  0.00  0.00    +0.000 C 
ATOM      7  C   UNL     1       2.473   5.491  19.495  0.00  0.00    +0.000 C 
ATOM      8  C   UNL     1       3.985   5.297  19.578  0.00  0.00    +0.000 C 
ENDROOT
BRANCH   1  12
ATOM      9  C   UNL     1       7.543   7.552  17.907  0.00  0.00    +0.000 A 
ATOM     10  N   UNL     1       8.291   6.753  18.674  0.00  0.00    +0.000 NA
ATOM     11  N   UNL     1       7.572   5.624  18.745  0.00  0.00    +0.000 N 
ATOM     12  C   UNL     1       6.441   5.615  17.969  0.00  0.00    +0.000 A 
ATOM     13  C   UNL     1       6.340   6.921  17.486  0.00  0.00    +0.000 A 
ATOM     14  C   UNL     1       5.281   7.585  16.682  0.00  0.00    +0.000 C 
ATOM     15  H   UNL     1       7.919   4.860  19.318  0.00  0.00    +0.000 HD
BRANCH   9  17
ATOM     16  C   UNL     1       8.865   9.512  18.695  0.00  0.00    +0.000 C 
ATOM     17  C   UNL     1       7.984   8.942  17.594  0.00  0.00    +0.000 C 
ENDBRANCH   9  17
ENDBRANCH   1  12
BRANCH   7  18
ATOM     18  N   UNL     1       2.077   6.414  20.562  0.00  0.00    +0.000 N 
ATOM     19  H   UNL     1       1.622   5.973  21.356  0.00  0.00    +0.000 HD
BRANCH  18  20
ATOM     20  C   UNL     1       1.607   7.692  20.286  0.00  0.00    +0.000 A 
ATOM     21  C   UNL     1       1.070   8.460  21.326  0.00  0.00    +0.000 A 
ATOM     22  C   UNL     1       0.658   9.784  21.122  0.00  0.00    +0.000 A 
ATOM     23  C   UNL     1       0.811  10.390  19.871  0.00  0.00    +0.000 A 
ATOM     24  C   UNL     1       1.353   9.631  18.832  0.00  0.00    +0.000 A 
ATOM     25  C   UNL     1       1.760   8.311  19.043  0.00  0.00    +0.000 A 
BRANCH  23  26
ATOM     26  C   UNL     1       0.453  11.851  19.669  0.00  0.00    +0.000 C 
ATOM     27  C   UNL     1       1.679  12.652  19.219  0.00  0.00    +0.000 C 
ATOM     28  C   UNL     1      -0.699  12.030  18.680  0.00  0.00    +0.000 C 
ENDBRANCH  23  26
ENDBRANCH  18  20
ENDBRANCH   7  18
TORSDOF 5
ENDMDL
