MODEL 1
REMARK VINA RESULT:      -8.0      0.000      0.000
REMARK  Name = 
REMARK  1 active torsions:
REMARK  status: ('A' for Active; 'I' for Inactive)
REMARK    1  A    between atoms: C_2  and  C_3
REMARK                            x       y       z     vdW  Elec       q    Type
REMARK                         _______ _______ _______ _____ _____    ______ ____
ROOT
ATOM      1  C   UNL     1       5.651   4.670  16.672  0.00  0.00    +0.000 A 
ATOM      2  C   UNL     1       5.121   4.274  15.501  0.00  0.00    +0.000 A 
ATOM      3  C   UNL     1       5.910   4.240  14.295  0.00  0.00    +0.000 A 
ATOM      4  C   UNL     1       5.522   3.479  13.191  0.00  0.00    +0.000 A 
ATOM      5  C   UNL     1       6.264   3.547  12.014  0.00  0.00    +0.000 A 
ATOM      6  C   UNL     1       7.381   4.382  11.943  0.00  0.00    +0.000 A 
ATOM      7  C   UNL     1       7.801   5.101  13.068  0.00  0.00    +0.000 A 
ATOM      8  C   UNL     1       7.069   4.994  14.246  0.00  0.00    +0.000 A 
ATOM      9  O   UNL     1       7.546   5.612  15.416  0.00  0.00    +0.000 OA
ATOM     10  C   UNL     1       6.974   5.347  16.677  0.00  0.00    +0.000 A 
ATOM     11  O   UNL     1       7.552   5.694  17.700  0.00  0.00    +0.000 OA
ENDROOT
BRANCH   1  13
ATOM     12  O   UNL     1       4.820   3.458  18.504  0.00  0.00    +0.000 OA
ATOM     13  C   UNL     1       4.821   4.535  17.908  0.00  0.00    +0.000 C 
ATOM     14  N   UNL     1       4.093   5.628  18.391  0.00  0.00    +0.000 N 
ATOM     15  C   UNL     1       3.591   5.564  19.770  0.00  0.00    +0.000 C 
ATOM     16  C   UNL     1       2.210   6.211  19.894  0.00  0.00    +0.000 C 
ATOM     17  O   UNL     1       2.224   7.560  19.402  0.00  0.00    +0.000 OA
ATOM     18  C   UNL     1       2.568   7.570  18.014  0.00  0.00    +0.000 C 
ATOM     19  C   UNL     1       3.951   6.963  17.783  0.00  0.00    +0.000 C 
ENDBRANCH   1  13
TORSDOF 1
ENDMDL
MODEL 2
REMARK VINA RESULT:      -7.5      1.554      2.407
REMARK  Name = 
REMARK  1 active torsions:
REMARK  status: ('A' for Active; 'I' for Inactive)
REMARK    1  A    between atoms: C_2  and  C_3
REMARK                            x       y       z     vdW  Elec       q    Type
REMARK                         _______ _______ _______ _____ _____    ______ ____
ROOT
ATOM      1  C   UNL     1       5.446   5.073  16.627  0.00  0.00    +0.000 A 
ATOM      2  C   UNL     1       4.899   4.666  15.468  0.00  0.00    +0.000 A 
ATOM      3  C   UNL     1       5.711   4.408  14.305  0.00  0.00    +0.000 A 
ATOM      4  C   UNL     1       5.245   3.625  13.248  0.00  0.00    +0.000 A 
ATOM      5  C   UNL     1       6.026   3.477  12.105  0.00  0.00    +0.000 A 
ATOM      6  C   UNL     1       7.263   4.120  12.019  0.00  0.00    +0.000 A 
ATOM      7  C   UNL     1       7.754   4.858  13.102  0.00  0.00    +0.000 A 
ATOM      8  C   UNL     1       6.976   4.967  14.250  0.00  0.00    +0.000 A 
ATOM      9  O   UNL     1       7.507   5.600  15.389  0.00  0.00    +0.000 OA
ATOM     10  C   UNL     1       6.859   5.535  16.638  0.00  0.00    +0.000 A 
ATOM     11  O   UNL     1       7.450   5.874  17.656  0.00  0.00    +0.000 OA
ENDROOT
BRANCH   1  13
ATOM     12  O   UNL     1       4.520   6.242  18.440  0.00  0.00    +0.000 OA
ATOM     13  C   UNL     1       4.565   5.174  17.831  0.00  0.00    +0.000 C 
ATOM     14  N   UNL     1       3.783   4.082  18.226  0.00  0.00    +0.000 N 
ATOM     15  C   UNL     1       2.688   4.329  19.172  0.00  0.00    +0.000 C 
ATOM     16  C   UNL     1       2.535   3.174  20.165  0.00  0.00    +0.000 C 
ATOM     17  O   UNL     1       2.367   1.923  19.479  0.00  0.00    +0.000 OA
ATOM     18  C   UNL     1       3.521   1.641  18.684  0.00  0.00    +0.000 C 
ATOM     19  C   UNL     1       3.751   2.732  17.638  0.00  0.00    +0.000 C 
ENDBRANCH   1  13
TORSDOF 1
ENDMDL
MODEL 3
REMARK VINA RESULT:      -7.4      2.060      6.836
REMARK  Name = 
REMARK  1 active torsions:
REMARK  status: ('A' for Active; 'I' for Inactive)
REMARK    1  A    between atoms: C_2  and  C_3
REMARK                            x       y       z     vdW  Elec       q    Type
REMARK                         _______ _______ _______ _____ _____    ______ ____
ROOT
ATOM      1  C   UNL     1       2.971   6.309  18.335  0.00  0.00    +0.000 A 
ATOM      2  C   UNL     1       2.483   7.425  17.766  0.00  0.00    +0.000 A 
ATOM      3  C   UNL     1       1.938   8.496  18.564  0.00  0.00    +0.000 A 
ATOM      4  C   UNL     1       1.801   9.788  18.055  0.00  0.00    +0.000 A 
ATOM      5  C   UNL     1       1.185  10.770  18.827  0.00  0.00    +0.000 A 
ATOM      6  C   UNL     1       0.701  10.453  20.098  0.00  0.00    +0.000 A 
ATOM      7  C   UNL     1       0.889   9.172  20.629  0.00  0.00    +0.000 A 
ATOM      8  C   UNL     1       1.537   8.213  19.858  0.00  0.00    +0.000 A 
ATOM      9  O   UNL     1       1.843   6.961  20.422  0.00  0.00    +0.000 OA
ATOM     10  C   UNL     1       2.694   6.046  19.772  0.00  0.00    +0.000 A 
ATOM     11  O   UNL     1       3.142   5.082  20.380  0.00  0.00    +0.000 OA
ENDROOT
BRANCH   1  13
ATOM     12  O   UNL     1       3.089   4.245  17.221  0.00  0.00    +0.000 OA
ATOM     13  C   UNL     1       3.658   5.310  17.460  0.00  0.00    +0.000 C 
ATOM     14  N   UNL     1       4.906   5.604  16.899  0.00  0.00    +0.000 N 
ATOM     15  C   UNL     1       5.372   4.768  15.785  0.00  0.00    +0.000 C 
ATOM     16  C   UNL     1       6.882   4.528  15.857  0.00  0.00    +0.000 C 
ATOM     17  O   UNL     1       7.600   5.770  15.920  0.00  0.00    +0.000 OA
ATOM     18  C   UNL     1       7.233   6.489  17.100  0.00  0.00    +0.000 C 
ATOM     19  C   UNL     1       5.737   6.801  17.114  0.00  0.00    +0.000 C 
ENDBRANCH   1  13
TORSDOF 1
ENDMDL
MODEL 4
REMARK VINA RESULT:      -7.3      1.391      1.501
REMARK  Name = 
REMARK  1 active torsions:
REMARK  status: ('A' for Active; 'I' for Inactive)
REMARK    1  A    between atoms: C_2  and  C_3
REMARK                            x       y       z     vdW  Elec       q    Type
REMARK                         _______ _______ _______ _____ _____    ______ ____
ROOT
ATOM      1  C   UNL     1       6.050   4.626  16.942  0.00  0.00    +0.000 A 
ATOM      2  C   UNL     1       5.463   4.072  15.867  0.00  0.00    +0.000 A 
ATOM      3  C   UNL     1       6.082   4.125  14.566  0.00  0.00    +0.000 A 
ATOM      4  C   UNL     1       5.714   3.244  13.547  0.00  0.00    +0.000 A 
ATOM      5  C   UNL     1       6.271   3.389  12.279  0.00  0.00    +0.000 A 
ATOM      6  C   UNL     1       7.182   4.418  12.032  0.00  0.00    +0.000 A 
ATOM      7  C   UNL     1       7.592   5.264  13.068  0.00  0.00    +0.000 A 
ATOM      8  C   UNL     1       7.053   5.084  14.338  0.00  0.00    +0.000 A 
ATOM      9  O   UNL     1       7.545   5.844  15.414  0.00  0.00    +0.000 OA
ATOM     10  C   UNL     1       7.204   5.544  16.747  0.00  0.00    +0.000 A 
ATOM     11  O   UNL     1       7.827   6.050  17.672  0.00  0.00    +0.000 OA
ENDROOT
BRANCH   1  13
ATOM     12  O   UNL     1       6.162   4.146  19.238  0.00  0.00    +0.000 OA
ATOM     13  C   UNL     1       5.429   4.402  18.284  0.00  0.00    +0.000 C 
ATOM     14  N   UNL     1       4.044   4.520  18.448  0.00  0.00    +0.000 N 
ATOM     15  C   UNL     1       3.523   4.646  19.815  0.00  0.00    +0.000 C 
ATOM     16  C   UNL     1       2.198   3.898  19.981  0.00  0.00    +0.000 C 
ATOM     17  O   UNL     1       1.234   4.330  19.008  0.00  0.00    +0.000 OA
ATOM     18  C   UNL     1       1.711   4.051  17.689  0.00  0.00    +0.000 C 
ATOM     19  C   UNL     1       3.028   4.776  17.412  0.00  0.00    +0.000 C 
ENDBRANCH   1  13
TORSDOF 1
ENDMDL
MODEL 5
REMARK VINA RESULT:      -7.3      2.159      6.092
REMARK  Name = 
REMARK  1 active torsions:
REMARK  status: ('A' for Active; 'I' for Inactive)
REMARK    1  A    between atoms: C_2  and  C_3
REMARK                            x       y       z     vdW  Elec       q    Type
REMARK                         _______ _______ _______ _____ _____    ______ ____
ROOT
ATOM      1  C   UNL     1       5.846   4.907  17.037  0.00  0.00    +0.000 A 
ATOM      2  C   UNL     1       4.551   4.667  16.766  0.00  0.00    +0.000 A 
ATOM      3  C   UNL     1       3.632   4.263  17.801  0.00  0.00    +0.000 A 
ATOM      4  C   UNL     1       2.251   4.395  17.643  0.00  0.00    +0.000 A 
ATOM      5  C   UNL     1       1.397   3.907  18.629  0.00  0.00    +0.000 A 
ATOM      6  C   UNL     1       1.925   3.282  19.760  0.00  0.00    +0.000 A 
ATOM      7  C   UNL     1       3.309   3.201  19.944  0.00  0.00    +0.000 A 
ATOM      8  C   UNL     1       4.149   3.724  18.966  0.00  0.00    +0.000 A 
ATOM      9  O   UNL     1       5.537   3.761  19.193  0.00  0.00    +0.000 OA
ATOM     10  C   UNL     1       6.404   4.482  18.348  0.00  0.00    +0.000 A 
ATOM     11  O   UNL     1       7.557   4.706  18.696  0.00  0.00    +0.000 OA
ENDROOT
BRANCH   1  13
ATOM     12  O   UNL     1       7.330   6.506  16.169  0.00  0.00    +0.000 OA
ATOM     13  C   UNL     1       6.706   5.468  15.950  0.00  0.00    +0.000 C 
ATOM     14  N   UNL     1       6.821   4.800  14.726  0.00  0.00    +0.000 N 
ATOM     15  C   UNL     1       7.927   5.180  13.838  0.00  0.00    +0.000 C 
ATOM     16  C   UNL     1       7.502   5.145  12.368  0.00  0.00    +0.000 C 
ATOM     17  O   UNL     1       6.961   3.863  12.016  0.00  0.00    +0.000 OA
ATOM     18  C   UNL     1       5.793   3.593  12.796  0.00  0.00    +0.000 C 
ATOM     19  C   UNL     1       6.117   3.582  14.289  0.00  0.00    +0.000 C 
ENDBRANCH   1  13
TORSDOF 1
ENDMDL
MODEL 6
REMARK VINA RESULT:      -7.0      2.454      3.898
REMARK  Name = 
REMARK  1 active torsions:
REMARK  status: ('A' for Active; 'I' for Inactive)
REMARK    1  A    between atoms: C_2  and  C_3
REMARK                            x       y       z     vdW  Elec       q    Type
REMARK                         _______ _______ _______ _____ _____    ______ ____
ROOT
ATOM      1  C   UNL     1       3.038   5.566  18.570  0.00  0.00    +0.000 A 
ATOM      2  C   UNL     1       4.351   5.841  18.476  0.00  0.00    +0.000 A 
ATOM      3  C   UNL     1       5.141   5.352  17.374  0.00  0.00    +0.000 A 
ATOM      4  C   UNL     1       6.366   5.933  17.040  0.00  0.00    +0.000 A 
ATOM      5  C   UNL     1       7.140   5.371  16.028  0.00  0.00    +0.000 A 
ATOM      6  C   UNL     1       6.692   4.228  15.362  0.00  0.00    +0.000 A 
ATOM      7  C   UNL     1       5.439   3.681  15.659  0.00  0.00    +0.000 A 
ATOM      8  C   UNL     1       4.663   4.275  16.649  0.00  0.00    +0.000 A 
ATOM      9  O   UNL     1       3.353   3.813  16.873  0.00  0.00    +0.000 OA
ATOM     10  C   UNL     1       2.451   4.519  17.693  0.00  0.00    +0.000 A 
ATOM     11  O   UNL     1       1.258   4.242  17.678  0.00  0.00    +0.000 OA
ENDROOT
BRANCH   1  13
ATOM     12  O   UNL     1       1.926   5.568  20.639  0.00  0.00    +0.000 OA
ATOM     13  C   UNL     1       2.250   6.231  19.654  0.00  0.00    +0.000 C 
ATOM     14  N   UNL     1       1.925   7.589  19.557  0.00  0.00    +0.000 N 
ATOM     15  C   UNL     1       1.475   8.275  20.775  0.00  0.00    +0.000 C 
ATOM     16  C   UNL     1       0.377   9.296  20.470  0.00  0.00    +0.000 C 
ATOM     17  O   UNL     1       0.804  10.230  19.466  0.00  0.00    +0.000 OA
ATOM     18  C   UNL     1       1.087   9.542  18.245  0.00  0.00    +0.000 C 
ATOM     19  C   UNL     1       2.195   8.508  18.438  0.00  0.00    +0.000 C 
ENDBRANCH   1  13
TORSDOF 1
ENDMDL
MODEL 7
REMARK VINA RESULT:      -6.9      1.922      6.457
REMARK  Name = 
REMARK  1 active torsions:
REMARK  status: ('A' for Active; 'I' for Inactive)
REMARK    1  A    between atoms: C_2  and  C_3
REMARK                            x       y       z     vdW  Elec       q    Type
REMARK                         _______ _______ _______ _____ _____    ______ ____
ROOT
ATOM      1  C   UNL     1       4.714   5.525  18.117  0.00  0.00    +0.000 A 
ATOM      2  C   UNL     1       4.714   4.458  18.935  0.00  0.00    +0.000 A 
ATOM      3  C   UNL     1       3.532   4.076  19.668  0.00  0.00    +0.000 A 
ATOM      4  C   UNL     1       3.381   2.790  20.190  0.00  0.00    +0.000 A 
ATOM      5  C   UNL     1       2.266   2.492  20.970  0.00  0.00    +0.000 A 
ATOM      6  C   UNL     1       1.315   3.481  21.232  0.00  0.00    +0.000 A 
ATOM      7  C   UNL     1       1.440   4.752  20.662  0.00  0.00    +0.000 A 
ATOM      8  C   UNL     1       2.541   5.023  19.857  0.00  0.00    +0.000 A 
ATOM      9  O   UNL     1       2.617   6.254  19.179  0.00  0.00    +0.000 OA
ATOM     10  C   UNL     1       3.583   6.487  18.179  0.00  0.00    +0.000 A 
ATOM     11  O   UNL     1       3.478   7.455  17.436  0.00  0.00    +0.000 OA
ENDROOT
BRANCH   1  13
ATOM     12  O   UNL     1       6.748   6.603  17.653  0.00  0.00    +0.000 OA
ATOM     13  C   UNL     1       5.924   5.771  17.274  0.00  0.00    +0.000 C 
ATOM     14  N   UNL     1       6.125   5.040  16.098  0.00  0.00    +0.000 N 
ATOM     15  C   UNL     1       7.467   5.053  15.501  0.00  0.00    +0.000 C 
ATOM     16  C   UNL     1       7.401   5.069  13.972  0.00  0.00    +0.000 C 
ATOM     17  O   UNL     1       6.616   3.973  13.477  0.00  0.00    +0.000 OA
ATOM     18  C   UNL     1       5.272   4.078  13.956  0.00  0.00    +0.000 C 
ATOM     19  C   UNL     1       5.226   4.047  15.483  0.00  0.00    +0.000 C 
ENDBRANCH   1  13
TORSDOF 1
ENDMDL
MODEL 8
REMARK VINA RESULT:      -6.8      3.818      5.254
REMARK  Name = 
REMARK  1 active torsions:
REMARK  status: ('A' for Active; 'I' for Inactive)
REMARK    1  A    between atoms: C_2  and  C_3
REMARK                            x       y       z     vdW  Elec       q    Type
REMARK                         _______ _______ _______ _____ _____    ______ ____
ROOT
ATOM      1  C   UNL     1       2.647   6.850  18.105  0.00  0.00    +0.000 A 
ATOM      2  C   UNL     1       1.759   5.848  18.223  0.00  0.00    +0.000 A 
ATOM      3  C   UNL     1       2.184   4.471  18.262  0.00  0.00    +0.000 A 
ATOM      4  C   UNL     1       1.360   3.466  18.773  0.00  0.00    +0.000 A 
ATOM      5  C   UNL     1       1.774   2.138  18.707  0.00  0.00    +0.000 A 
ATOM      6  C   UNL     1       3.002   1.820  18.122  0.00  0.00    +0.000 A 
ATOM      7  C   UNL     1       3.851   2.832  17.663  0.00  0.00    +0.000 A 
ATOM      8  C   UNL     1       3.438   4.156  17.768  0.00  0.00    +0.000 A 
ATOM      9  O   UNL     1       4.329   5.189  17.424  0.00  0.00    +0.000 OA
ATOM     10  C   UNL     1       4.050   6.536  17.727  0.00  0.00    +0.000 A 
ATOM     11  O   UNL     1       4.933   7.381  17.648  0.00  0.00    +0.000 OA
ENDROOT
BRANCH   1  13
ATOM     12  O   UNL     1       2.256   9.004  17.253  0.00  0.00    +0.000 OA
ATOM     13  C   UNL     1       2.150   8.256  18.224  0.00  0.00    +0.000 C 
ATOM     14  N   UNL     1       1.544   8.691  19.409  0.00  0.00    +0.000 N 
ATOM     15  C   UNL     1       0.764   9.934  19.364  0.00  0.00    +0.000 C 
ATOM     16  C   UNL     1       0.934  10.748  20.649  0.00  0.00    +0.000 C 
ATOM     17  O   UNL     1       0.606   9.963  21.806  0.00  0.00    +0.000 OA
ATOM     18  C   UNL     1       1.488   8.841  21.901  0.00  0.00    +0.000 C 
ATOM     19  C   UNL     1       1.377   7.945  20.668  0.00  0.00    +0.000 C 
ENDBRANCH   1  13
TORSDOF 1
ENDMDL
MODEL 9
REMARK VINA RESULT:      -6.7      2.025      2.534
REMARK  Name = 
REMARK  1 active torsions:
REMARK  status: ('A' for Active; 'I' for Inactive)
REMARK    1  A    between atoms: C_2  and  C_3
REMARK                            x       y       z     vdW  Elec       q    Type
REMARK                         _______ _______ _______ _____ _____    ______ ____
ROOT
ATOM      1  C   UNL     1       5.332   3.838  18.414  0.00  0.00    +0.000 A 
ATOM      2  C   UNL     1       4.978   3.542  17.152  0.00  0.00    +0.000 A 
ATOM      3  C   UNL     1       5.745   4.016  16.027  0.00  0.00    +0.000 A 
ATOM      4  C   UNL     1       5.648   3.415  14.771  0.00  0.00    +0.000 A 
ATOM      5  C   UNL     1       6.337   3.963  13.692  0.00  0.00    +0.000 A 
ATOM      6  C   UNL     1       7.111   5.111  13.870  0.00  0.00    +0.000 A 
ATOM      7  C   UNL     1       7.253   5.678  15.141  0.00  0.00    +0.000 A 
ATOM      8  C   UNL     1       6.586   5.099  16.215  0.00  0.00    +0.000 A 
ATOM      9  O   UNL     1       6.816   5.583  17.516  0.00  0.00    +0.000 OA
ATOM     10  C   UNL     1       6.353   4.892  18.653  0.00  0.00    +0.000 A 
ATOM     11  O   UNL     1       6.769   5.188  19.766  0.00  0.00    +0.000 OA
ENDROOT
BRANCH   1  13
ATOM     12  O   UNL     1       5.140   2.305  20.184  0.00  0.00    +0.000 OA
ATOM     13  C   UNL     1       4.581   3.188  19.533  0.00  0.00    +0.000 C 
ATOM     14  N   UNL     1       3.284   3.608  19.849  0.00  0.00    +0.000 N 
ATOM     15  C   UNL     1       2.730   3.207  21.148  0.00  0.00    +0.000 C 
ATOM     16  C   UNL     1       1.236   2.891  21.047  0.00  0.00    +0.000 C 
ATOM     17  O   UNL     1       0.511   3.996  20.484  0.00  0.00    +0.000 OA
ATOM     18  C   UNL     1       0.974   4.260  19.157  0.00  0.00    +0.000 C 
ATOM     19  C   UNL     1       2.462   4.612  19.151  0.00  0.00    +0.000 C 
ENDBRANCH   1  13
TORSDOF 1
ENDMDL
