MODEL 1
REMARK VINA RESULT:      -7.8      0.000      0.000
REMARK  Name = 
REMARK  9 active torsions:
REMARK  status: ('A' for Active; 'I' for Inactive)
REMARK    1  A    between atoms: C_1  and  C_2
REMARK    2  A    between atoms: C_2  and  C_3
REMARK    3  A    between atoms: C_3  and  C_4
REMARK    4  A    between atoms: C_4  and  O_5
REMARK    5  A    between atoms: O_5  and  C_6
REMARK    6  A    between atoms: C_6  and  C_8
REMARK    7  A    between atoms: C_13  and  S_14
REMARK    8  A    between atoms: S_14  and  N_17
REMARK    9  A    between atoms: N_17  and  C_18
REMARK                            x       y       z     vdW  Elec       q    Type
REMARK                         _______ _______ _______ _____ _____    ______ ____
ROOT
ATOM      1  C   UNL     1       6.727   5.977  16.891  0.00  0.00    +0.000 C 
ATOM      2  C   UNL     1       7.494   6.951  17.432  0.00  0.00    +0.000 C 
ATOM      3  C   UNL     1       8.042   6.917  18.823  0.00  0.00    +0.000 C 
ATOM      4  C   UNL     1       7.967   5.523  19.433  0.00  0.00    +0.000 C 
ATOM      5  C   UNL     1       6.605   4.890  19.174  0.00  0.00    +0.000 C 
ATOM      6  C   UNL     1       6.290   4.748  17.671  0.00  0.00    +0.000 C 
ENDROOT
BRANCH   6   7
ATOM      7  S   UNL     1       4.491   4.457  17.442  0.00  0.00    +0.000 S 
ATOM      8  O   UNL     1       3.745   5.415  18.234  0.00  0.00    +0.000 OA
ATOM      9  O   UNL     1       4.174   4.249  16.048  0.00  0.00    +0.000 OA
BRANCH   7  10
ATOM     10  N   UNL     1       4.277   2.896  18.110  0.00  0.00    +0.000 N 
ATOM     11  H   UNL     1       4.072   2.268  17.326  0.00  0.00    +0.000 HD
BRANCH  10  12
ATOM     12  C   UNL     1       3.321   2.785  19.180  0.00  0.00    +0.000 A 
ATOM     13  C   UNL     1       1.963   3.035  18.953  0.00  0.00    +0.000 A 
ATOM     14  C   UNL     1       1.057   2.964  20.018  0.00  0.00    +0.000 A 
ATOM     15  C   UNL     1       1.513   2.656  21.300  0.00  0.00    +0.000 A 
ATOM     16  F   UNL     1       0.641   2.588  22.312  0.00  0.00    +0.000 F 
ATOM     17  C   UNL     1       2.856   2.410  21.538  0.00  0.00    +0.000 A 
ATOM     18  C   UNL     1       3.750   2.481  20.477  0.00  0.00    +0.000 A 
ATOM     19  F   UNL     1       5.041   2.209  20.719  0.00  0.00    +0.000 F 
ENDBRANCH  10  12
ENDBRANCH   7  10
ENDBRANCH   6   7
BRANCH   1  20
ATOM     20  C   UNL     1       6.563   5.971  15.408  0.00  0.00    +0.000 C 
ATOM     21  O   UNL     1       5.595   6.465  14.850  0.00  0.00    +0.000 OA
BRANCH  20  22
ATOM     22  O   UNL     1       7.471   5.152  14.821  0.00  0.00    +0.000 OA
BRANCH  22  23
ATOM     23  C   UNL     1       7.153   4.801  13.470  0.00  0.00    +0.000 C 
BRANCH  23  24
ATOM     24  C   UNL     1       6.128   3.681  13.418  0.00  0.00    +0.000 C 
BRANCH  24  26
ATOM     25  C   UNL     1       4.470   3.185  11.582  0.00  0.00    +0.000 C 
ATOM     26  C   UNL     1       5.935   3.206  11.979  0.00  0.00    +0.000 C 
ENDBRANCH  24  26
ENDBRANCH  23  24
ENDBRANCH  22  23
ENDBRANCH  20  22
ENDBRANCH   1  20
TORSDOF 8
ENDMDL
MODEL 2
REMARK VINA RESULT:      -7.8      1.025      1.437
REMARK  Name = 
REMARK  9 active torsions:
REMARK  status: ('A' for Active; 'I' for Inactive)
REMARK    1  A    between atoms: C_1  and  C_2
REMARK    2  A    between atoms: C_2  and  C_3
REMARK    3  A    between atoms: C_3  and  C_4
REMARK    4  A    between atoms: C_4  and  O_5
REMARK    5  A    between atoms: O_5  and  C_6
REMARK    6  A    between atoms: C_6  and  C_8
REMARK    7  A    between atoms: C_13  and  S_14
REMARK    8  A    between atoms: S_14  and  N_17
REMARK    9  A    between atoms: N_17  and  C_18
REMARK                            x       y       z     vdW  Elec       q    Type
REMARK                         _______ _______ _______ _____ _____    ______ ____
ROOT
ATOM      1  C   UNL     1       6.558   5.983  16.749  0.00  0.00    +0.000 C 
ATOM      2  C   UNL     1       7.337   6.972  17.244  0.00  0.00    +0.000 C 
ATOM      3  C   UNL     1       7.984   6.941  18.591  0.00  0.00    +0.000 C 
ATOM      4  C   UNL     1       7.990   5.540  19.191  0.00  0.00    +0.000 C 
ATOM      5  C   UNL     1       6.630   4.873  19.023  0.00  0.00    +0.000 C 
ATOM      6  C   UNL     1       6.211   4.735  17.546  0.00  0.00    +0.000 C 
ENDROOT
BRANCH   6   7
ATOM      7  S   UNL     1       4.408   4.398  17.443  0.00  0.00    +0.000 S 
ATOM      8  O   UNL     1       3.689   5.394  18.214  0.00  0.00    +0.000 OA
ATOM      9  O   UNL     1       4.015   4.092  16.087  0.00  0.00    +0.000 OA
BRANCH   7  10
ATOM     10  N   UNL     1       4.267   2.882  18.223  0.00  0.00    +0.000 N 
ATOM     11  H   UNL     1       4.077   2.192  17.489  0.00  0.00    +0.000 HD
BRANCH  10  12
ATOM     12  C   UNL     1       3.330   2.810  19.315  0.00  0.00    +0.000 A 
ATOM     13  C   UNL     1       3.778   2.675  20.633  0.00  0.00    +0.000 A 
ATOM     14  C   UNL     1       2.849   2.564  21.674  0.00  0.00    +0.000 A 
ATOM     15  C   UNL     1       1.483   2.576  21.391  0.00  0.00    +0.000 A 
ATOM     16  F   UNL     1       0.601   2.471  22.391  0.00  0.00    +0.000 F 
ATOM     17  C   UNL     1       1.026   2.706  20.089  0.00  0.00    +0.000 A 
ATOM     18  C   UNL     1       1.954   2.817  19.060  0.00  0.00    +0.000 A 
ATOM     19  F   UNL     1       1.495   2.974  17.810  0.00  0.00    +0.000 F 
ENDBRANCH  10  12
ENDBRANCH   7  10
ENDBRANCH   6   7
BRANCH   1  20
ATOM     20  C   UNL     1       6.288   5.985  15.282  0.00  0.00    +0.000 C 
ATOM     21  O   UNL     1       5.282   6.481  14.798  0.00  0.00    +0.000 OA
BRANCH  20  22
ATOM     22  O   UNL     1       7.152   5.170  14.627  0.00  0.00    +0.000 OA
BRANCH  22  23
ATOM     23  C   UNL     1       6.549   3.981  14.102  0.00  0.00    +0.000 C 
BRANCH  23  24
ATOM     24  C   UNL     1       6.600   3.961  12.584  0.00  0.00    +0.000 C 
BRANCH  24  26
ATOM     25  C   UNL     1       5.727   1.885  11.447  0.00  0.00    +0.000 C 
ATOM     26  C   UNL     1       5.373   3.244  12.023  0.00  0.00    +0.000 C 
ENDBRANCH  24  26
ENDBRANCH  23  24
ENDBRANCH  22  23
ENDBRANCH  20  22
ENDBRANCH   1  20
TORSDOF 8
ENDMDL
MODEL 3
REMARK VINA RESULT:      -7.7      4.298      6.305
REMARK  Name = 
REMARK  9 active torsions:
REMARK  status: ('A' for Active; 'I' for Inactive)
REMARK    1  A    between atoms: C_1  and  C_2
REMARK    2  A    between atoms: C_2  and  C_3
REMARK    3  A    between atoms: C_3  and  C_4
REMARK    4  A    between atoms: C_4  and  O_5
REMARK    5  A    between atoms: O_5  and  C_6
REMARK    6  A    between atoms: C_6  and  C_8
REMARK    7  A    between atoms: C_13  and  S_14
REMARK    8  A    between atoms: S_14  and  N_17
REMARK    9  A    between atoms: N_17  and  C_18
REMARK                            x       y       z     vdW  Elec       q    Type
REMARK                         _______ _______ _______ _____ _____    ______ ____
ROOT
ATOM      1  C   UNL     1       4.412   4.266  17.498  0.00  0.00    +0.000 C 
ATOM      2  C   UNL     1       4.819   3.858  16.274  0.00  0.00    +0.000 C 
ATOM      3  C   UNL     1       5.424   4.756  15.244  0.00  0.00    +0.000 C 
ATOM      4  C   UNL     1       5.880   6.083  15.838  0.00  0.00    +0.000 C 
ATOM      5  C   UNL     1       4.814   6.656  16.765  0.00  0.00    +0.000 C 
ATOM      6  C   UNL     1       4.481   5.719  17.943  0.00  0.00    +0.000 C 
ENDROOT
BRANCH   6   7
ATOM      7  S   UNL     1       2.888   6.225  18.705  0.00  0.00    +0.000 S 
ATOM      8  O   UNL     1       1.795   5.827  17.841  0.00  0.00    +0.000 OA
ATOM      9  O   UNL     1       2.866   5.908  20.115  0.00  0.00    +0.000 OA
BRANCH   7  10
ATOM     10  N   UNL     1       3.003   7.932  18.709  0.00  0.00    +0.000 N 
ATOM     11  H   UNL     1       3.705   8.177  19.415  0.00  0.00    +0.000 HD
BRANCH  10  12
ATOM     12  C   UNL     1       1.768   8.654  18.874  0.00  0.00    +0.000 A 
ATOM     13  C   UNL     1       1.105   9.198  17.768  0.00  0.00    +0.000 A 
ATOM     14  C   UNL     1      -0.071   9.933  17.956  0.00  0.00    +0.000 A 
ATOM     15  C   UNL     1      -0.569  10.129  19.244  0.00  0.00    +0.000 A 
ATOM     16  F   UNL     1      -1.695  10.832  19.416  0.00  0.00    +0.000 F 
ATOM     17  C   UNL     1       0.080   9.599  20.349  0.00  0.00    +0.000 A 
ATOM     18  C   UNL     1       1.246   8.870  20.155  0.00  0.00    +0.000 A 
ATOM     19  F   UNL     1       1.845   8.337  21.230  0.00  0.00    +0.000 F 
ENDBRANCH  10  12
ENDBRANCH   7  10
ENDBRANCH   6   7
BRANCH   1  20
ATOM     20  C   UNL     1       4.174   3.218  18.532  0.00  0.00    +0.000 C 
ATOM     21  O   UNL     1       4.860   3.117  19.537  0.00  0.00    +0.000 OA
BRANCH  20  22
ATOM     22  O   UNL     1       3.296   2.285  18.086  0.00  0.00    +0.000 OA
BRANCH  22  23
ATOM     23  C   UNL     1       2.377   1.824  19.084  0.00  0.00    +0.000 C 
BRANCH  23  24
ATOM     24  C   UNL     1       1.036   2.528  18.966  0.00  0.00    +0.000 C 
BRANCH  24  26
ATOM     25  C   UNL     1       1.470   2.775  21.439  0.00  0.00    +0.000 C 
ATOM     26  C   UNL     1       0.752   3.342  20.227  0.00  0.00    +0.000 C 
ENDBRANCH  24  26
ENDBRANCH  23  24
ENDBRANCH  22  23
ENDBRANCH  20  22
ENDBRANCH   1  20
TORSDOF 8
ENDMDL
MODEL 4
REMARK VINA RESULT:      -7.6      3.749      6.860
REMARK  Name = 
REMARK  9 active torsions:
REMARK  status: ('A' for Active; 'I' for Inactive)
REMARK    1  A    between atoms: C_1  and  C_2
REMARK    2  A    between atoms: C_2  and  C_3
REMARK    3  A    between atoms: C_3  and  C_4
REMARK    4  A    between atoms: C_4  and  O_5
REMARK    5  A    between atoms: O_5  and  C_6
REMARK    6  A    between atoms: C_6  and  C_8
REMARK    7  A    between atoms: C_13  and  S_14
REMARK    8  A    between atoms: S_14  and  N_17
REMARK    9  A    between atoms: N_17  and  C_18
REMARK                            x       y       z     vdW  Elec       q    Type
REMARK                         _______ _______ _______ _____ _____    ______ ____
ROOT
ATOM      1  C   UNL     1       4.346   5.080  18.187  0.00  0.00    +0.000 C 
ATOM      2  C   UNL     1       3.404   5.685  18.945  0.00  0.00    +0.000 C 
ATOM      3  C   UNL     1       2.888   7.067  18.704  0.00  0.00    +0.000 C 
ATOM      4  C   UNL     1       3.247   7.578  17.314  0.00  0.00    +0.000 C 
ATOM      5  C   UNL     1       4.706   7.281  16.988  0.00  0.00    +0.000 C 
ATOM      6  C   UNL     1       5.029   5.774  17.018  0.00  0.00    +0.000 C 
ENDROOT
BRANCH   6   7
ATOM      7  S   UNL     1       6.848   5.533  17.113  0.00  0.00    +0.000 S 
ATOM      8  O   UNL     1       7.410   6.488  18.048  0.00  0.00    +0.000 OA
ATOM      9  O   UNL     1       7.180   4.130  17.205  0.00  0.00    +0.000 OA
BRANCH   7  10
ATOM     10  N   UNL     1       7.360   5.934  15.531  0.00  0.00    +0.000 N 
ATOM     11  H   UNL     1       7.136   6.925  15.393  0.00  0.00    +0.000 HD
BRANCH  10  12
ATOM     12  C   UNL     1       6.867   5.096  14.469  0.00  0.00    +0.000 A 
ATOM     13  C   UNL     1       5.697   4.347  14.635  0.00  0.00    +0.000 A 
ATOM     14  C   UNL     1       5.258   3.506  13.605  0.00  0.00    +0.000 A 
ATOM     15  C   UNL     1       5.996   3.411  12.425  0.00  0.00    +0.000 A 
ATOM     16  F   UNL     1       5.570   2.606  11.445  0.00  0.00    +0.000 F 
ATOM     17  C   UNL     1       7.159   4.145  12.249  0.00  0.00    +0.000 A 
ATOM     18  C   UNL     1       7.587   4.978  13.275  0.00  0.00    +0.000 A 
ATOM     19  F   UNL     1       8.696   5.705  13.076  0.00  0.00    +0.000 F 
ENDBRANCH  10  12
ENDBRANCH   7  10
ENDBRANCH   6   7
BRANCH   1  20
ATOM     20  C   UNL     1       4.494   3.601  18.318  0.00  0.00    +0.000 C 
ATOM     21  O   UNL     1       4.043   2.819  17.495  0.00  0.00    +0.000 OA
BRANCH  20  22
ATOM     22  O   UNL     1       4.950   3.265  19.550  0.00  0.00    +0.000 OA
BRANCH  22  23
ATOM     23  C   UNL     1       4.223   2.197  20.170  0.00  0.00    +0.000 C 
BRANCH  23  24
ATOM     24  C   UNL     1       3.036   2.724  20.957  0.00  0.00    +0.000 C 
BRANCH  24  26
ATOM     25  C   UNL     1       0.788   3.633  20.258  0.00  0.00    +0.000 C 
ATOM     26  C   UNL     1       1.736   2.449  20.202  0.00  0.00    +0.000 C 
ENDBRANCH  24  26
ENDBRANCH  23  24
ENDBRANCH  22  23
ENDBRANCH  20  22
ENDBRANCH   1  20
TORSDOF 8
ENDMDL
MODEL 5
REMARK VINA RESULT:      -7.4      1.036      1.186
REMARK  Name = 
REMARK  9 active torsions:
REMARK  status: ('A' for Active; 'I' for Inactive)
REMARK    1  A    between atoms: C_1  and  C_2
REMARK    2  A    between atoms: C_2  and  C_3
REMARK    3  A    between atoms: C_3  and  C_4
REMARK    4  A    between atoms: C_4  and  O_5
REMARK    5  A    between atoms: O_5  and  C_6
REMARK    6  A    between atoms: C_6  and  C_8
REMARK    7  A    between atoms: C_13  and  S_14
REMARK    8  A    between atoms: S_14  and  N_17
REMARK    9  A    between atoms: N_17  and  C_18
REMARK                            x       y       z     vdW  Elec       q    Type
REMARK                         _______ _______ _______ _____ _____    ______ ____
ROOT
ATOM      1  C   UNL     1       6.142   6.276  16.997  0.00  0.00    +0.000 C 
ATOM      2  C   UNL     1       7.279   6.995  17.140  0.00  0.00    +0.000 C 
ATOM      3  C   UNL     1       8.156   6.954  18.350  0.00  0.00    +0.000 C 
ATOM      4  C   UNL     1       7.850   5.754  19.237  0.00  0.00    +0.000 C 
ATOM      5  C   UNL     1       6.347   5.587  19.425  0.00  0.00    +0.000 C 
ATOM      6  C   UNL     1       5.600   5.372  18.093  0.00  0.00    +0.000 C 
ENDROOT
BRANCH   6   7
ATOM      7  S   UNL     1       3.805   5.676  18.335  0.00  0.00    +0.000 S 
ATOM      8  O   UNL     1       3.573   6.129  19.692  0.00  0.00    +0.000 OA
ATOM      9  O   UNL     1       3.246   6.394  17.212  0.00  0.00    +0.000 OA
BRANCH   7  10
ATOM     10  N   UNL     1       3.134   4.112  18.148  0.00  0.00    +0.000 N 
ATOM     11  H   UNL     1       2.487   4.165  17.355  0.00  0.00    +0.000 HD
BRANCH  10  12
ATOM     12  C   UNL     1       2.535   3.531  19.321  0.00  0.00    +0.000 A 
ATOM     13  C   UNL     1       1.159   3.641  19.550  0.00  0.00    +0.000 A 
ATOM     14  C   UNL     1       0.605   3.106  20.719  0.00  0.00    +0.000 A 
ATOM     15  C   UNL     1       1.428   2.476  21.653  0.00  0.00    +0.000 A 
ATOM     16  F   UNL     1       0.890   1.965  22.767  0.00  0.00    +0.000 F 
ATOM     17  C   UNL     1       2.793   2.363  21.440  0.00  0.00    +0.000 A 
ATOM     18  C   UNL     1       3.336   2.896  20.278  0.00  0.00    +0.000 A 
ATOM     19  F   UNL     1       4.653   2.750  20.071  0.00  0.00    +0.000 F 
ENDBRANCH  10  12
ENDBRANCH   7  10
ENDBRANCH   6   7
BRANCH   1  20
ATOM     20  C   UNL     1       5.580   6.139  15.622  0.00  0.00    +0.000 C 
ATOM     21  O   UNL     1       5.159   7.093  14.985  0.00  0.00    +0.000 OA
BRANCH  20  22
ATOM     22  O   UNL     1       5.377   4.836  15.306  0.00  0.00    +0.000 OA
BRANCH  22  23
ATOM     23  C   UNL     1       6.541   4.169  14.805  0.00  0.00    +0.000 C 
BRANCH  23  24
ATOM     24  C   UNL     1       6.913   4.674  13.421  0.00  0.00    +0.000 C 
BRANCH  24  26
ATOM     25  C   UNL     1       5.108   3.339  12.269  0.00  0.00    +0.000 C 
ATOM     26  C   UNL     1       6.598   3.613  12.368  0.00  0.00    +0.000 C 
ENDBRANCH  24  26
ENDBRANCH  23  24
ENDBRANCH  22  23
ENDBRANCH  20  22
ENDBRANCH   1  20
TORSDOF 8
ENDMDL
MODEL 6
REMARK VINA RESULT:      -7.4      3.253      6.957
REMARK  Name = 
REMARK  9 active torsions:
REMARK  status: ('A' for Active; 'I' for Inactive)
REMARK    1  A    between atoms: C_1  and  C_2
REMARK    2  A    between atoms: C_2  and  C_3
REMARK    3  A    between atoms: C_3  and  C_4
REMARK    4  A    between atoms: C_4  and  O_5
REMARK    5  A    between atoms: O_5  and  C_6
REMARK    6  A    between atoms: C_6  and  C_8
REMARK    7  A    between atoms: C_13  and  S_14
REMARK    8  A    between atoms: S_14  and  N_17
REMARK    9  A    between atoms: N_17  and  C_18
REMARK                            x       y       z     vdW  Elec       q    Type
REMARK                         _______ _______ _______ _____ _____    ______ ____
ROOT
ATOM      1  C   UNL     1       3.997   5.016  18.889  0.00  0.00    +0.000 C 
ATOM      2  C   UNL     1       3.246   5.634  19.829  0.00  0.00    +0.000 C 
ATOM      3  C   UNL     1       2.538   6.934  19.622  0.00  0.00    +0.000 C 
ATOM      4  C   UNL     1       2.436   7.301  18.147  0.00  0.00    +0.000 C 
ATOM      5  C   UNL     1       3.768   7.079  17.439  0.00  0.00    +0.000 C 
ATOM      6  C   UNL     1       4.246   5.616  17.514  0.00  0.00    +0.000 C 
ENDROOT
BRANCH   6   7
ATOM      7  S   UNL     1       6.033   5.527  17.097  0.00  0.00    +0.000 S 
ATOM      8  O   UNL     1       6.779   6.380  18.002  0.00  0.00    +0.000 OA
ATOM      9  O   UNL     1       6.443   4.162  16.865  0.00  0.00    +0.000 OA
BRANCH   7  10
ATOM     10  N   UNL     1       6.083   6.204  15.526  0.00  0.00    +0.000 N 
ATOM     11  H   UNL     1       5.199   6.706  15.396  0.00  0.00    +0.000 HD
BRANCH  10  12
ATOM     12  C   UNL     1       6.374   5.294  14.449  0.00  0.00    +0.000 A 
ATOM     13  C   UNL     1       7.560   5.411  13.715  0.00  0.00    +0.000 A 
ATOM     14  C   UNL     1       7.802   4.543  12.644  0.00  0.00    +0.000 A 
ATOM     15  C   UNL     1       6.857   3.575  12.307  0.00  0.00    +0.000 A 
ATOM     16  F   UNL     1       7.096   2.748  11.283  0.00  0.00    +0.000 F 
ATOM     17  C   UNL     1       5.676   3.450  13.023  0.00  0.00    +0.000 A 
ATOM     18  C   UNL     1       5.442   4.314  14.085  0.00  0.00    +0.000 A 
ATOM     19  F   UNL     1       4.311   4.160  14.788  0.00  0.00    +0.000 F 
ENDBRANCH  10  12
ENDBRANCH   7  10
ENDBRANCH   6   7
BRANCH   1  20
ATOM     20  C   UNL     1       4.334   3.580  19.108  0.00  0.00    +0.000 C 
ATOM     21  O   UNL     1       5.293   3.222  19.775  0.00  0.00    +0.000 OA
BRANCH  20  22
ATOM     22  O   UNL     1       3.608   2.779  18.289  0.00  0.00    +0.000 OA
BRANCH  22  23
ATOM     23  C   UNL     1       2.679   1.931  18.974  0.00  0.00    +0.000 C 
BRANCH  23  24
ATOM     24  C   UNL     1       1.249   2.395  18.761  0.00  0.00    +0.000 C 
BRANCH  24  26
ATOM     25  C   UNL     1       1.370   2.723  21.260  0.00  0.00    +0.000 C 
ATOM     26  C   UNL     1       0.778   3.224  19.955  0.00  0.00    +0.000 C 
ENDBRANCH  24  26
ENDBRANCH  23  24
ENDBRANCH  22  23
ENDBRANCH  20  22
ENDBRANCH   1  20
TORSDOF 8
ENDMDL
MODEL 7
REMARK VINA RESULT:      -7.4      2.396      4.764
REMARK  Name = 
REMARK  9 active torsions:
REMARK  status: ('A' for Active; 'I' for Inactive)
REMARK    1  A    between atoms: C_1  and  C_2
REMARK    2  A    between atoms: C_2  and  C_3
REMARK    3  A    between atoms: C_3  and  C_4
REMARK    4  A    between atoms: C_4  and  O_5
REMARK    5  A    between atoms: O_5  and  C_6
REMARK    6  A    between atoms: C_6  and  C_8
REMARK    7  A    between atoms: C_13  and  S_14
REMARK    8  A    between atoms: S_14  and  N_17
REMARK    9  A    between atoms: N_17  and  C_18
REMARK                            x       y       z     vdW  Elec       q    Type
REMARK                         _______ _______ _______ _____ _____    ______ ____
ROOT
ATOM      1  C   UNL     1       6.949   5.769  16.825  0.00  0.00    +0.000 C 
ATOM      2  C   UNL     1       7.591   5.355  15.709  0.00  0.00    +0.000 C 
ATOM      3  C   UNL     1       6.914   4.751  14.521  0.00  0.00    +0.000 C 
ATOM      4  C   UNL     1       5.410   4.993  14.536  0.00  0.00    +0.000 C 
ATOM      5  C   UNL     1       4.830   4.720  15.919  0.00  0.00    +0.000 C 
ATOM      6  C   UNL     1       5.448   5.615  17.012  0.00  0.00    +0.000 C 
ENDROOT
BRANCH   6   7
ATOM      7  S   UNL     1       5.085   4.907  18.668  0.00  0.00    +0.000 S 
ATOM      8  O   UNL     1       6.233   4.153  19.130  0.00  0.00    +0.000 OA
ATOM      9  O   UNL     1       4.455   5.888  19.523  0.00  0.00    +0.000 OA
BRANCH   7  10
ATOM     10  N   UNL     1       3.803   3.823  18.337  0.00  0.00    +0.000 N 
ATOM     11  H   UNL     1       3.266   4.232  17.565  0.00  0.00    +0.000 HD
BRANCH  10  12
ATOM     12  C   UNL     1       2.977   3.451  19.457  0.00  0.00    +0.000 A 
ATOM     13  C   UNL     1       3.513   2.731  20.531  0.00  0.00    +0.000 A 
ATOM     14  C   UNL     1       2.682   2.341  21.588  0.00  0.00    +0.000 A 
ATOM     15  C   UNL     1       1.325   2.663  21.561  0.00  0.00    +0.000 A 
ATOM     16  F   UNL     1       0.538   2.289  22.576  0.00  0.00    +0.000 F 
ATOM     17  C   UNL     1       0.782   3.373  20.501  0.00  0.00    +0.000 A 
ATOM     18  C   UNL     1       1.611   3.756  19.455  0.00  0.00    +0.000 A 
ATOM     19  F   UNL     1       1.077   4.470  18.454  0.00  0.00    +0.000 F 
ENDBRANCH  10  12
ENDBRANCH   7  10
ENDBRANCH   6   7
BRANCH   1  20
ATOM     20  C   UNL     1       7.691   6.668  17.756  0.00  0.00    +0.000 C 
ATOM     21  O   UNL     1       8.086   6.300  18.852  0.00  0.00    +0.000 OA
BRANCH  20  22
ATOM     22  O   UNL     1       7.637   7.956  17.335  0.00  0.00    +0.000 OA
BRANCH  22  23
ATOM     23  C   UNL     1       8.268   8.887  18.223  0.00  0.00    +0.000 C 
BRANCH  23  24
ATOM     24  C   UNL     1       8.361  10.268  17.597  0.00  0.00    +0.000 C 
BRANCH  24  26
ATOM     25  C   UNL     1      10.452  11.662  17.815  0.00  0.00    +0.000 C 
ATOM     26  C   UNL     1       9.175  11.201  18.493  0.00  0.00    +0.000 C 
ENDBRANCH  24  26
ENDBRANCH  23  24
ENDBRANCH  22  23
ENDBRANCH  20  22
ENDBRANCH   1  20
TORSDOF 8
ENDMDL
MODEL 8
REMARK VINA RESULT:      -7.3      2.163      4.703
REMARK  Name = 
REMARK  9 active torsions:
REMARK  status: ('A' for Active; 'I' for Inactive)
REMARK    1  A    between atoms: C_1  and  C_2
REMARK    2  A    between atoms: C_2  and  C_3
REMARK    3  A    between atoms: C_3  and  C_4
REMARK    4  A    between atoms: C_4  and  O_5
REMARK    5  A    between atoms: O_5  and  C_6
REMARK    6  A    between atoms: C_6  and  C_8
REMARK    7  A    between atoms: C_13  and  S_14
REMARK    8  A    between atoms: S_14  and  N_17
REMARK    9  A    between atoms: N_17  and  C_18
REMARK                            x       y       z     vdW  Elec       q    Type
REMARK                         _______ _______ _______ _____ _____    ______ ____
ROOT
ATOM      1  C   UNL     1       6.403   5.972  16.377  0.00  0.00    +0.000 C 
ATOM      2  C   UNL     1       7.247   5.819  15.331  0.00  0.00    +0.000 C 
ATOM      3  C   UNL     1       7.122   4.746  14.297  0.00  0.00    +0.000 C 
ATOM      4  C   UNL     1       5.751   4.083  14.323  0.00  0.00    +0.000 C 
ATOM      5  C   UNL     1       5.329   3.765  15.753  0.00  0.00    +0.000 C 
ATOM      6  C   UNL     1       5.246   5.021  16.644  0.00  0.00    +0.000 C 
ENDROOT
BRANCH   6   7
ATOM      7  S   UNL     1       5.229   4.525  18.412  0.00  0.00    +0.000 S 
ATOM      8  O   UNL     1       6.577   4.195  18.831  0.00  0.00    +0.000 OA
ATOM      9  O   UNL     1       4.414   5.426  19.194  0.00  0.00    +0.000 OA
BRANCH   7  10
ATOM     10  N   UNL     1       4.288   3.096  18.389  0.00  0.00    +0.000 N 
ATOM     11  H   UNL     1       3.864   3.040  17.458  0.00  0.00    +0.000 HD
BRANCH  10  12
ATOM     12  C   UNL     1       3.327   2.947  19.452  0.00  0.00    +0.000 A 
ATOM     13  C   UNL     1       3.720   2.476  20.709  0.00  0.00    +0.000 A 
ATOM     14  C   UNL     1       2.761   2.298  21.714  0.00  0.00    +0.000 A 
ATOM     15  C   UNL     1       1.421   2.580  21.453  0.00  0.00    +0.000 A 
ATOM     16  F   UNL     1       0.511   2.409  22.419  0.00  0.00    +0.000 F 
ATOM     17  C   UNL     1       1.018   3.044  20.210  0.00  0.00    +0.000 A 
ATOM     18  C   UNL     1       1.974   3.219  19.218  0.00  0.00    +0.000 A 
ATOM     19  F   UNL     1       1.573   3.699  18.032  0.00  0.00    +0.000 F 
ENDBRANCH  10  12
ENDBRANCH   7  10
ENDBRANCH   6   7
BRANCH   1  20
ATOM     20  C   UNL     1       6.432   7.275  17.103  0.00  0.00    +0.000 C 
ATOM     21  O   UNL     1       5.418   7.902  17.370  0.00  0.00    +0.000 OA
BRANCH  20  22
ATOM     22  O   UNL     1       7.696   7.758  17.186  0.00  0.00    +0.000 OA
BRANCH  22  23
ATOM     23  C   UNL     1       7.770   9.141  17.553  0.00  0.00    +0.000 C 
BRANCH  23  24
ATOM     24  C   UNL     1       8.784   9.363  18.662  0.00  0.00    +0.000 C 
BRANCH  24  26
ATOM     25  C   UNL     1      10.192  11.142  19.766  0.00  0.00    +0.000 C 
ATOM     26  C   UNL     1       9.439  10.735  18.513  0.00  0.00    +0.000 C 
ENDBRANCH  24  26
ENDBRANCH  23  24
ENDBRANCH  22  23
ENDBRANCH  20  22
ENDBRANCH   1  20
TORSDOF 8
ENDMDL
MODEL 9
REMARK VINA RESULT:      -7.3      3.171      4.915
REMARK  Name = 
REMARK  9 active torsions:
REMARK  status: ('A' for Active; 'I' for Inactive)
REMARK    1  A    between atoms: C_1  and  C_2
REMARK    2  A    between atoms: C_2  and  C_3
REMARK    3  A    between atoms: C_3  and  C_4
REMARK    4  A    between atoms: C_4  and  O_5
REMARK    5  A    between atoms: O_5  and  C_6
REMARK    6  A    between atoms: C_6  and  C_8
REMARK    7  A    between atoms: C_13  and  S_14
REMARK    8  A    between atoms: S_14  and  N_17
REMARK    9  A    between atoms: N_17  and  C_18
REMARK                            x       y       z     vdW  Elec       q    Type
REMARK                         _______ _______ _______ _____ _____    ______ ____
ROOT
ATOM      1  C   UNL     1       4.590   5.897  16.875  0.00  0.00    +0.000 C 
ATOM      2  C   UNL     1       4.867   6.561  15.730  0.00  0.00    +0.000 C 
ATOM      3  C   UNL     1       5.791   6.060  14.667  0.00  0.00    +0.000 C 
ATOM      4  C   UNL     1       6.092   4.574  14.824  0.00  0.00    +0.000 C 
ATOM      5  C   UNL     1       6.404   4.235  16.277  0.00  0.00    +0.000 C 
ATOM      6  C   UNL     1       5.240   4.569  17.231  0.00  0.00    +0.000 C 
ENDROOT
BRANCH   6   7
ATOM      7  S   UNL     1       5.852   4.607  18.963  0.00  0.00    +0.000 S 
ATOM      8  O   UNL     1       7.302   4.601  18.960  0.00  0.00    +0.000 OA
ATOM      9  O   UNL     1       5.121   5.574  19.748  0.00  0.00    +0.000 OA
BRANCH   7  10
ATOM     10  N   UNL     1       5.291   3.117  19.589  0.00  0.00    +0.000 N 
ATOM     11  H   UNL     1       5.951   2.399  19.273  0.00  0.00    +0.000 HD
BRANCH  10  12
ATOM     12  C   UNL     1       3.920   2.780  19.303  0.00  0.00    +0.000 A 
ATOM     13  C   UNL     1       3.563   2.226  18.069  0.00  0.00    +0.000 A 
ATOM     14  C   UNL     1       2.219   1.947  17.796  0.00  0.00    +0.000 A 
ATOM     15  C   UNL     1       1.242   2.233  18.750  0.00  0.00    +0.000 A 
ATOM     16  F   UNL     1      -0.040   1.962  18.482  0.00  0.00    +0.000 F 
ATOM     17  C   UNL     1       1.582   2.786  19.975  0.00  0.00    +0.000 A 
ATOM     18  C   UNL     1       2.918   3.060  20.240  0.00  0.00    +0.000 A 
ATOM     19  F   UNL     1       3.234   3.564  21.441  0.00  0.00    +0.000 F 
ENDBRANCH  10  12
ENDBRANCH   7  10
ENDBRANCH   6   7
BRANCH   1  20
ATOM     20  C   UNL     1       3.396   6.333  17.655  0.00  0.00    +0.000 C 
ATOM     21  O   UNL     1       2.431   5.608  17.843  0.00  0.00    +0.000 OA
BRANCH  20  22
ATOM     22  O   UNL     1       3.430   7.669  17.889  0.00  0.00    +0.000 OA
BRANCH  22  23
ATOM     23  C   UNL     1       2.240   8.184  18.498  0.00  0.00    +0.000 C 
BRANCH  23  24
ATOM     24  C   UNL     1       1.777   9.458  17.811  0.00  0.00    +0.000 C 
BRANCH  24  26
ATOM     25  C   UNL     1       0.513  10.005  19.925  0.00  0.00    +0.000 C 
ATOM     26  C   UNL     1       0.453   9.931  18.410  0.00  0.00    +0.000 C 
ENDBRANCH  24  26
ENDBRANCH  23  24
ENDBRANCH  22  23
ENDBRANCH  20  22
ENDBRANCH   1  20
TORSDOF 8
ENDMDL
