MODEL 1
REMARK VINA RESULT:      -8.0      0.000      0.000
REMARK  Name = 
REMARK  7 active torsions:
REMARK  status: ('A' for Active; 'I' for Inactive)
REMARK    1  A    between atoms: C_2  and  C_3
REMARK    2  A    between atoms: C_2  and  O_19
REMARK    3  A    between atoms: C_3  and  N_4
REMARK    4  A    between atoms: C_5  and  C_7
REMARK    5  A    between atoms: C_10  and  C_11
REMARK    6  A    between atoms: O_19  and  C_20
REMARK    7  A    between atoms: C_20  and  C_21
REMARK                            x       y       z     vdW  Elec       q    Type
REMARK                         _______ _______ _______ _____ _____    ______ ____
ROOT
ATOM      1  N   UNL     1       4.858   6.504  18.021  0.00  0.00    +0.000 N 
ATOM      2  C   UNL     1       3.810   7.198  17.465  0.00  0.00    +0.000 C 
ATOM      3  O   UNL     1       3.666   7.315  16.252  0.00  0.00    +0.000 OA
ATOM      4  H   UNL     1       5.058   6.571  19.013  0.00  0.00    +0.000 HD
ENDROOT
BRANCH   2   5
ATOM      5  C   UNL     1       2.862   7.859  18.404  0.00  0.00    +0.000 A 
ATOM      6  C   UNL     1       2.296   9.073  18.014  0.00  0.00    +0.000 A 
ATOM      7  C   UNL     1       1.408   9.747  18.858  0.00  0.00    +0.000 A 
ATOM      8  C   UNL     1       1.031   9.222  20.109  0.00  0.00    +0.000 A 
ATOM      9  C   UNL     1       1.597   7.986  20.477  0.00  0.00    +0.000 A 
ATOM     10  C   UNL     1       2.505   7.311  19.641  0.00  0.00    +0.000 A 
BRANCH   8  11
ATOM     11  C   UNL     1       0.087   9.957  20.987  0.00  0.00    +0.000 A 
ATOM     12  C   UNL     1      -0.609  11.090  20.522  0.00  0.00    +0.000 A 
ATOM     13  C   UNL     1      -1.446  11.836  21.359  0.00  0.00    +0.000 A 
ATOM     14  C   UNL     1      -1.627  11.452  22.682  0.00  0.00    +0.000 A 
ATOM     15  C   UNL     1      -0.978  10.320  23.163  0.00  0.00    +0.000 A 
ATOM     16  C   UNL     1      -0.130   9.583  22.326  0.00  0.00    +0.000 A 
ENDBRANCH   8  11
ENDBRANCH   2   5
BRANCH   1  17
ATOM     17  C   UNL     1       5.900   5.937  17.177  0.00  0.00    +0.000 C 
BRANCH  17  19
ATOM     18  O   UNL     1       5.845   3.889  15.879  0.00  0.00    +0.000 OA
ATOM     19  C   UNL     1       5.635   4.457  16.946  0.00  0.00    +0.000 C 
BRANCH  19  20
ATOM     20  O   UNL     1       5.113   3.887  18.062  0.00  0.00    +0.000 OA
BRANCH  20  21
ATOM     21  C   UNL     1       3.977   3.034  17.868  0.00  0.00    +0.000 C 
BRANCH  21  22
ATOM     22  C   UNL     1       3.079   3.158  19.074  0.00  0.00    +0.000 A 
ATOM     23  C   UNL     1       3.422   2.586  20.313  0.00  0.00    +0.000 A 
ATOM     24 CL   UNL     1       4.903   1.724  20.553  0.00  0.00    +0.000 Cl
ATOM     25  C   UNL     1       2.567   2.685  21.419  0.00  0.00    +0.000 A 
ATOM     26  C   UNL     1       1.349   3.348  21.310  0.00  0.00    +0.000 A 
ATOM     27  C   UNL     1       0.983   3.911  20.090  0.00  0.00    +0.000 A 
ATOM     28  C   UNL     1       1.835   3.814  18.984  0.00  0.00    +0.000 A 
ATOM     29 CL   UNL     1       1.276   4.533  17.514  0.00  0.00    +0.000 Cl
ENDBRANCH  21  22
ENDBRANCH  20  21
ENDBRANCH  19  20
ENDBRANCH  17  19
ENDBRANCH   1  17
TORSDOF 7
ENDMDL
MODEL 2
REMARK VINA RESULT:      -7.9      0.389      1.772
REMARK  Name = 
REMARK  7 active torsions:
REMARK  status: ('A' for Active; 'I' for Inactive)
REMARK    1  A    between atoms: C_2  and  C_3
REMARK    2  A    between atoms: C_2  and  O_19
REMARK    3  A    between atoms: C_3  and  N_4
REMARK    4  A    between atoms: C_5  and  C_7
REMARK    5  A    between atoms: C_10  and  C_11
REMARK    6  A    between atoms: O_19  and  C_20
REMARK    7  A    between atoms: C_20  and  C_21
REMARK                            x       y       z     vdW  Elec       q    Type
REMARK                         _______ _______ _______ _____ _____    ______ ____
ROOT
ATOM      1  N   UNL     1       4.457   6.513  18.150  0.00  0.00    +0.000 N 
ATOM      2  C   UNL     1       3.534   7.360  17.585  0.00  0.00    +0.000 C 
ATOM      3  O   UNL     1       3.499   7.587  16.379  0.00  0.00    +0.000 OA
ATOM      4  H   UNL     1       4.585   6.479  19.156  0.00  0.00    +0.000 HD
ENDROOT
BRANCH   2   5
ATOM      5  C   UNL     1       2.588   8.045  18.508  0.00  0.00    +0.000 A 
ATOM      6  C   UNL     1       2.047   9.265  18.103  0.00  0.00    +0.000 A 
ATOM      7  C   UNL     1       1.163   9.961  18.932  0.00  0.00    +0.000 A 
ATOM      8  C   UNL     1       0.765   9.453  20.184  0.00  0.00    +0.000 A 
ATOM      9  C   UNL     1       1.306   8.211  20.568  0.00  0.00    +0.000 A 
ATOM     10  C   UNL     1       2.211   7.514  19.746  0.00  0.00    +0.000 A 
BRANCH   8  11
ATOM     11  C   UNL     1      -0.174  10.212  21.046  0.00  0.00    +0.000 A 
ATOM     12  C   UNL     1      -0.905  11.306  20.542  0.00  0.00    +0.000 A 
ATOM     13  C   UNL     1      -1.739  12.076  21.361  0.00  0.00    +0.000 A 
ATOM     14  C   UNL     1      -1.882  11.755  22.705  0.00  0.00    +0.000 A 
ATOM     15  C   UNL     1      -1.198  10.661  23.226  0.00  0.00    +0.000 A 
ATOM     16  C   UNL     1      -0.353   9.901  22.407  0.00  0.00    +0.000 A 
ENDBRANCH   8  11
ENDBRANCH   2   5
BRANCH   1  17
ATOM     17  C   UNL     1       5.499   5.904  17.335  0.00  0.00    +0.000 C 
BRANCH  17  19
ATOM     18  O   UNL     1       4.782   4.262  15.699  0.00  0.00    +0.000 OA
ATOM     19  C   UNL     1       5.053   4.527  16.866  0.00  0.00    +0.000 C 
BRANCH  19  20
ATOM     20  O   UNL     1       4.972   3.670  17.916  0.00  0.00    +0.000 OA
BRANCH  20  21
ATOM     21  C   UNL     1       3.885   2.735  17.891  0.00  0.00    +0.000 C 
BRANCH  21  22
ATOM     22  C   UNL     1       3.011   2.991  19.094  0.00  0.00    +0.000 A 
ATOM     23  C   UNL     1       1.829   3.748  19.002  0.00  0.00    +0.000 A 
ATOM     24 CL   UNL     1       1.278   4.419  17.504  0.00  0.00    +0.000 Cl
ATOM     25  C   UNL     1       1.039   4.001  20.131  0.00  0.00    +0.000 A 
ATOM     26  C   UNL     1       1.417   3.512  21.378  0.00  0.00    +0.000 A 
ATOM     27  C   UNL     1       2.589   2.771  21.496  0.00  0.00    +0.000 A 
ATOM     28  C   UNL     1       3.380   2.516  20.369  0.00  0.00    +0.000 A 
ATOM     29 CL   UNL     1       4.823   1.600  20.630  0.00  0.00    +0.000 Cl
ENDBRANCH  21  22
ENDBRANCH  20  21
ENDBRANCH  19  20
ENDBRANCH  17  19
ENDBRANCH   1  17
TORSDOF 7
ENDMDL
MODEL 3
REMARK VINA RESULT:      -7.7      0.329      2.176
REMARK  Name = 
REMARK  7 active torsions:
REMARK  status: ('A' for Active; 'I' for Inactive)
REMARK    1  A    between atoms: C_2  and  C_3
REMARK    2  A    between atoms: C_2  and  O_19
REMARK    3  A    between atoms: C_3  and  N_4
REMARK    4  A    between atoms: C_5  and  C_7
REMARK    5  A    between atoms: C_10  and  C_11
REMARK    6  A    between atoms: O_19  and  C_20
REMARK    7  A    between atoms: C_20  and  C_21
REMARK                            x       y       z     vdW  Elec       q    Type
REMARK                         _______ _______ _______ _____ _____    ______ ____
ROOT
ATOM      1  N   UNL     1       4.724   6.365  17.673  0.00  0.00    +0.000 N 
ATOM      2  C   UNL     1       3.801   7.242  17.153  0.00  0.00    +0.000 C 
ATOM      3  O   UNL     1       3.727   7.486  15.953  0.00  0.00    +0.000 OA
ATOM      4  H   UNL     1       4.888   6.315  18.672  0.00  0.00    +0.000 HD
ENDROOT
BRANCH   2   5
ATOM      5  C   UNL     1       2.908   7.937  18.120  0.00  0.00    +0.000 A 
ATOM      6  C   UNL     1       2.675   7.325  19.351  0.00  0.00    +0.000 A 
ATOM      7  C   UNL     1       1.835   7.923  20.296  0.00  0.00    +0.000 A 
ATOM      8  C   UNL     1       1.220   9.167  20.057  0.00  0.00    +0.000 A 
ATOM      9  C   UNL     1       1.482   9.780  18.817  0.00  0.00    +0.000 A 
ATOM     10  C   UNL     1       2.311   9.175  17.855  0.00  0.00    +0.000 A 
BRANCH   8  11
ATOM     11  C   UNL     1       0.332   9.781  21.076  0.00  0.00    +0.000 A 
ATOM     12  C   UNL     1       0.253   9.261  22.383  0.00  0.00    +0.000 A 
ATOM     13  C   UNL     1      -0.632   9.784  23.332  0.00  0.00    +0.000 A 
ATOM     14  C   UNL     1      -1.448  10.859  23.004  0.00  0.00    +0.000 A 
ATOM     15  C   UNL     1      -1.371  11.415  21.731  0.00  0.00    +0.000 A 
ATOM     16  C   UNL     1      -0.493  10.881  20.778  0.00  0.00    +0.000 A 
ENDBRANCH   8  11
ENDBRANCH   2   5
BRANCH   1  17
ATOM     17  C   UNL     1       5.718   5.742  16.811  0.00  0.00    +0.000 C 
BRANCH  17  19
ATOM     18  O   UNL     1       5.792   3.521  15.838  0.00  0.00    +0.000 OA
ATOM     19  C   UNL     1       5.524   4.233  16.801  0.00  0.00    +0.000 C 
BRANCH  19  20
ATOM     20  O   UNL     1       4.993   3.813  17.978  0.00  0.00    +0.000 OA
BRANCH  20  21
ATOM     21  C   UNL     1       3.925   2.862  17.889  0.00  0.00    +0.000 C 
BRANCH  21  22
ATOM     22  C   UNL     1       3.019   3.052  19.081  0.00  0.00    +0.000 A 
ATOM     23  C   UNL     1       1.808   3.763  18.983  0.00  0.00    +0.000 A 
ATOM     24 CL   UNL     1       1.259   4.448  17.492  0.00  0.00    +0.000 Cl
ATOM     25  C   UNL     1       0.988   3.956  20.102  0.00  0.00    +0.000 A 
ATOM     26  C   UNL     1       1.362   3.451  21.344  0.00  0.00    +0.000 A 
ATOM     27  C   UNL     1       2.561   2.755  21.467  0.00  0.00    +0.000 A 
ATOM     28  C   UNL     1       3.382   2.560  20.351  0.00  0.00    +0.000 A 
ATOM     29 CL   UNL     1       4.856   1.697  20.618  0.00  0.00    +0.000 Cl
ENDBRANCH  21  22
ENDBRANCH  20  21
ENDBRANCH  19  20
ENDBRANCH  17  19
ENDBRANCH   1  17
TORSDOF 7
ENDMDL
MODEL 4
REMARK VINA RESULT:      -7.7      1.346      2.008
REMARK  Name = 
REMARK  7 active torsions:
REMARK  status: ('A' for Active; 'I' for Inactive)
REMARK    1  A    between atoms: C_2  and  C_3
REMARK    2  A    between atoms: C_2  and  O_19
REMARK    3  A    between atoms: C_3  and  N_4
REMARK    4  A    between atoms: C_5  and  C_7
REMARK    5  A    between atoms: C_10  and  C_11
REMARK    6  A    between atoms: O_19  and  C_20
REMARK    7  A    between atoms: C_20  and  C_21
REMARK                            x       y       z     vdW  Elec       q    Type
REMARK                         _______ _______ _______ _____ _____    ______ ____
ROOT
ATOM      1  N   UNL     1       4.756   6.252  17.497  0.00  0.00    +0.000 N 
ATOM      2  C   UNL     1       4.073   6.397  18.681  0.00  0.00    +0.000 C 
ATOM      3  O   UNL     1       4.319   5.715  19.671  0.00  0.00    +0.000 OA
ATOM      4  H   UNL     1       4.421   6.693  16.646  0.00  0.00    +0.000 HD
ENDROOT
BRANCH   2   5
ATOM      5  C   UNL     1       2.971   7.397  18.710  0.00  0.00    +0.000 A 
ATOM      6  C   UNL     1       2.222   7.511  19.881  0.00  0.00    +0.000 A 
ATOM      7  C   UNL     1       1.165   8.423  19.963  0.00  0.00    +0.000 A 
ATOM      8  C   UNL     1       0.836   9.274  18.891  0.00  0.00    +0.000 A 
ATOM      9  C   UNL     1       1.615   9.159  17.724  0.00  0.00    +0.000 A 
ATOM     10  C   UNL     1       2.668   8.231  17.628  0.00  0.00    +0.000 A 
BRANCH   8  11
ATOM     11  C   UNL     1      -0.291  10.234  19.004  0.00  0.00    +0.000 A 
ATOM     12  C   UNL     1      -0.403  11.099  20.110  0.00  0.00    +0.000 A 
ATOM     13  C   UNL     1      -1.497  11.958  20.266  0.00  0.00    +0.000 A 
ATOM     14  C   UNL     1      -2.499  11.990  19.304  0.00  0.00    +0.000 A 
ATOM     15  C   UNL     1      -2.401  11.170  18.184  0.00  0.00    +0.000 A 
ATOM     16  C   UNL     1      -1.311  10.301  18.037  0.00  0.00    +0.000 A 
ENDBRANCH   8  11
ENDBRANCH   2   5
BRANCH   1  17
ATOM     17  C   UNL     1       5.761   5.209  17.345  0.00  0.00    +0.000 C 
BRANCH  17  19
ATOM     18  O   UNL     1       5.823   3.455  15.671  0.00  0.00    +0.000 OA
ATOM     19  C   UNL     1       5.192   4.053  16.537  0.00  0.00    +0.000 C 
BRANCH  19  20
ATOM     20  O   UNL     1       3.904   3.813  16.891  0.00  0.00    +0.000 OA
BRANCH  20  21
ATOM     21  C   UNL     1       3.657   2.593  17.603  0.00  0.00    +0.000 C 
BRANCH  21  22
ATOM     22  C   UNL     1       2.919   2.927  18.876  0.00  0.00    +0.000 A 
ATOM     23  C   UNL     1       3.372   2.481  20.131  0.00  0.00    +0.000 A 
ATOM     24 CL   UNL     1       4.814   1.542  20.311  0.00  0.00    +0.000 Cl
ATOM     25  C   UNL     1       2.664   2.775  21.304  0.00  0.00    +0.000 A 
ATOM     26  C   UNL     1       1.485   3.512  21.249  0.00  0.00    +0.000 A 
ATOM     27  C   UNL     1       1.012   3.954  20.017  0.00  0.00    +0.000 A 
ATOM     28  C   UNL     1       1.717   3.663  18.843  0.00  0.00    +0.000 A 
ATOM     29 CL   UNL     1       1.032   4.244  17.366  0.00  0.00    +0.000 Cl
ENDBRANCH  21  22
ENDBRANCH  20  21
ENDBRANCH  19  20
ENDBRANCH  17  19
ENDBRANCH   1  17
TORSDOF 7
ENDMDL
MODEL 5
REMARK VINA RESULT:      -7.7      1.312      2.425
REMARK  Name = 
REMARK  7 active torsions:
REMARK  status: ('A' for Active; 'I' for Inactive)
REMARK    1  A    between atoms: C_2  and  C_3
REMARK    2  A    between atoms: C_2  and  O_19
REMARK    3  A    between atoms: C_3  and  N_4
REMARK    4  A    between atoms: C_5  and  C_7
REMARK    5  A    between atoms: C_10  and  C_11
REMARK    6  A    between atoms: O_19  and  C_20
REMARK    7  A    between atoms: C_20  and  C_21
REMARK                            x       y       z     vdW  Elec       q    Type
REMARK                         _______ _______ _______ _____ _____    ______ ____
ROOT
ATOM      1  N   UNL     1       4.653   6.452  17.510  0.00  0.00    +0.000 N 
ATOM      2  C   UNL     1       4.029   6.488  18.734  0.00  0.00    +0.000 C 
ATOM      3  O   UNL     1       4.362   5.761  19.664  0.00  0.00    +0.000 OA
ATOM      4  H   UNL     1       4.251   6.925  16.707  0.00  0.00    +0.000 HD
ENDROOT
BRANCH   2   5
ATOM      5  C   UNL     1       2.880   7.423  18.882  0.00  0.00    +0.000 A 
ATOM      6  C   UNL     1       2.549   8.229  17.792  0.00  0.00    +0.000 A 
ATOM      7  C   UNL     1       1.488   9.136  17.875  0.00  0.00    +0.000 A 
ATOM      8  C   UNL     1       0.701   9.252  19.037  0.00  0.00    +0.000 A 
ATOM      9  C   UNL     1       1.037   8.416  20.119  0.00  0.00    +0.000 A 
ATOM     10  C   UNL     1       2.115   7.514  20.049  0.00  0.00    +0.000 A 
BRANCH   8  11
ATOM     11  C   UNL     1      -0.420  10.222  19.099  0.00  0.00    +0.000 A 
ATOM     12  C   UNL     1      -1.319  10.368  18.024  0.00  0.00    +0.000 A 
ATOM     13  C   UNL     1      -2.336  11.328  18.039  0.00  0.00    +0.000 A 
ATOM     14  C   UNL     1      -2.495  12.156  19.144  0.00  0.00    +0.000 A 
ATOM     15  C   UNL     1      -1.642  12.016  20.234  0.00  0.00    +0.000 A 
ATOM     16  C   UNL     1      -0.616  11.062  20.211  0.00  0.00    +0.000 A 
ENDBRANCH   8  11
ENDBRANCH   2   5
BRANCH   1  17
ATOM     17  C   UNL     1       5.700   5.477  17.241  0.00  0.00    +0.000 C 
BRANCH  17  19
ATOM     18  O   UNL     1       4.786   4.036  15.518  0.00  0.00    +0.000 OA
ATOM     19  C   UNL     1       5.090   4.195  16.696  0.00  0.00    +0.000 C 
BRANCH  19  20
ATOM     20  O   UNL     1       4.908   3.292  17.694  0.00  0.00    +0.000 OA
BRANCH  20  21
ATOM     21  C   UNL     1       3.677   2.559  17.671  0.00  0.00    +0.000 C 
BRANCH  21  22
ATOM     22  C   UNL     1       2.903   2.889  18.923  0.00  0.00    +0.000 A 
ATOM     23  C   UNL     1       1.748   3.693  18.888  0.00  0.00    +0.000 A 
ATOM     24 CL   UNL     1       1.118   4.338  17.412  0.00  0.00    +0.000 Cl
ATOM     25  C   UNL     1       1.054   4.015  20.062  0.00  0.00    +0.000 A 
ATOM     26  C   UNL     1       1.500   3.550  21.295  0.00  0.00    +0.000 A 
ATOM     27  C   UNL     1       2.647   2.764  21.355  0.00  0.00    +0.000 A 
ATOM     28  C   UNL     1       3.343   2.439  20.185  0.00  0.00    +0.000 A 
ATOM     29 CL   UNL     1       4.764   1.472  20.374  0.00  0.00    +0.000 Cl
ENDBRANCH  21  22
ENDBRANCH  20  21
ENDBRANCH  19  20
ENDBRANCH  17  19
ENDBRANCH   1  17
TORSDOF 7
ENDMDL
MODEL 6
REMARK VINA RESULT:      -7.6      1.310      1.704
REMARK  Name = 
REMARK  7 active torsions:
REMARK  status: ('A' for Active; 'I' for Inactive)
REMARK    1  A    between atoms: C_2  and  C_3
REMARK    2  A    between atoms: C_2  and  O_19
REMARK    3  A    between atoms: C_3  and  N_4
REMARK    4  A    between atoms: C_5  and  C_7
REMARK    5  A    between atoms: C_10  and  C_11
REMARK    6  A    between atoms: O_19  and  C_20
REMARK    7  A    between atoms: C_20  and  C_21
REMARK                            x       y       z     vdW  Elec       q    Type
REMARK                         _______ _______ _______ _____ _____    ______ ____
ROOT
ATOM      1  N   UNL     1       4.676   6.435  17.475  0.00  0.00    +0.000 N 
ATOM      2  C   UNL     1       4.074   6.493  18.710  0.00  0.00    +0.000 C 
ATOM      3  O   UNL     1       4.431   5.790  19.650  0.00  0.00    +0.000 OA
ATOM      4  H   UNL     1       4.255   6.886  16.670  0.00  0.00    +0.000 HD
ENDROOT
BRANCH   2   5
ATOM      5  C   UNL     1       2.918   7.419  18.857  0.00  0.00    +0.000 A 
ATOM      6  C   UNL     1       2.567   8.205  17.760  0.00  0.00    +0.000 A 
ATOM      7  C   UNL     1       1.499   9.104  17.842  0.00  0.00    +0.000 A 
ATOM      8  C   UNL     1       0.725   9.231  19.011  0.00  0.00    +0.000 A 
ATOM      9  C   UNL     1       1.082   8.415  20.102  0.00  0.00    +0.000 A 
ATOM     10  C   UNL     1       2.167   7.522  20.033  0.00  0.00    +0.000 A 
BRANCH   8  11
ATOM     11  C   UNL     1      -0.404  10.192  19.073  0.00  0.00    +0.000 A 
ATOM     12  C   UNL     1      -1.282  10.356  17.983  0.00  0.00    +0.000 A 
ATOM     13  C   UNL     1      -2.306  11.309  17.999  0.00  0.00    +0.000 A 
ATOM     14  C   UNL     1      -2.493  12.111  19.119  0.00  0.00    +0.000 A 
ATOM     15  C   UNL     1      -1.662  11.952  20.223  0.00  0.00    +0.000 A 
ATOM     16  C   UNL     1      -0.629  11.005  20.199  0.00  0.00    +0.000 A 
ENDBRANCH   8  11
ENDBRANCH   2   5
BRANCH   1  17
ATOM     17  C   UNL     1       5.728   5.464  17.210  0.00  0.00    +0.000 C 
BRANCH  17  19
ATOM     18  O   UNL     1       4.845   4.035  15.461  0.00  0.00    +0.000 OA
ATOM     19  C   UNL     1       5.126   4.186  16.645  0.00  0.00    +0.000 C 
BRANCH  19  20
ATOM     20  O   UNL     1       4.924   3.278  17.633  0.00  0.00    +0.000 OA
BRANCH  20  21
ATOM     21  C   UNL     1       3.659   2.603  17.627  0.00  0.00    +0.000 C 
BRANCH  21  22
ATOM     22  C   UNL     1       2.930   2.946  18.902  0.00  0.00    +0.000 A 
ATOM     23  C   UNL     1       3.358   2.461  20.152  0.00  0.00    +0.000 A 
ATOM     24 CL   UNL     1       4.760   1.459  20.321  0.00  0.00    +0.000 Cl
ATOM     25  C   UNL     1       2.658   2.764  21.327  0.00  0.00    +0.000 A 
ATOM     26  C   UNL     1       1.511   3.551  21.279  0.00  0.00    +0.000 A 
ATOM     27  C   UNL     1       1.062   4.032  20.053  0.00  0.00    +0.000 A 
ATOM     28  C   UNL     1       1.760   3.731  18.878  0.00  0.00    +0.000 A 
ATOM     29 CL   UNL     1       1.106   4.365  17.408  0.00  0.00    +0.000 Cl
ENDBRANCH  21  22
ENDBRANCH  20  21
ENDBRANCH  19  20
ENDBRANCH  17  19
ENDBRANCH   1  17
TORSDOF 7
ENDMDL
MODEL 7
REMARK VINA RESULT:      -7.6      1.307      2.616
REMARK  Name = 
REMARK  7 active torsions:
REMARK  status: ('A' for Active; 'I' for Inactive)
REMARK    1  A    between atoms: C_2  and  C_3
REMARK    2  A    between atoms: C_2  and  O_19
REMARK    3  A    between atoms: C_3  and  N_4
REMARK    4  A    between atoms: C_5  and  C_7
REMARK    5  A    between atoms: C_10  and  C_11
REMARK    6  A    between atoms: O_19  and  C_20
REMARK    7  A    between atoms: C_20  and  C_21
REMARK                            x       y       z     vdW  Elec       q    Type
REMARK                         _______ _______ _______ _____ _____    ______ ____
ROOT
ATOM      1  N   UNL     1       4.680   6.502  17.499  0.00  0.00    +0.000 N 
ATOM      2  C   UNL     1       3.959   6.567  18.667  0.00  0.00    +0.000 C 
ATOM      3  O   UNL     1       4.184   5.831  19.622  0.00  0.00    +0.000 OA
ATOM      4  H   UNL     1       4.366   6.987  16.665  0.00  0.00    +0.000 HD
ENDROOT
BRANCH   2   5
ATOM      5  C   UNL     1       2.839   7.547  18.718  0.00  0.00    +0.000 A 
ATOM      6  C   UNL     1       2.130   7.668  19.913  0.00  0.00    +0.000 A 
ATOM      7  C   UNL     1       1.060   8.562  20.018  0.00  0.00    +0.000 A 
ATOM      8  C   UNL     1       0.678   9.388  18.944  0.00  0.00    +0.000 A 
ATOM      9  C   UNL     1       1.417   9.267  17.752  0.00  0.00    +0.000 A 
ATOM     10  C   UNL     1       2.483   8.356  17.634  0.00  0.00    +0.000 A 
BRANCH   8  11
ATOM     11  C   UNL     1      -0.462  10.330  19.080  0.00  0.00    +0.000 A 
ATOM     12  C   UNL     1      -0.549  11.214  20.174  0.00  0.00    +0.000 A 
ATOM     13  C   UNL     1      -1.652  12.056  20.354  0.00  0.00    +0.000 A 
ATOM     14  C   UNL     1      -2.690  12.050  19.430  0.00  0.00    +0.000 A 
ATOM     15  C   UNL     1      -2.618  11.211  18.323  0.00  0.00    +0.000 A 
ATOM     16  C   UNL     1      -1.519  10.359  18.152  0.00  0.00    +0.000 A 
ENDBRANCH   8  11
ENDBRANCH   2   5
BRANCH   1  17
ATOM     17  C   UNL     1       5.707   5.485  17.319  0.00  0.00    +0.000 C 
BRANCH  17  19
ATOM     18  O   UNL     1       4.846   4.125  15.504  0.00  0.00    +0.000 OA
ATOM     19  C   UNL     1       5.098   4.235  16.700  0.00  0.00    +0.000 C 
BRANCH  19  20
ATOM     20  O   UNL     1       4.855   3.301  17.654  0.00  0.00    +0.000 OA
BRANCH  20  21
ATOM     21  C   UNL     1       3.579   2.651  17.596  0.00  0.00    +0.000 C 
BRANCH  21  22
ATOM     22  C   UNL     1       2.834   2.950  18.873  0.00  0.00    +0.000 A 
ATOM     23  C   UNL     1       1.687   3.766  18.886  0.00  0.00    +0.000 A 
ATOM     24 CL   UNL     1       1.034   4.462  17.443  0.00  0.00    +0.000 Cl
ATOM     25  C   UNL     1       1.019   4.059  20.082  0.00  0.00    +0.000 A 
ATOM     26  C   UNL     1       1.485   3.552  21.291  0.00  0.00    +0.000 A 
ATOM     27  C   UNL     1       2.625   2.753  21.304  0.00  0.00    +0.000 A 
ATOM     28  C   UNL     1       3.294   2.458  20.111  0.00  0.00    +0.000 A 
ATOM     29 CL   UNL     1       4.708   1.471  20.242  0.00  0.00    +0.000 Cl
ENDBRANCH  21  22
ENDBRANCH  20  21
ENDBRANCH  19  20
ENDBRANCH  17  19
ENDBRANCH   1  17
TORSDOF 7
ENDMDL
MODEL 8
REMARK VINA RESULT:      -7.5      0.415      1.349
REMARK  Name = 
REMARK  7 active torsions:
REMARK  status: ('A' for Active; 'I' for Inactive)
REMARK    1  A    between atoms: C_2  and  C_3
REMARK    2  A    between atoms: C_2  and  O_19
REMARK    3  A    between atoms: C_3  and  N_4
REMARK    4  A    between atoms: C_5  and  C_7
REMARK    5  A    between atoms: C_10  and  C_11
REMARK    6  A    between atoms: O_19  and  C_20
REMARK    7  A    between atoms: C_20  and  C_21
REMARK                            x       y       z     vdW  Elec       q    Type
REMARK                         _______ _______ _______ _____ _____    ______ ____
ROOT
ATOM      1  N   UNL     1       4.465   6.370  18.122  0.00  0.00    +0.000 N 
ATOM      2  C   UNL     1       3.646   7.276  17.492  0.00  0.00    +0.000 C 
ATOM      3  O   UNL     1       3.688   7.472  16.282  0.00  0.00    +0.000 OA
ATOM      4  H   UNL     1       4.541   6.353  19.133  0.00  0.00    +0.000 HD
ENDROOT
BRANCH   2   5
ATOM      5  C   UNL     1       2.719   8.064  18.351  0.00  0.00    +0.000 A 
ATOM      6  C   UNL     1       2.396   7.548  19.606  0.00  0.00    +0.000 A 
ATOM      7  C   UNL     1       1.521   8.236  20.453  0.00  0.00    +0.000 A 
ATOM      8  C   UNL     1       0.960   9.475  20.091  0.00  0.00    +0.000 A 
ATOM      9  C   UNL     1       1.314   9.989  18.829  0.00  0.00    +0.000 A 
ATOM     10  C   UNL     1       2.179   9.294  17.964  0.00  0.00    +0.000 A 
BRANCH   8  11
ATOM     11  C   UNL     1       0.034  10.186  21.008  0.00  0.00    +0.000 A 
ATOM     12  C   UNL     1      -0.105   9.791  22.353  0.00  0.00    +0.000 A 
ATOM     13  C   UNL     1      -1.026  10.404  23.209  0.00  0.00    +0.000 A 
ATOM     14  C   UNL     1      -1.819  11.446  22.746  0.00  0.00    +0.000 A 
ATOM     15  C   UNL     1      -1.683  11.880  21.432  0.00  0.00    +0.000 A 
ATOM     16  C   UNL     1      -0.770  11.256  20.572  0.00  0.00    +0.000 A 
ENDBRANCH   8  11
ENDBRANCH   2   5
BRANCH   1  17
ATOM     17  C   UNL     1       5.488   5.652  17.374  0.00  0.00    +0.000 C 
BRANCH  17  19
ATOM     18  O   UNL     1       4.479   4.217  15.699  0.00  0.00    +0.000 OA
ATOM     19  C   UNL     1       4.919   4.347  16.836  0.00  0.00    +0.000 C 
BRANCH  19  20
ATOM     20  O   UNL     1       4.945   3.386  17.794  0.00  0.00    +0.000 OA
BRANCH  20  21
ATOM     21  C   UNL     1       3.782   2.552  17.889  0.00  0.00    +0.000 C 
BRANCH  21  22
ATOM     22  C   UNL     1       3.000   2.965  19.111  0.00  0.00    +0.000 A 
ATOM     23  C   UNL     1       3.370   2.546  20.403  0.00  0.00    +0.000 A 
ATOM     24 CL   UNL     1       4.757   1.551  20.687  0.00  0.00    +0.000 Cl
ATOM     25  C   UNL     1       2.619   2.914  21.527  0.00  0.00    +0.000 A 
ATOM     26  C   UNL     1       1.480   3.700  21.387  0.00  0.00    +0.000 A 
ATOM     27  C   UNL     1       1.088   4.117  20.118  0.00  0.00    +0.000 A 
ATOM     28  C   UNL     1       1.835   3.751  18.993  0.00  0.00    +0.000 A 
ATOM     29 CL   UNL     1       1.251   4.307  17.463  0.00  0.00    +0.000 Cl
ENDBRANCH  21  22
ENDBRANCH  20  21
ENDBRANCH  19  20
ENDBRANCH  17  19
ENDBRANCH   1  17
TORSDOF 7
ENDMDL
MODEL 9
REMARK VINA RESULT:      -7.4      5.799      7.237
REMARK  Name = 
REMARK  7 active torsions:
REMARK  status: ('A' for Active; 'I' for Inactive)
REMARK    1  A    between atoms: C_2  and  C_3
REMARK    2  A    between atoms: C_2  and  O_19
REMARK    3  A    between atoms: C_3  and  N_4
REMARK    4  A    between atoms: C_5  and  C_7
REMARK    5  A    between atoms: C_10  and  C_11
REMARK    6  A    between atoms: O_19  and  C_20
REMARK    7  A    between atoms: C_20  and  C_21
REMARK                            x       y       z     vdW  Elec       q    Type
REMARK                         _______ _______ _______ _____ _____    ______ ____
ROOT
ATOM      1  N   UNL     1       7.246   7.975  17.156  0.00  0.00    +0.000 N 
ATOM      2  C   UNL     1       8.138   8.188  18.180  0.00  0.00    +0.000 C 
ATOM      3  O   UNL     1       8.522   7.285  18.917  0.00  0.00    +0.000 OA
ATOM      4  H   UNL     1       6.806   8.755  16.679  0.00  0.00    +0.000 HD
ENDROOT
BRANCH   2   5
ATOM      5  C   UNL     1       8.594   9.587  18.401  0.00  0.00    +0.000 A 
ATOM      6  C   UNL     1       9.373   9.850  19.528  0.00  0.00    +0.000 A 
ATOM      7  C   UNL     1       9.821  11.148  19.796  0.00  0.00    +0.000 A 
ATOM      8  C   UNL     1       9.531  12.224  18.936  0.00  0.00    +0.000 A 
ATOM      9  C   UNL     1       8.760  11.936  17.793  0.00  0.00    +0.000 A 
ATOM     10  C   UNL     1       8.291  10.636  17.527  0.00  0.00    +0.000 A 
BRANCH   8  11
ATOM     11  C   UNL     1      10.018  13.592  19.243  0.00  0.00    +0.000 A 
ATOM     12  C   UNL     1       9.156  14.704  19.176  0.00  0.00    +0.000 A 
ATOM     13  C   UNL     1       9.616  16.008  19.391  0.00  0.00    +0.000 A 
ATOM     14  C   UNL     1      10.952  16.231  19.702  0.00  0.00    +0.000 A 
ATOM     15  C   UNL     1      11.822  15.150  19.806  0.00  0.00    +0.000 A 
ATOM     16  C   UNL     1      11.361  13.847  19.577  0.00  0.00    +0.000 A 
ENDBRANCH   8  11
ENDBRANCH   2   5
BRANCH   1  17
ATOM     17  C   UNL     1       6.653   6.661  16.953  0.00  0.00    +0.000 C 
BRANCH  17  19
ATOM     18  O   UNL     1       5.034   6.955  15.170  0.00  0.00    +0.000 OA
ATOM     19  C   UNL     1       5.256   6.806  16.367  0.00  0.00    +0.000 C 
BRANCH  19  20
ATOM     20  O   UNL     1       4.322   6.779  17.352  0.00  0.00    +0.000 OA
BRANCH  20  21
ATOM     21  C   UNL     1       4.550   5.847  18.418  0.00  0.00    +0.000 C 
BRANCH  21  22
ATOM     22  C   UNL     1       3.456   4.808  18.384  0.00  0.00    +0.000 A 
ATOM     23  C   UNL     1       2.316   4.908  19.203  0.00  0.00    +0.000 A 
ATOM     24 CL   UNL     1       2.073   6.235  20.287  0.00  0.00    +0.000 Cl
ATOM     25  C   UNL     1       1.320   3.923  19.182  0.00  0.00    +0.000 A 
ATOM     26  C   UNL     1       1.443   2.815  18.350  0.00  0.00    +0.000 A 
ATOM     27  C   UNL     1       2.568   2.689  17.540  0.00  0.00    +0.000 A 
ATOM     28  C   UNL     1       3.565   3.671  17.558  0.00  0.00    +0.000 A 
ATOM     29 CL   UNL     1       4.927   3.408  16.526  0.00  0.00    +0.000 Cl
ENDBRANCH  21  22
ENDBRANCH  20  21
ENDBRANCH  19  20
ENDBRANCH  17  19
ENDBRANCH   1  17
TORSDOF 7
ENDMDL
