MODEL 1
REMARK VINA RESULT:      -7.8      0.000      0.000
REMARK  Name = 
REMARK  9 active torsions:
REMARK  status: ('A' for Active; 'I' for Inactive)
REMARK    1  A    between atoms: C_1  and  C_2
REMARK    2  A    between atoms: C_2  and  C_3
REMARK    3  A    between atoms: C_8  and  N_9
REMARK    4  A    between atoms: C_10  and  C_12
REMARK    5  A    between atoms: C_12  and  C_14
REMARK    6  A    between atoms: C_14  and  C_15
REMARK    7  A    between atoms: C_15  and  C_17
REMARK    8  A    between atoms: N_20  and  C_21
REMARK    9  A    between atoms: C_29  and  C_30
REMARK                            x       y       z     vdW  Elec       q    Type
REMARK                         _______ _______ _______ _____ _____    ______ ____
ROOT
ATOM      1  C   UNL     1       0.637  10.509  19.421  0.00  0.00    +0.000 C 
ATOM      2  O   UNL     1       1.081  11.429  20.112  0.00  0.00    +0.000 OA
ENDROOT
BRANCH   1   3
ATOM      3  C   UNL     1       1.322   9.232  19.303  0.00  0.00    +0.000 A 
ATOM      4  S   UNL     1       2.067   8.734  17.839  0.00  0.00    +0.000 S 
ATOM      5  C   UNL     1       2.502   7.234  18.555  0.00  0.00    +0.000 A 
ATOM      6  N   UNL     1       3.153   6.296  17.836  0.00  0.00    +0.000 N 
ATOM      7  N   UNL     1       2.153   7.119  19.815  0.00  0.00    +0.000 NA
ATOM      8  C   UNL     1       1.504   8.252  20.268  0.00  0.00    +0.000 A 
ATOM      9  C   UNL     1       1.053   8.248  21.686  0.00  0.00    +0.000 C 
ATOM     10  H   UNL     1       3.569   6.545  16.947  0.00  0.00    +0.000 HD
BRANCH   6  11
ATOM     11  C   UNL     1       3.161   4.911  18.106  0.00  0.00    +0.000 A 
ATOM     12  C   UNL     1       2.072   4.093  17.761  0.00  0.00    +0.000 A 
ATOM     13  C   UNL     1       2.077   2.723  18.027  0.00  0.00    +0.000 A 
ATOM     14  C   UNL     1       3.163   2.146  18.677  0.00  0.00    +0.000 A 
ATOM     15  C   UNL     1       4.241   2.941  19.063  0.00  0.00    +0.000 A 
ATOM     16  C   UNL     1       4.240   4.311  18.782  0.00  0.00    +0.000 A 
ATOM     17 CL   UNL     1       5.593   5.254  19.305  0.00  0.00    +0.000 Cl
ENDBRANCH   6  11
ENDBRANCH   1   3
BRANCH   1  18
ATOM     18  C   UNL     1      -0.728  10.653  18.800  0.00  0.00    +0.000 C 
BRANCH  18  19
ATOM     19  C   UNL     1      -1.303  12.044  18.712  0.00  0.00    +0.000 C 
ATOM     20  O   UNL     1      -0.952  12.930  17.948  0.00  0.00    +0.000 OA
BRANCH  19  22
ATOM     21  N   UNL     1      -3.687  12.573  19.122  0.00  0.00    +0.000 N 
ATOM     22  C   UNL     1      -2.451  12.294  19.687  0.00  0.00    +0.000 C 
ATOM     23  O   UNL     1      -2.165  12.207  20.876  0.00  0.00    +0.000 OA
ATOM     24  H   UNL     1      -3.706  12.612  18.108  0.00  0.00    +0.000 HD
BRANCH  21  30
ATOM     25  C   UNL     1      -5.976  11.835  19.700  0.00  0.00    +0.000 A 
ATOM     26  C   UNL     1      -7.149  12.017  20.471  0.00  0.00    +0.000 A 
ATOM     27  C   UNL     1      -7.292  13.098  21.335  0.00  0.00    +0.000 A 
ATOM     28  C   UNL     1      -6.265  14.019  21.440  0.00  0.00    +0.000 A 
ATOM     29  C   UNL     1      -5.090  13.840  20.707  0.00  0.00    +0.000 A 
ATOM     30  C   UNL     1      -4.908  12.751  19.837  0.00  0.00    +0.000 A 
BRANCH  25  32
ATOM     31  C   UNL     1      -6.910   9.586  19.182  0.00  0.00    +0.000 C 
ATOM     32  C   UNL     1      -6.015  10.714  18.686  0.00  0.00    +0.000 C 
ENDBRANCH  25  32
ENDBRANCH  21  30
ENDBRANCH  19  22
ENDBRANCH  18  19
ENDBRANCH   1  18
TORSDOF 7
ENDMDL
MODEL 2
REMARK VINA RESULT:      -7.8      1.616      2.393
REMARK  Name = 
REMARK  9 active torsions:
REMARK  status: ('A' for Active; 'I' for Inactive)
REMARK    1  A    between atoms: C_1  and  C_2
REMARK    2  A    between atoms: C_2  and  C_3
REMARK    3  A    between atoms: C_8  and  N_9
REMARK    4  A    between atoms: C_10  and  C_12
REMARK    5  A    between atoms: C_12  and  C_14
REMARK    6  A    between atoms: C_14  and  C_15
REMARK    7  A    between atoms: C_15  and  C_17
REMARK    8  A    between atoms: N_20  and  C_21
REMARK    9  A    between atoms: C_29  and  C_30
REMARK                            x       y       z     vdW  Elec       q    Type
REMARK                         _______ _______ _______ _____ _____    ______ ____
ROOT
ATOM      1  C   UNL     1       0.823  10.723  19.423  0.00  0.00    +0.000 C 
ATOM      2  O   UNL     1       1.370  11.642  20.037  0.00  0.00    +0.000 OA
ENDROOT
BRANCH   1   3
ATOM      3  C   UNL     1       1.419   9.400  19.320  0.00  0.00    +0.000 A 
ATOM      4  S   UNL     1       2.116   8.830  17.860  0.00  0.00    +0.000 S 
ATOM      5  C   UNL     1       2.454   7.315  18.598  0.00  0.00    +0.000 A 
ATOM      6  N   UNL     1       3.034   6.324  17.890  0.00  0.00    +0.000 N 
ATOM      7  N   UNL     1       2.108   7.245  19.861  0.00  0.00    +0.000 NA
ATOM      8  C   UNL     1       1.542   8.426  20.300  0.00  0.00    +0.000 A 
ATOM      9  C   UNL     1       1.103   8.476  21.721  0.00  0.00    +0.000 C 
ATOM     10  H   UNL     1       3.458   6.530  16.993  0.00  0.00    +0.000 HD
BRANCH   6  11
ATOM     11  C   UNL     1       2.950   4.946  18.182  0.00  0.00    +0.000 A 
ATOM     12  C   UNL     1       1.798   4.202  17.875  0.00  0.00    +0.000 A 
ATOM     13  C   UNL     1       1.712   2.840  18.164  0.00  0.00    +0.000 A 
ATOM     14  C   UNL     1       2.769   2.197  18.799  0.00  0.00    +0.000 A 
ATOM     15  C   UNL     1       3.910   2.918  19.148  0.00  0.00    +0.000 A 
ATOM     16  C   UNL     1       3.999   4.281  18.844  0.00  0.00    +0.000 A 
ATOM     17 CL   UNL     1       5.428   5.133  19.321  0.00  0.00    +0.000 Cl
ENDBRANCH   6  11
ENDBRANCH   1   3
BRANCH   1  18
ATOM     18  C   UNL     1      -0.571  10.927  18.888  0.00  0.00    +0.000 C 
BRANCH  18  19
ATOM     19  C   UNL     1      -1.011  12.346  18.632  0.00  0.00    +0.000 C 
ATOM     20  O   UNL     1      -0.837  12.990  17.609  0.00  0.00    +0.000 OA
BRANCH  19  22
ATOM     21  N   UNL     1      -2.701  12.166  20.434  0.00  0.00    +0.000 N 
ATOM     22  C   UNL     1      -1.765  12.973  19.803  0.00  0.00    +0.000 C 
ATOM     23  O   UNL     1      -1.454  14.126  20.077  0.00  0.00    +0.000 OA
ATOM     24  H   UNL     1      -2.816  11.238  20.038  0.00  0.00    +0.000 HD
BRANCH  21  30
ATOM     25  C   UNL     1      -2.826  12.646  22.857  0.00  0.00    +0.000 A 
ATOM     26  C   UNL     1      -3.599  13.048  23.974  0.00  0.00    +0.000 A 
ATOM     27  C   UNL     1      -4.966  13.279  23.868  0.00  0.00    +0.000 A 
ATOM     28  C   UNL     1      -5.588  13.108  22.644  0.00  0.00    +0.000 A 
ATOM     29  C   UNL     1      -4.836  12.739  21.526  0.00  0.00    +0.000 A 
ATOM     30  C   UNL     1      -3.451  12.513  21.596  0.00  0.00    +0.000 A 
BRANCH  25  32
ATOM     31  C   UNL     1      -1.238  10.758  23.189  0.00  0.00    +0.000 C 
ATOM     32  C   UNL     1      -1.389  12.274  23.143  0.00  0.00    +0.000 C 
ENDBRANCH  25  32
ENDBRANCH  21  30
ENDBRANCH  19  22
ENDBRANCH  18  19
ENDBRANCH   1  18
TORSDOF 7
ENDMDL
MODEL 3
REMARK VINA RESULT:      -7.6      1.273      1.680
REMARK  Name = 
REMARK  9 active torsions:
REMARK  status: ('A' for Active; 'I' for Inactive)
REMARK    1  A    between atoms: C_1  and  C_2
REMARK    2  A    between atoms: C_2  and  C_3
REMARK    3  A    between atoms: C_8  and  N_9
REMARK    4  A    between atoms: C_10  and  C_12
REMARK    5  A    between atoms: C_12  and  C_14
REMARK    6  A    between atoms: C_14  and  C_15
REMARK    7  A    between atoms: C_15  and  C_17
REMARK    8  A    between atoms: N_20  and  C_21
REMARK    9  A    between atoms: C_29  and  C_30
REMARK                            x       y       z     vdW  Elec       q    Type
REMARK                         _______ _______ _______ _____ _____    ______ ____
ROOT
ATOM      1  C   UNL     1       0.662  10.745  19.246  0.00  0.00    +0.000 C 
ATOM      2  O   UNL     1       0.034  11.198  18.287  0.00  0.00    +0.000 OA
ENDROOT
BRANCH   1   3
ATOM      3  C   UNL     1       1.317   9.447  19.196  0.00  0.00    +0.000 A 
ATOM      4  S   UNL     1       2.089   8.873  17.775  0.00  0.00    +0.000 S 
ATOM      5  C   UNL     1       2.465   7.392  18.561  0.00  0.00    +0.000 A 
ATOM      6  N   UNL     1       3.111   6.411  17.898  0.00  0.00    +0.000 N 
ATOM      7  N   UNL     1       2.078   7.336  19.813  0.00  0.00    +0.000 NA
ATOM      8  C   UNL     1       1.447   8.502  20.203  0.00  0.00    +0.000 A 
ATOM      9  C   UNL     1       0.956   8.565  21.607  0.00  0.00    +0.000 C 
ATOM     10  H   UNL     1       3.557   6.614  17.012  0.00  0.00    +0.000 HD
BRANCH   6  11
ATOM     11  C   UNL     1       3.075   5.037  18.221  0.00  0.00    +0.000 A 
ATOM     12  C   UNL     1       1.946   4.250  17.940  0.00  0.00    +0.000 A 
ATOM     13  C   UNL     1       1.908   2.892  18.260  0.00  0.00    +0.000 A 
ATOM     14  C   UNL     1       2.991   2.298  18.899  0.00  0.00    +0.000 A 
ATOM     15  C   UNL     1       4.110   3.065  19.223  0.00  0.00    +0.000 A 
ATOM     16  C   UNL     1       4.151   4.423  18.889  0.00  0.00    +0.000 A 
ATOM     17 CL   UNL     1       5.554   5.332  19.335  0.00  0.00    +0.000 Cl
ENDBRANCH   6  11
ENDBRANCH   1   3
BRANCH   1  18
ATOM     18  C   UNL     1       0.887  11.618  20.453  0.00  0.00    +0.000 C 
BRANCH  18  19
ATOM     19  C   UNL     1      -0.048  12.784  20.645  0.00  0.00    +0.000 C 
ATOM     20  O   UNL     1       0.256  13.967  20.666  0.00  0.00    +0.000 OA
BRANCH  19  22
ATOM     21  N   UNL     1      -2.361  12.733  19.762  0.00  0.00    +0.000 N 
ATOM     22  C   UNL     1      -1.511  12.376  20.798  0.00  0.00    +0.000 C 
ATOM     23  O   UNL     1      -1.784  11.756  21.821  0.00  0.00    +0.000 OA
ATOM     24  H   UNL     1      -1.932  13.259  19.006  0.00  0.00    +0.000 HD
BRANCH  21  30
ATOM     25  C   UNL     1      -4.221  11.643  18.547  0.00  0.00    +0.000 A 
ATOM     26  C   UNL     1      -5.584  11.264  18.509  0.00  0.00    +0.000 A 
ATOM     27  C   UNL     1      -6.470  11.629  19.516  0.00  0.00    +0.000 A 
ATOM     28  C   UNL     1      -6.011  12.385  20.580  0.00  0.00    +0.000 A 
ATOM     29  C   UNL     1      -4.663  12.744  20.648  0.00  0.00    +0.000 A 
ATOM     30  C   UNL     1      -3.739  12.379  19.654  0.00  0.00    +0.000 A 
BRANCH  25  32
ATOM     31  C   UNL     1      -3.000   9.852  17.322  0.00  0.00    +0.000 C 
ATOM     32  C   UNL     1      -3.406  11.321  17.315  0.00  0.00    +0.000 C 
ENDBRANCH  25  32
ENDBRANCH  21  30
ENDBRANCH  19  22
ENDBRANCH  18  19
ENDBRANCH   1  18
TORSDOF 7
ENDMDL
MODEL 4
REMARK VINA RESULT:      -7.5      4.492     10.559
REMARK  Name = 
REMARK  9 active torsions:
REMARK  status: ('A' for Active; 'I' for Inactive)
REMARK    1  A    between atoms: C_1  and  C_2
REMARK    2  A    between atoms: C_2  and  C_3
REMARK    3  A    between atoms: C_8  and  N_9
REMARK    4  A    between atoms: C_10  and  C_12
REMARK    5  A    between atoms: C_12  and  C_14
REMARK    6  A    between atoms: C_14  and  C_15
REMARK    7  A    between atoms: C_15  and  C_17
REMARK    8  A    between atoms: N_20  and  C_21
REMARK    9  A    between atoms: C_29  and  C_30
REMARK                            x       y       z     vdW  Elec       q    Type
REMARK                         _______ _______ _______ _____ _____    ______ ____
ROOT
ATOM      1  C   UNL     1       2.104   5.359  20.213  0.00  0.00    +0.000 C 
ATOM      2  O   UNL     1       2.922   4.922  21.025  0.00  0.00    +0.000 OA
ENDROOT
BRANCH   1   3
ATOM      3  C   UNL     1       1.843   6.783  20.071  0.00  0.00    +0.000 A 
ATOM      4  S   UNL     1       0.938   7.660  21.236  0.00  0.00    +0.000 S 
ATOM      5  C   UNL     1       1.073   9.086  20.286  0.00  0.00    +0.000 A 
ATOM      6  N   UNL     1       0.489  10.234  20.689  0.00  0.00    +0.000 N 
ATOM      7  N   UNL     1       1.779   8.936  19.190  0.00  0.00    +0.000 NA
ATOM      8  C   UNL     1       2.247   7.643  19.061  0.00  0.00    +0.000 A 
ATOM      9  C   UNL     1       3.063   7.340  17.853  0.00  0.00    +0.000 C 
ATOM     10  H   UNL     1       0.150  10.317  21.639  0.00  0.00    +0.000 HD
BRANCH   6  11
ATOM     11  C   UNL     1       0.117  11.306  19.850  0.00  0.00    +0.000 A 
ATOM     12  C   UNL     1      -0.962  11.195  18.957  0.00  0.00    +0.000 A 
ATOM     13  C   UNL     1      -1.331  12.253  18.126  0.00  0.00    +0.000 A 
ATOM     14  C   UNL     1      -0.606  13.439  18.148  0.00  0.00    +0.000 A 
ATOM     15  C   UNL     1       0.493  13.564  18.998  0.00  0.00    +0.000 A 
ATOM     16  C   UNL     1       0.852  12.506  19.840  0.00  0.00    +0.000 A 
ATOM     17 CL   UNL     1       2.237  12.707  20.858  0.00  0.00    +0.000 Cl
ENDBRANCH   6  11
ENDBRANCH   1   3
BRANCH   1  18
ATOM     18  C   UNL     1       1.463   4.410  19.235  0.00  0.00    +0.000 C 
BRANCH  18  19
ATOM     19  C   UNL     1       2.055   3.028  19.126  0.00  0.00    +0.000 C 
ATOM     20  O   UNL     1       1.577   1.993  19.564  0.00  0.00    +0.000 OA
BRANCH  19  22
ATOM     21  N   UNL     1       3.664   4.096  17.576  0.00  0.00    +0.000 N 
ATOM     22  C   UNL     1       3.374   2.987  18.357  0.00  0.00    +0.000 C 
ATOM     23  O   UNL     1       4.053   1.980  18.522  0.00  0.00    +0.000 OA
ATOM     24  H   UNL     1       2.955   4.823  17.567  0.00  0.00    +0.000 HD
BRANCH  21  30
ATOM     25  C   UNL     1       6.047   4.755  17.496  0.00  0.00    +0.000 A 
ATOM     26  C   UNL     1       7.239   4.899  16.746  0.00  0.00    +0.000 A 
ATOM     27  C   UNL     1       7.275   4.647  15.379  0.00  0.00    +0.000 A 
ATOM     28  C   UNL     1       6.117   4.250  14.734  0.00  0.00    +0.000 A 
ATOM     29  C   UNL     1       4.938   4.077  15.463  0.00  0.00    +0.000 A 
ATOM     30  C   UNL     1       4.872   4.309  16.848  0.00  0.00    +0.000 A 
BRANCH  25  32
ATOM     31  C   UNL     1       7.510   5.705  19.273  0.00  0.00    +0.000 C 
ATOM     32  C   UNL     1       6.107   5.215  18.935  0.00  0.00    +0.000 C 
ENDBRANCH  25  32
ENDBRANCH  21  30
ENDBRANCH  19  22
ENDBRANCH  18  19
ENDBRANCH   1  18
TORSDOF 7
ENDMDL
MODEL 5
REMARK VINA RESULT:      -7.5      4.230     10.243
REMARK  Name = 
REMARK  9 active torsions:
REMARK  status: ('A' for Active; 'I' for Inactive)
REMARK    1  A    between atoms: C_1  and  C_2
REMARK    2  A    between atoms: C_2  and  C_3
REMARK    3  A    between atoms: C_8  and  N_9
REMARK    4  A    between atoms: C_10  and  C_12
REMARK    5  A    between atoms: C_12  and  C_14
REMARK    6  A    between atoms: C_14  and  C_15
REMARK    7  A    between atoms: C_15  and  C_17
REMARK    8  A    between atoms: N_20  and  C_21
REMARK    9  A    between atoms: C_29  and  C_30
REMARK                            x       y       z     vdW  Elec       q    Type
REMARK                         _______ _______ _______ _____ _____    ______ ____
ROOT
ATOM      1  C   UNL     1       0.292   8.518  21.141  0.00  0.00    +0.000 C 
ATOM      2  O   UNL     1      -0.669   7.944  21.656  0.00  0.00    +0.000 OA
ENDROOT
BRANCH   1   3
ATOM      3  C   UNL     1       0.199   9.878  20.634  0.00  0.00    +0.000 A 
ATOM      4  S   UNL     1       0.636  10.278  19.024  0.00  0.00    +0.000 S 
ATOM      5  C   UNL     1       0.301  11.935  19.330  0.00  0.00    +0.000 A 
ATOM      6  N   UNL     1       0.493  12.862  18.368  0.00  0.00    +0.000 N 
ATOM      7  N   UNL     1      -0.145  12.178  20.540  0.00  0.00    +0.000 NA
ATOM      8  C   UNL     1      -0.236  11.021  21.290  0.00  0.00    +0.000 A 
ATOM      9  C   UNL     1      -0.729  11.161  22.687  0.00  0.00    +0.000 C 
ATOM     10  H   UNL     1       0.633  12.566  17.409  0.00  0.00    +0.000 HD
BRANCH   6  11
ATOM     11  C   UNL     1       0.714  14.239  18.583  0.00  0.00    +0.000 A 
ATOM     12  C   UNL     1      -0.357  15.138  18.717  0.00  0.00    +0.000 A 
ATOM     13  C   UNL     1      -0.141  16.501  18.929  0.00  0.00    +0.000 A 
ATOM     14  C   UNL     1       1.157  16.999  18.978  0.00  0.00    +0.000 A 
ATOM     15  C   UNL     1       2.238  16.134  18.811  0.00  0.00    +0.000 A 
ATOM     16  C   UNL     1       2.018  14.766  18.613  0.00  0.00    +0.000 A 
ATOM     17 CL   UNL     1       3.395  13.742  18.389  0.00  0.00    +0.000 Cl
ENDBRANCH   6  11
ENDBRANCH   1   3
BRANCH   1  18
ATOM     18  C   UNL     1       1.644   7.854  21.170  0.00  0.00    +0.000 C 
BRANCH  18  19
ATOM     19  C   UNL     1       1.758   6.494  20.529  0.00  0.00    +0.000 C 
ATOM     20  O   UNL     1       1.090   5.506  20.791  0.00  0.00    +0.000 OA
BRANCH  19  22
ATOM     21  N   UNL     1       3.712   5.365  19.511  0.00  0.00    +0.000 N 
ATOM     22  C   UNL     1       2.818   6.422  19.432  0.00  0.00    +0.000 C 
ATOM     23  O   UNL     1       2.761   7.302  18.580  0.00  0.00    +0.000 OA
ATOM     24  H   UNL     1       3.594   4.750  20.310  0.00  0.00    +0.000 HD
BRANCH  21  30
ATOM     25  C   UNL     1       4.429   4.277  17.408  0.00  0.00    +0.000 A 
ATOM     26  C   UNL     1       5.447   4.040  16.452  0.00  0.00    +0.000 A 
ATOM     27  C   UNL     1       6.739   4.522  16.630  0.00  0.00    +0.000 A 
ATOM     28  C   UNL     1       7.039   5.247  17.769  0.00  0.00    +0.000 A 
ATOM     29  C   UNL     1       6.040   5.514  18.709  0.00  0.00    +0.000 A 
ATOM     30  C   UNL     1       4.722   5.054  18.552  0.00  0.00    +0.000 A 
BRANCH  25  32
ATOM     31  C   UNL     1       3.152   2.176  17.801  0.00  0.00    +0.000 C 
ATOM     32  C   UNL     1       3.117   3.563  17.172  0.00  0.00    +0.000 C 
ENDBRANCH  25  32
ENDBRANCH  21  30
ENDBRANCH  19  22
ENDBRANCH  18  19
ENDBRANCH   1  18
TORSDOF 7
ENDMDL
MODEL 6
REMARK VINA RESULT:      -7.5      3.068     10.240
REMARK  Name = 
REMARK  9 active torsions:
REMARK  status: ('A' for Active; 'I' for Inactive)
REMARK    1  A    between atoms: C_1  and  C_2
REMARK    2  A    between atoms: C_2  and  C_3
REMARK    3  A    between atoms: C_8  and  N_9
REMARK    4  A    between atoms: C_10  and  C_12
REMARK    5  A    between atoms: C_12  and  C_14
REMARK    6  A    between atoms: C_14  and  C_15
REMARK    7  A    between atoms: C_15  and  C_17
REMARK    8  A    between atoms: N_20  and  C_21
REMARK    9  A    between atoms: C_29  and  C_30
REMARK                            x       y       z     vdW  Elec       q    Type
REMARK                         _______ _______ _______ _____ _____    ______ ____
ROOT
ATOM      1  C   UNL     1       1.018  10.835  18.960  0.00  0.00    +0.000 C 
ATOM      2  O   UNL     1       1.919  11.543  18.506  0.00  0.00    +0.000 OA
ENDROOT
BRANCH   1   3
ATOM      3  C   UNL     1      -0.366  11.281  19.006  0.00  0.00    +0.000 A 
ATOM      4  S   UNL     1      -0.874  12.554  20.038  0.00  0.00    +0.000 S 
ATOM      5  C   UNL     1      -2.498  12.345  19.517  0.00  0.00    +0.000 A 
ATOM      6  N   UNL     1      -3.486  13.107  20.033  0.00  0.00    +0.000 N 
ATOM      7  N   UNL     1      -2.654  11.415  18.605  0.00  0.00    +0.000 NA
ATOM      8  C   UNL     1      -1.452  10.815  18.281  0.00  0.00    +0.000 A 
ATOM      9  C   UNL     1      -1.493   9.737  17.255  0.00  0.00    +0.000 C 
ATOM     10  H   UNL     1      -3.253  13.935  20.567  0.00  0.00    +0.000 HD
BRANCH   6  11
ATOM     11  C   UNL     1      -4.854  12.765  20.072  0.00  0.00    +0.000 A 
ATOM     12  C   UNL     1      -5.612  12.649  18.894  0.00  0.00    +0.000 A 
ATOM     13  C   UNL     1      -6.966  12.313  18.930  0.00  0.00    +0.000 A 
ATOM     14  C   UNL     1      -7.601  12.115  20.151  0.00  0.00    +0.000 A 
ATOM     15  C   UNL     1      -6.881  12.260  21.337  0.00  0.00    +0.000 A 
ATOM     16  C   UNL     1      -5.521  12.584  21.298  0.00  0.00    +0.000 A 
ATOM     17 CL   UNL     1      -4.682  12.774  22.800  0.00  0.00    +0.000 Cl
ENDBRANCH   6  11
ENDBRANCH   1   3
BRANCH   1  18
ATOM     18  C   UNL     1       1.327   9.410  19.341  0.00  0.00    +0.000 C 
BRANCH  18  19
ATOM     19  C   UNL     1       2.019   8.555  18.312  0.00  0.00    +0.000 C 
ATOM     20  O   UNL     1       2.430   8.917  17.219  0.00  0.00    +0.000 OA
BRANCH  19  22
ATOM     21  N   UNL     1       2.146   6.146  17.754  0.00  0.00    +0.000 N 
ATOM     22  C   UNL     1       2.216   7.106  18.752  0.00  0.00    +0.000 C 
ATOM     23  O   UNL     1       2.434   6.940  19.947  0.00  0.00    +0.000 OA
ATOM     24  H   UNL     1       1.941   6.496  16.823  0.00  0.00    +0.000 HD
BRANCH  21  30
ATOM     25  C   UNL     1       3.604   4.162  17.511  0.00  0.00    +0.000 A 
ATOM     26  C   UNL     1       3.824   2.784  17.749  0.00  0.00    +0.000 A 
ATOM     27  C   UNL     1       2.855   1.985  18.346  0.00  0.00    +0.000 A 
ATOM     28  C   UNL     1       1.646   2.548  18.712  0.00  0.00    +0.000 A 
ATOM     29  C   UNL     1       1.422   3.912  18.510  0.00  0.00    +0.000 A 
ATOM     30  C   UNL     1       2.386   4.750  17.923  0.00  0.00    +0.000 A 
BRANCH  25  32
ATOM     31  C   UNL     1       6.036   4.674  17.357  0.00  0.00    +0.000 C 
ATOM     32  C   UNL     1       4.671   4.877  16.712  0.00  0.00    +0.000 C 
ENDBRANCH  25  32
ENDBRANCH  21  30
ENDBRANCH  19  22
ENDBRANCH  18  19
ENDBRANCH   1  18
TORSDOF 7
ENDMDL
MODEL 7
REMARK VINA RESULT:      -7.4      1.464      2.213
REMARK  Name = 
REMARK  9 active torsions:
REMARK  status: ('A' for Active; 'I' for Inactive)
REMARK    1  A    between atoms: C_1  and  C_2
REMARK    2  A    between atoms: C_2  and  C_3
REMARK    3  A    between atoms: C_8  and  N_9
REMARK    4  A    between atoms: C_10  and  C_12
REMARK    5  A    between atoms: C_12  and  C_14
REMARK    6  A    between atoms: C_14  and  C_15
REMARK    7  A    between atoms: C_15  and  C_17
REMARK    8  A    between atoms: N_20  and  C_21
REMARK    9  A    between atoms: C_29  and  C_30
REMARK                            x       y       z     vdW  Elec       q    Type
REMARK                         _______ _______ _______ _____ _____    ______ ____
ROOT
ATOM      1  C   UNL     1       0.813  10.493  19.517  0.00  0.00    +0.000 C 
ATOM      2  O   UNL     1       0.793  11.315  18.599  0.00  0.00    +0.000 OA
ENDROOT
BRANCH   1   3
ATOM      3  C   UNL     1       1.447   9.192  19.375  0.00  0.00    +0.000 A 
ATOM      4  S   UNL     1       2.154   8.683  17.897  0.00  0.00    +0.000 S 
ATOM      5  C   UNL     1       2.539   7.159  18.590  0.00  0.00    +0.000 A 
ATOM      6  N   UNL     1       3.145   6.205  17.852  0.00  0.00    +0.000 N 
ATOM      7  N   UNL     1       2.201   7.042  19.852  0.00  0.00    +0.000 NA
ATOM      8  C   UNL     1       1.602   8.194  20.326  0.00  0.00    +0.000 A 
ATOM      9  C   UNL     1       1.168   8.190  21.750  0.00  0.00    +0.000 C 
ATOM     10  H   UNL     1       3.560   6.449  16.961  0.00  0.00    +0.000 HD
BRANCH   6  11
ATOM     11  C   UNL     1       3.103   4.817  18.106  0.00  0.00    +0.000 A 
ATOM     12  C   UNL     1       1.994   4.040  17.731  0.00  0.00    +0.000 A 
ATOM     13  C   UNL     1       1.949   2.668  17.982  0.00  0.00    +0.000 A 
ATOM     14  C   UNL     1       3.003   2.048  18.644  0.00  0.00    +0.000 A 
ATOM     15  C   UNL     1       4.100   2.802  19.060  0.00  0.00    +0.000 A 
ATOM     16  C   UNL     1       4.148   4.175  18.795  0.00  0.00    +0.000 A 
ATOM     17 CL   UNL     1       5.522   5.067  19.353  0.00  0.00    +0.000 Cl
ENDBRANCH   6  11
ENDBRANCH   1   3
BRANCH   1  18
ATOM     18  C   UNL     1       0.300  10.898  20.874  0.00  0.00    +0.000 C 
BRANCH  18  19
ATOM     19  C   UNL     1      -0.117  12.335  21.053  0.00  0.00    +0.000 C 
ATOM     20  O   UNL     1       0.389  13.153  21.807  0.00  0.00    +0.000 OA
BRANCH  19  22
ATOM     21  N   UNL     1      -2.202  11.763  19.846  0.00  0.00    +0.000 N 
ATOM     22  C   UNL     1      -1.280  12.752  20.155  0.00  0.00    +0.000 C 
ATOM     23  O   UNL     1      -1.288  13.928  19.809  0.00  0.00    +0.000 OA
ATOM     24  H   UNL     1      -2.001  10.843  20.226  0.00  0.00    +0.000 HD
BRANCH  21  30
ATOM     25  C   UNL     1      -3.534  11.451  17.785  0.00  0.00    +0.000 A 
ATOM     26  C   UNL     1      -4.765  11.607  17.103  0.00  0.00    +0.000 A 
ATOM     27  C   UNL     1      -5.840  12.270  17.684  0.00  0.00    +0.000 A 
ATOM     28  C   UNL     1      -5.703  12.795  18.957  0.00  0.00    +0.000 A 
ATOM     29  C   UNL     1      -4.505  12.626  19.655  0.00  0.00    +0.000 A 
ATOM     30  C   UNL     1      -3.405  11.948  19.102  0.00  0.00    +0.000 A 
BRANCH  25  32
ATOM     31  C   UNL     1      -2.801  10.732  15.516  0.00  0.00    +0.000 C 
ATOM     32  C   UNL     1      -2.400  10.855  16.981  0.00  0.00    +0.000 C 
ENDBRANCH  25  32
ENDBRANCH  21  30
ENDBRANCH  19  22
ENDBRANCH  18  19
ENDBRANCH   1  18
TORSDOF 7
ENDMDL
MODEL 8
REMARK VINA RESULT:      -7.4      2.061      2.516
REMARK  Name = 
REMARK  9 active torsions:
REMARK  status: ('A' for Active; 'I' for Inactive)
REMARK    1  A    between atoms: C_1  and  C_2
REMARK    2  A    between atoms: C_2  and  C_3
REMARK    3  A    between atoms: C_8  and  N_9
REMARK    4  A    between atoms: C_10  and  C_12
REMARK    5  A    between atoms: C_12  and  C_14
REMARK    6  A    between atoms: C_14  and  C_15
REMARK    7  A    between atoms: C_15  and  C_17
REMARK    8  A    between atoms: N_20  and  C_21
REMARK    9  A    between atoms: C_29  and  C_30
REMARK                            x       y       z     vdW  Elec       q    Type
REMARK                         _______ _______ _______ _____ _____    ______ ____
ROOT
ATOM      1  C   UNL     1       0.867  10.608  19.174  0.00  0.00    +0.000 C 
ATOM      2  O   UNL     1       1.370  11.550  19.790  0.00  0.00    +0.000 OA
ENDROOT
BRANCH   1   3
ATOM      3  C   UNL     1       1.490   9.294  19.127  0.00  0.00    +0.000 A 
ATOM      4  S   UNL     1       2.286   8.717  17.721  0.00  0.00    +0.000 S 
ATOM      5  C   UNL     1       2.603   7.218  18.500  0.00  0.00    +0.000 A 
ATOM      6  N   UNL     1       3.243   6.228  17.843  0.00  0.00    +0.000 N 
ATOM      7  N   UNL     1       2.181   7.158  19.740  0.00  0.00    +0.000 NA
ATOM      8  C   UNL     1       1.568   8.335  20.126  0.00  0.00    +0.000 A 
ATOM      9  C   UNL     1       1.041   8.396  21.517  0.00  0.00    +0.000 C 
ATOM     10  H   UNL     1       3.718   6.430  16.972  0.00  0.00    +0.000 HD
BRANCH   6  11
ATOM     11  C   UNL     1       3.163   4.853  18.149  0.00  0.00    +0.000 A 
ATOM     12  C   UNL     1       2.039   4.088  17.793  0.00  0.00    +0.000 A 
ATOM     13  C   UNL     1       1.958   2.728  18.096  0.00  0.00    +0.000 A 
ATOM     14  C   UNL     1       2.991   2.109  18.792  0.00  0.00    +0.000 A 
ATOM     15  C   UNL     1       4.102   2.852  19.190  0.00  0.00    +0.000 A 
ATOM     16  C   UNL     1       4.186   4.212  18.872  0.00  0.00    +0.000 A 
ATOM     17 CL   UNL     1       5.577   5.091  19.410  0.00  0.00    +0.000 Cl
ENDBRANCH   6  11
ENDBRANCH   1   3
BRANCH   1  18
ATOM     18  C   UNL     1      -0.505  10.774  18.575  0.00  0.00    +0.000 C 
BRANCH  18  19
ATOM     19  C   UNL     1      -1.108  12.155  18.605  0.00  0.00    +0.000 C 
ATOM     20  O   UNL     1      -0.807  13.098  17.890  0.00  0.00    +0.000 OA
BRANCH  19  22
ATOM     21  N   UNL     1      -1.830  12.762  20.895  0.00  0.00    +0.000 N 
ATOM     22  C   UNL     1      -2.219  12.314  19.641  0.00  0.00    +0.000 C 
ATOM     23  O   UNL     1      -3.350  12.045  19.252  0.00  0.00    +0.000 OA
ATOM     24  H   UNL     1      -0.833  12.916  21.015  0.00  0.00    +0.000 HD
BRANCH  21  30
ATOM     25  C   UNL     1      -3.424  14.281  22.021  0.00  0.00    +0.000 A 
ATOM     26  C   UNL     1      -4.325  14.517  23.088  0.00  0.00    +0.000 A 
ATOM     27  C   UNL     1      -4.493  13.597  24.116  0.00  0.00    +0.000 A 
ATOM     28  C   UNL     1      -3.759  12.424  24.101  0.00  0.00    +0.000 A 
ATOM     29  C   UNL     1      -2.886  12.163  23.042  0.00  0.00    +0.000 A 
ATOM     30  C   UNL     1      -2.705  13.065  21.980  0.00  0.00    +0.000 A 
BRANCH  25  32
ATOM     31  C   UNL     1      -4.562  16.025  20.657  0.00  0.00    +0.000 C 
ATOM     32  C   UNL     1      -3.219  15.429  21.058  0.00  0.00    +0.000 C 
ENDBRANCH  25  32
ENDBRANCH  21  30
ENDBRANCH  19  22
ENDBRANCH  18  19
ENDBRANCH   1  18
TORSDOF 7
ENDMDL
MODEL 9
REMARK VINA RESULT:      -7.4      4.660     10.724
REMARK  Name = 
REMARK  9 active torsions:
REMARK  status: ('A' for Active; 'I' for Inactive)
REMARK    1  A    between atoms: C_1  and  C_2
REMARK    2  A    between atoms: C_2  and  C_3
REMARK    3  A    between atoms: C_8  and  N_9
REMARK    4  A    between atoms: C_10  and  C_12
REMARK    5  A    between atoms: C_12  and  C_14
REMARK    6  A    between atoms: C_14  and  C_15
REMARK    7  A    between atoms: C_15  and  C_17
REMARK    8  A    between atoms: N_20  and  C_21
REMARK    9  A    between atoms: C_29  and  C_30
REMARK                            x       y       z     vdW  Elec       q    Type
REMARK                         _______ _______ _______ _____ _____    ______ ____
ROOT
ATOM      1  C   UNL     1       2.007   5.226  19.649  0.00  0.00    +0.000 C 
ATOM      2  O   UNL     1       1.507   4.540  18.756  0.00  0.00    +0.000 OA
ENDROOT
BRANCH   1   3
ATOM      3  C   UNL     1       1.887   6.675  19.671  0.00  0.00    +0.000 A 
ATOM      4  S   UNL     1       1.027   7.496  20.909  0.00  0.00    +0.000 S 
ATOM      5  C   UNL     1       1.330   9.002  20.139  0.00  0.00    +0.000 A 
ATOM      6  N   UNL     1       0.843  10.147  20.660  0.00  0.00    +0.000 N 
ATOM      7  N   UNL     1       2.057   8.912  19.051  0.00  0.00    +0.000 NA
ATOM      8  C   UNL     1       2.406   7.602  18.780  0.00  0.00    +0.000 A 
ATOM      9  C   UNL     1       3.233   7.363  17.566  0.00  0.00    +0.000 C 
ATOM     10  H   UNL     1       0.478  10.152  21.605  0.00  0.00    +0.000 HD
BRANCH   6  11
ATOM     11  C   UNL     1       0.603  11.340  19.946  0.00  0.00    +0.000 A 
ATOM     12  C   UNL     1       1.404  12.479  20.136  0.00  0.00    +0.000 A 
ATOM     13  C   UNL     1       1.168  13.660  19.432  0.00  0.00    +0.000 A 
ATOM     14  C   UNL     1       0.102  13.738  18.542  0.00  0.00    +0.000 A 
ATOM     15  C   UNL     1      -0.731  12.634  18.361  0.00  0.00    +0.000 A 
ATOM     16  C   UNL     1      -0.484  11.446  19.058  0.00  0.00    +0.000 A 
ATOM     17 CL   UNL     1      -1.562  10.115  18.813  0.00  0.00    +0.000 Cl
ENDBRANCH   6  11
ENDBRANCH   1   3
BRANCH   1  18
ATOM     18  C   UNL     1       2.636   4.540  20.834  0.00  0.00    +0.000 C 
BRANCH  18  19
ATOM     19  C   UNL     1       3.400   3.268  20.570  0.00  0.00    +0.000 C 
ATOM     20  O   UNL     1       3.557   2.336  21.344  0.00  0.00    +0.000 OA
BRANCH  19  22
ATOM     21  N   UNL     1       4.708   4.303  18.738  0.00  0.00    +0.000 N 
ATOM     22  C   UNL     1       3.994   3.193  19.164  0.00  0.00    +0.000 C 
ATOM     23  O   UNL     1       3.791   2.146  18.559  0.00  0.00    +0.000 OA
ATOM     24  H   UNL     1       4.745   5.077  19.394  0.00  0.00    +0.000 HD
BRANCH  21  30
ATOM     25  C   UNL     1       6.772   4.818  17.477  0.00  0.00    +0.000 A 
ATOM     26  C   UNL     1       7.455   4.861  16.237  0.00  0.00    +0.000 A 
ATOM     27  C   UNL     1       6.816   4.550  15.042  0.00  0.00    +0.000 A 
ATOM     28  C   UNL     1       5.479   4.196  15.063  0.00  0.00    +0.000 A 
ATOM     29  C   UNL     1       4.796   4.122  16.280  0.00  0.00    +0.000 A 
ATOM     30  C   UNL     1       5.418   4.415  17.506  0.00  0.00    +0.000 A 
BRANCH  25  32
ATOM     31  C   UNL     1       7.919   6.793  18.469  0.00  0.00    +0.000 C 
ATOM     32  C   UNL     1       7.537   5.333  18.675  0.00  0.00    +0.000 C 
ENDBRANCH  25  32
ENDBRANCH  21  30
ENDBRANCH  19  22
ENDBRANCH  18  19
ENDBRANCH   1  18
TORSDOF 7
ENDMDL
