MODEL 1
REMARK VINA RESULT:      -6.2      0.000      0.000
REMARK  Name = 
REMARK  9 active torsions:
REMARK  status: ('A' for Active; 'I' for Inactive)
REMARK    1  A    between atoms: C_1  and  C_2
REMARK    2  A    between atoms: C_2  and  O_3
REMARK    3  A    between atoms: O_3  and  C_4
REMARK    4  A    between atoms: N_6  and  C_7
REMARK    5  A    between atoms: N_6  and  C_8
REMARK    6  A    between atoms: C_8  and  C_9
REMARK    7  A    between atoms: C_8  and  C_10
REMARK    8  A    between atoms: C_11  and  C_12
REMARK    9  A    between atoms: C_12  and  N_13
REMARK                            x       y       z     vdW  Elec       q    Type
REMARK                         _______ _______ _______ _____ _____    ______ ____
ROOT
ATOM      1  C   UNL     1       5.434   4.080  15.957  0.00  0.00    +0.000 C 
ATOM      2  C   UNL     1       5.203   3.641  14.509  0.00  0.00    +0.000 C 
ENDROOT
BRANCH   1   5
ATOM      3  C   UNL     1       7.266   5.579  16.555  0.00  0.00    +0.000 C 
ATOM      4  O   UNL     1       8.005   4.641  16.834  0.00  0.00    +0.000 OA
ATOM      5  N   UNL     1       5.975   5.438  16.074  0.00  0.00    +0.000 N 
ATOM      6  C   UNL     1       5.079   6.576  15.908  0.00  0.00    +0.000 C 
BRANCH   3   7
ATOM      7  O   UNL     1       7.613   6.883  16.732  0.00  0.00    +0.000 OA
BRANCH   7   9
ATOM      8  C   UNL     1       8.224   8.754  18.077  0.00  0.00    +0.000 C 
ATOM      9  C   UNL     1       7.880   7.274  18.084  0.00  0.00    +0.000 C 
ENDBRANCH   7   9
ENDBRANCH   3   7
ENDBRANCH   1   5
BRANCH   1  10
ATOM     10  C   UNL     1       4.171   3.942  16.722  0.00  0.00    +0.000 C 
ATOM     11  C   UNL     1       3.138   3.820  17.322  0.00  0.00    +0.000 C 
BRANCH  11  12
ATOM     12  C   UNL     1       1.865   3.717  18.053  0.00  0.00    +0.000 C 
BRANCH  12  13
ATOM     13  N   UNL     1       1.968   4.350  19.373  0.00  0.00    +0.000 NA
ATOM     14  C   UNL     1       3.187   3.962  20.097  0.00  0.00    +0.000 C 
ATOM     15  C   UNL     1       2.811   2.733  20.899  0.00  0.00    +0.000 C 
ATOM     16  C   UNL     1       1.366   2.982  21.276  0.00  0.00    +0.000 C 
ATOM     17  C   UNL     1       0.842   3.971  20.241  0.00  0.00    +0.000 C 
ENDBRANCH  12  13
ENDBRANCH  11  12
ENDBRANCH   1  10
TORSDOF 6
ENDMDL
MODEL 2
REMARK VINA RESULT:      -6.2      0.829      1.249
REMARK  Name = 
REMARK  9 active torsions:
REMARK  status: ('A' for Active; 'I' for Inactive)
REMARK    1  A    between atoms: C_1  and  C_2
REMARK    2  A    between atoms: C_2  and  O_3
REMARK    3  A    between atoms: O_3  and  C_4
REMARK    4  A    between atoms: N_6  and  C_7
REMARK    5  A    between atoms: N_6  and  C_8
REMARK    6  A    between atoms: C_8  and  C_9
REMARK    7  A    between atoms: C_8  and  C_10
REMARK    8  A    between atoms: C_11  and  C_12
REMARK    9  A    between atoms: C_12  and  N_13
REMARK                            x       y       z     vdW  Elec       q    Type
REMARK                         _______ _______ _______ _____ _____    ______ ____
ROOT
ATOM      1  C   UNL     1       5.809   4.309  15.728  0.00  0.00    +0.000 C 
ATOM      2  C   UNL     1       5.562   3.987  14.252  0.00  0.00    +0.000 C 
ENDROOT
BRANCH   1   5
ATOM      3  C   UNL     1       7.079   6.067  16.851  0.00  0.00    +0.000 C 
ATOM      4  O   UNL     1       7.828   5.254  17.380  0.00  0.00    +0.000 OA
ATOM      5  N   UNL     1       6.055   5.733  15.978  0.00  0.00    +0.000 N 
ATOM      6  C   UNL     1       5.091   6.716  15.500  0.00  0.00    +0.000 C 
BRANCH   3   7
ATOM      7  O   UNL     1       7.133   7.404  17.097  0.00  0.00    +0.000 OA
BRANCH   7   9
ATOM      8  C   UNL     1       8.291   9.291  17.980  0.00  0.00    +0.000 C 
ATOM      9  C   UNL     1       8.023   7.804  18.144  0.00  0.00    +0.000 C 
ENDBRANCH   7   9
ENDBRANCH   3   7
ENDBRANCH   1   5
BRANCH   1  10
ATOM     10  C   UNL     1       4.671   3.814  16.538  0.00  0.00    +0.000 C 
ATOM     11  C   UNL     1       3.734   3.416  17.176  0.00  0.00    +0.000 C 
BRANCH  11  12
ATOM     12  C   UNL     1       2.586   2.969  17.982  0.00  0.00    +0.000 C 
BRANCH  12  13
ATOM     13  N   UNL     1       2.891   3.050  19.415  0.00  0.00    +0.000 NA
ATOM     14  C   UNL     1       1.787   2.571  20.259  0.00  0.00    +0.000 C 
ATOM     15  C   UNL     1       0.931   3.789  20.541  0.00  0.00    +0.000 C 
ATOM     16  C   UNL     1       1.935   4.920  20.618  0.00  0.00    +0.000 C 
ATOM     17  C   UNL     1       3.149   4.436  19.833  0.00  0.00    +0.000 C 
ENDBRANCH  12  13
ENDBRANCH  11  12
ENDBRANCH   1  10
TORSDOF 6
ENDMDL
MODEL 3
REMARK VINA RESULT:      -6.1      1.102      1.339
REMARK  Name = 
REMARK  9 active torsions:
REMARK  status: ('A' for Active; 'I' for Inactive)
REMARK    1  A    between atoms: C_1  and  C_2
REMARK    2  A    between atoms: C_2  and  O_3
REMARK    3  A    between atoms: O_3  and  C_4
REMARK    4  A    between atoms: N_6  and  C_7
REMARK    5  A    between atoms: N_6  and  C_8
REMARK    6  A    between atoms: C_8  and  C_9
REMARK    7  A    between atoms: C_8  and  C_10
REMARK    8  A    between atoms: C_11  and  C_12
REMARK    9  A    between atoms: C_12  and  N_13
REMARK                            x       y       z     vdW  Elec       q    Type
REMARK                         _______ _______ _______ _____ _____    ______ ____
ROOT
ATOM      1  C   UNL     1       5.879   4.265  15.864  0.00  0.00    +0.000 C 
ATOM      2  C   UNL     1       5.673   4.152  14.352  0.00  0.00    +0.000 C 
ENDROOT
BRANCH   1   5
ATOM      3  C   UNL     1       7.009   5.920  17.261  0.00  0.00    +0.000 C 
ATOM      4  O   UNL     1       7.811   5.091  17.675  0.00  0.00    +0.000 OA
ATOM      5  N   UNL     1       6.018   5.649  16.330  0.00  0.00    +0.000 N 
ATOM      6  C   UNL     1       4.988   6.622  15.988  0.00  0.00    +0.000 C 
BRANCH   3   7
ATOM      7  O   UNL     1       6.963   7.205  17.706  0.00  0.00    +0.000 OA
BRANCH   7   9
ATOM      8  C   UNL     1       8.182   9.239  17.947  0.00  0.00    +0.000 C 
ATOM      9  C   UNL     1       8.204   7.738  18.182  0.00  0.00    +0.000 C 
ENDBRANCH   7   9
ENDBRANCH   3   7
ENDBRANCH   1   5
BRANCH   1  10
ATOM     10  C   UNL     1       4.769   3.576  16.566  0.00  0.00    +0.000 C 
ATOM     11  C   UNL     1       3.881   3.023  17.155  0.00  0.00    +0.000 C 
BRANCH  11  12
ATOM     12  C   UNL     1       2.810   2.303  17.864  0.00  0.00    +0.000 C 
BRANCH  12  13
ATOM     13  N   UNL     1       1.596   3.123  17.947  0.00  0.00    +0.000 NA
ATOM     14  C   UNL     1       1.886   4.555  18.113  0.00  0.00    +0.000 C 
ATOM     15  C   UNL     1       1.947   4.788  19.609  0.00  0.00    +0.000 C 
ATOM     16  C   UNL     1       0.916   3.825  20.161  0.00  0.00    +0.000 C 
ATOM     17  C   UNL     1       0.766   2.741  19.099  0.00  0.00    +0.000 C 
ENDBRANCH  12  13
ENDBRANCH  11  12
ENDBRANCH   1  10
TORSDOF 6
ENDMDL
MODEL 4
REMARK VINA RESULT:      -5.9      1.904      3.612
REMARK  Name = 
REMARK  9 active torsions:
REMARK  status: ('A' for Active; 'I' for Inactive)
REMARK    1  A    between atoms: C_1  and  C_2
REMARK    2  A    between atoms: C_2  and  O_3
REMARK    3  A    between atoms: O_3  and  C_4
REMARK    4  A    between atoms: N_6  and  C_7
REMARK    5  A    between atoms: N_6  and  C_8
REMARK    6  A    between atoms: C_8  and  C_9
REMARK    7  A    between atoms: C_8  and  C_10
REMARK    8  A    between atoms: C_11  and  C_12
REMARK    9  A    between atoms: C_12  and  N_13
REMARK                            x       y       z     vdW  Elec       q    Type
REMARK                         _______ _______ _______ _____ _____    ______ ____
ROOT
ATOM      1  C   UNL     1       6.107   6.051  16.557  0.00  0.00    +0.000 C 
ATOM      2  C   UNL     1       7.380   6.166  17.398  0.00  0.00    +0.000 C 
ENDROOT
BRANCH   1   5
ATOM      3  C   UNL     1       6.803   4.723  14.629  0.00  0.00    +0.000 C 
ATOM      4  O   UNL     1       7.581   5.592  14.252  0.00  0.00    +0.000 OA
ATOM      5  N   UNL     1       6.035   4.810  15.779  0.00  0.00    +0.000 N 
ATOM      6  C   UNL     1       5.007   3.828  16.103  0.00  0.00    +0.000 C 
BRANCH   3   7
ATOM      7  O   UNL     1       6.562   3.580  13.931  0.00  0.00    +0.000 OA
BRANCH   7   9
ATOM      8  C   UNL     1       5.200   3.211  12.010  0.00  0.00    +0.000 C 
ATOM      9  C   UNL     1       6.544   3.718  12.506  0.00  0.00    +0.000 C 
ENDBRANCH   7   9
ENDBRANCH   3   7
ENDBRANCH   1   5
BRANCH   1  10
ATOM     10  C   UNL     1       4.921   6.201  17.434  0.00  0.00    +0.000 C 
ATOM     11  C   UNL     1       3.973   6.335  18.159  0.00  0.00    +0.000 C 
BRANCH  11  12
ATOM     12  C   UNL     1       2.817   6.455  19.062  0.00  0.00    +0.000 C 
BRANCH  12  13
ATOM     13  N   UNL     1       2.853   5.416  20.098  0.00  0.00    +0.000 NA
ATOM     14  C   UNL     1       3.184   4.088  19.561  0.00  0.00    +0.000 C 
ATOM     15  C   UNL     1       1.857   3.451  19.202  0.00  0.00    +0.000 C 
ATOM     16  C   UNL     1       0.910   3.983  20.258  0.00  0.00    +0.000 C 
ATOM     17  C   UNL     1       1.549   5.272  20.761  0.00  0.00    +0.000 C 
ENDBRANCH  12  13
ENDBRANCH  11  12
ENDBRANCH   1  10
TORSDOF 6
ENDMDL
MODEL 5
REMARK VINA RESULT:      -5.8      1.074      1.474
REMARK  Name = 
REMARK  9 active torsions:
REMARK  status: ('A' for Active; 'I' for Inactive)
REMARK    1  A    between atoms: C_1  and  C_2
REMARK    2  A    between atoms: C_2  and  O_3
REMARK    3  A    between atoms: O_3  and  C_4
REMARK    4  A    between atoms: N_6  and  C_7
REMARK    5  A    between atoms: N_6  and  C_8
REMARK    6  A    between atoms: C_8  and  C_9
REMARK    7  A    between atoms: C_8  and  C_10
REMARK    8  A    between atoms: C_11  and  C_12
REMARK    9  A    between atoms: C_12  and  N_13
REMARK                            x       y       z     vdW  Elec       q    Type
REMARK                         _______ _______ _______ _____ _____    ______ ____
ROOT
ATOM      1  C   UNL     1       5.799   4.370  16.106  0.00  0.00    +0.000 C 
ATOM      2  C   UNL     1       5.854   3.887  14.655  0.00  0.00    +0.000 C 
ENDROOT
BRANCH   1   5
ATOM      3  C   UNL     1       7.138   6.182  17.049  0.00  0.00    +0.000 C 
ATOM      4  O   UNL     1       7.907   5.395  17.590  0.00  0.00    +0.000 OA
ATOM      5  N   UNL     1       6.069   5.804  16.252  0.00  0.00    +0.000 N 
ATOM      6  C   UNL     1       5.089   6.765  15.761  0.00  0.00    +0.000 C 
BRANCH   3   7
ATOM      7  O   UNL     1       7.216   7.531  17.205  0.00  0.00    +0.000 OA
BRANCH   7   9
ATOM      8  C   UNL     1       8.328   9.490  17.985  0.00  0.00    +0.000 C 
ATOM      9  C   UNL     1       8.175   7.988  18.164  0.00  0.00    +0.000 C 
ENDBRANCH   7   9
ENDBRANCH   3   7
ENDBRANCH   1   5
BRANCH   1  10
ATOM     10  C   UNL     1       4.487   4.012  16.696  0.00  0.00    +0.000 C 
ATOM     11  C   UNL     1       3.426   3.700  17.165  0.00  0.00    +0.000 C 
BRANCH  11  12
ATOM     12  C   UNL     1       2.104   3.345  17.706  0.00  0.00    +0.000 C 
BRANCH  12  13
ATOM     13  N   UNL     1       2.203   2.196  18.614  0.00  0.00    +0.000 NA
ATOM     14  C   UNL     1       1.528   2.426  19.899  0.00  0.00    +0.000 C 
ATOM     15  C   UNL     1       2.580   3.026  20.810  0.00  0.00    +0.000 C 
ATOM     16  C   UNL     1       3.860   2.348  20.371  0.00  0.00    +0.000 C 
ATOM     17  C   UNL     1       3.604   1.887  18.940  0.00  0.00    +0.000 C 
ENDBRANCH  12  13
ENDBRANCH  11  12
ENDBRANCH   1  10
TORSDOF 6
ENDMDL
MODEL 6
REMARK VINA RESULT:      -5.8      0.999      1.570
REMARK  Name = 
REMARK  9 active torsions:
REMARK  status: ('A' for Active; 'I' for Inactive)
REMARK    1  A    between atoms: C_1  and  C_2
REMARK    2  A    between atoms: C_2  and  O_3
REMARK    3  A    between atoms: O_3  and  C_4
REMARK    4  A    between atoms: N_6  and  C_7
REMARK    5  A    between atoms: N_6  and  C_8
REMARK    6  A    between atoms: C_8  and  C_9
REMARK    7  A    between atoms: C_8  and  C_10
REMARK    8  A    between atoms: C_11  and  C_12
REMARK    9  A    between atoms: C_12  and  N_13
REMARK                            x       y       z     vdW  Elec       q    Type
REMARK                         _______ _______ _______ _____ _____    ______ ____
ROOT
ATOM      1  C   UNL     1       5.509   4.120  15.818  0.00  0.00    +0.000 C 
ATOM      2  C   UNL     1       5.246   4.179  14.311  0.00  0.00    +0.000 C 
ENDROOT
BRANCH   1   5
ATOM      3  C   UNL     1       7.314   5.342  16.918  0.00  0.00    +0.000 C 
ATOM      4  O   UNL     1       8.039   4.354  16.931  0.00  0.00    +0.000 OA
ATOM      5  N   UNL     1       6.044   5.372  16.363  0.00  0.00    +0.000 N 
ATOM      6  C   UNL     1       5.158   6.519  16.513  0.00  0.00    +0.000 C 
BRANCH   3   7
ATOM      7  O   UNL     1       7.653   6.527  17.497  0.00  0.00    +0.000 OA
BRANCH   7   9
ATOM      8  C   UNL     1       6.974   5.624  19.596  0.00  0.00    +0.000 C 
ATOM      9  C   UNL     1       8.024   6.456  18.878  0.00  0.00    +0.000 C 
ENDBRANCH   7   9
ENDBRANCH   3   7
ENDBRANCH   1   5
BRANCH   1  10
ATOM     10  C   UNL     1       4.265   3.722  16.520  0.00  0.00    +0.000 C 
ATOM     11  C   UNL     1       3.259   3.420  17.101  0.00  0.00    +0.000 C 
BRANCH  11  12
ATOM     12  C   UNL     1       2.050   3.019  17.839  0.00  0.00    +0.000 C 
BRANCH  12  13
ATOM     13  N   UNL     1       2.356   2.783  19.254  0.00  0.00    +0.000 NA
ATOM     14  C   UNL     1       1.156   2.780  20.104  0.00  0.00    +0.000 C 
ATOM     15  C   UNL     1       0.971   4.214  20.554  0.00  0.00    +0.000 C 
ATOM     16  C   UNL     1       2.388   4.730  20.691  0.00  0.00    +0.000 C 
ATOM     17  C   UNL     1       3.234   3.831  19.797  0.00  0.00    +0.000 C 
ENDBRANCH  12  13
ENDBRANCH  11  12
ENDBRANCH   1  10
TORSDOF 6
ENDMDL
MODEL 7
REMARK VINA RESULT:      -5.7      1.808      3.671
REMARK  Name = 
REMARK  9 active torsions:
REMARK  status: ('A' for Active; 'I' for Inactive)
REMARK    1  A    between atoms: C_1  and  C_2
REMARK    2  A    between atoms: C_2  and  O_3
REMARK    3  A    between atoms: O_3  and  C_4
REMARK    4  A    between atoms: N_6  and  C_7
REMARK    5  A    between atoms: N_6  and  C_8
REMARK    6  A    between atoms: C_8  and  C_9
REMARK    7  A    between atoms: C_8  and  C_10
REMARK    8  A    between atoms: C_11  and  C_12
REMARK    9  A    between atoms: C_12  and  N_13
REMARK                            x       y       z     vdW  Elec       q    Type
REMARK                         _______ _______ _______ _____ _____    ______ ____
ROOT
ATOM      1  C   UNL     1       6.339   6.506  17.118  0.00  0.00    +0.000 C 
ATOM      2  C   UNL     1       7.509   7.154  17.862  0.00  0.00    +0.000 C 
ENDROOT
BRANCH   1   5
ATOM      3  C   UNL     1       6.152   5.198  15.064  0.00  0.00    +0.000 C 
ATOM      4  O   UNL     1       5.374   6.004  14.566  0.00  0.00    +0.000 OA
ATOM      5  N   UNL     1       6.734   5.345  16.314  0.00  0.00    +0.000 N 
ATOM      6  C   UNL     1       7.524   4.287  16.931  0.00  0.00    +0.000 C 
BRANCH   3   7
ATOM      7  O   UNL     1       6.502   4.027  14.465  0.00  0.00    +0.000 OA
BRANCH   7   9
ATOM      8  C   UNL     1       5.754   3.289  12.325  0.00  0.00    +0.000 C 
ATOM      9  C   UNL     1       6.795   4.113  13.066  0.00  0.00    +0.000 C 
ENDBRANCH   7   9
ENDBRANCH   3   7
ENDBRANCH   1   5
BRANCH   1  10
ATOM     10  C   UNL     1       5.277   6.145  18.088  0.00  0.00    +0.000 C 
ATOM     11  C   UNL     1       4.427   5.832  18.876  0.00  0.00    +0.000 C 
BRANCH  11  12
ATOM     12  C   UNL     1       3.354   5.444  19.807  0.00  0.00    +0.000 C 
BRANCH  12  13
ATOM     13  N   UNL     1       3.194   3.986  19.839  0.00  0.00    +0.000 NA
ATOM     14  C   UNL     1       2.853   3.421  18.525  0.00  0.00    +0.000 C 
ATOM     15  C   UNL     1       1.340   3.421  18.461  0.00  0.00    +0.000 C 
ATOM     16  C   UNL     1       0.923   3.151  19.892  0.00  0.00    +0.000 C 
ATOM     17  C   UNL     1       2.109   3.584  20.747  0.00  0.00    +0.000 C 
ENDBRANCH  12  13
ENDBRANCH  11  12
ENDBRANCH   1  10
TORSDOF 6
ENDMDL
MODEL 8
REMARK VINA RESULT:      -5.5      1.773      3.510
REMARK  Name = 
REMARK  9 active torsions:
REMARK  status: ('A' for Active; 'I' for Inactive)
REMARK    1  A    between atoms: C_1  and  C_2
REMARK    2  A    between atoms: C_2  and  O_3
REMARK    3  A    between atoms: O_3  and  C_4
REMARK    4  A    between atoms: N_6  and  C_7
REMARK    5  A    between atoms: N_6  and  C_8
REMARK    6  A    between atoms: C_8  and  C_9
REMARK    7  A    between atoms: C_8  and  C_10
REMARK    8  A    between atoms: C_11  and  C_12
REMARK    9  A    between atoms: C_12  and  N_13
REMARK                            x       y       z     vdW  Elec       q    Type
REMARK                         _______ _______ _______ _____ _____    ______ ____
ROOT
ATOM      1  C   UNL     1       6.282   5.714  17.255  0.00  0.00    +0.000 C 
ATOM      2  C   UNL     1       7.528   5.699  18.143  0.00  0.00    +0.000 C 
ENDROOT
BRANCH   1   5
ATOM      3  C   UNL     1       6.862   4.692  15.114  0.00  0.00    +0.000 C 
ATOM      4  O   UNL     1       7.537   5.659  14.782  0.00  0.00    +0.000 OA
ATOM      5  N   UNL     1       6.212   4.576  16.333  0.00  0.00    +0.000 N 
ATOM      6  C   UNL     1       5.292   3.482  16.621  0.00  0.00    +0.000 C 
BRANCH   3   7
ATOM      7  O   UNL     1       6.627   3.628  14.299  0.00  0.00    +0.000 OA
BRANCH   7   9
ATOM      8  C   UNL     1       6.699   3.404  11.927  0.00  0.00    +0.000 C 
ATOM      9  C   UNL     1       5.888   3.914  13.106  0.00  0.00    +0.000 C 
ENDBRANCH   7   9
ENDBRANCH   3   7
ENDBRANCH   1   5
BRANCH   1  10
ATOM     10  C   UNL     1       5.070   5.785  18.106  0.00  0.00    +0.000 C 
ATOM     11  C   UNL     1       4.075   5.836  18.777  0.00  0.00    +0.000 C 
BRANCH  11  12
ATOM     12  C   UNL     1       2.858   5.945  19.597  0.00  0.00    +0.000 C 
BRANCH  12  13
ATOM     13  N   UNL     1       2.020   4.750  19.450  0.00  0.00    +0.000 NA
ATOM     14  C   UNL     1       1.186   4.490  20.632  0.00  0.00    +0.000 C 
ATOM     15  C   UNL     1       2.017   3.595  21.529  0.00  0.00    +0.000 C 
ATOM     16  C   UNL     1       2.800   2.742  20.552  0.00  0.00    +0.000 C 
ATOM     17  C   UNL     1       2.835   3.542  19.255  0.00  0.00    +0.000 C 
ENDBRANCH  12  13
ENDBRANCH  11  12
ENDBRANCH   1  10
TORSDOF 6
ENDMDL
MODEL 9
REMARK VINA RESULT:      -5.5      1.837      3.539
REMARK  Name = 
REMARK  9 active torsions:
REMARK  status: ('A' for Active; 'I' for Inactive)
REMARK    1  A    between atoms: C_1  and  C_2
REMARK    2  A    between atoms: C_2  and  O_3
REMARK    3  A    between atoms: O_3  and  C_4
REMARK    4  A    between atoms: N_6  and  C_7
REMARK    5  A    between atoms: N_6  and  C_8
REMARK    6  A    between atoms: C_8  and  C_9
REMARK    7  A    between atoms: C_8  and  C_10
REMARK    8  A    between atoms: C_11  and  C_12
REMARK    9  A    between atoms: C_12  and  N_13
REMARK                            x       y       z     vdW  Elec       q    Type
REMARK                         _______ _______ _______ _____ _____    ______ ____
ROOT
ATOM      1  C   UNL     1       5.492   5.763  18.020  0.00  0.00    +0.000 C 
ATOM      2  C   UNL     1       6.827   5.663  18.761  0.00  0.00    +0.000 C 
ENDROOT
BRANCH   1   5
ATOM      3  C   UNL     1       5.496   5.514  15.590  0.00  0.00    +0.000 C 
ATOM      4  O   UNL     1       5.675   6.715  15.420  0.00  0.00    +0.000 OA
ATOM      5  N   UNL     1       5.421   4.905  16.833  0.00  0.00    +0.000 N 
ATOM      6  C   UNL     1       5.048   3.504  16.989  0.00  0.00    +0.000 C 
BRANCH   3   7
ATOM      7  O   UNL     1       5.299   4.635  14.570  0.00  0.00    +0.000 OA
BRANCH   7   9
ATOM      8  C   UNL     1       6.020   3.471  12.619  0.00  0.00    +0.000 C 
ATOM      9  C   UNL     1       6.468   4.282  13.823  0.00  0.00    +0.000 C 
ENDBRANCH   7   9
ENDBRANCH   3   7
ENDBRANCH   1   5
BRANCH   1  10
ATOM     10  C   UNL     1       4.383   5.467  18.958  0.00  0.00    +0.000 C 
ATOM     11  C   UNL     1       3.483   5.251  19.724  0.00  0.00    +0.000 C 
BRANCH  11  12
ATOM     12  C   UNL     1       2.412   4.967  20.692  0.00  0.00    +0.000 C 
BRANCH  12  13
ATOM     13  N   UNL     1       1.247   4.375  20.023  0.00  0.00    +0.000 NA
ATOM     14  C   UNL     1       0.921   3.034  20.529  0.00  0.00    +0.000 C 
ATOM     15  C   UNL     1       1.702   2.069  19.660  0.00  0.00    +0.000 C 
ATOM     16  C   UNL     1       1.707   2.738  18.302  0.00  0.00    +0.000 C 
ATOM     17  C   UNL     1       1.477   4.219  18.579  0.00  0.00    +0.000 C 
ENDBRANCH  12  13
ENDBRANCH  11  12
ENDBRANCH   1  10
TORSDOF 6
ENDMDL
