MODEL 1
REMARK VINA RESULT:      -8.0      0.000      0.000
REMARK  Name = 
REMARK  4 active torsions:
REMARK  status: ('A' for Active; 'I' for Inactive)
REMARK    1  A    between atoms: C_1  and  O_2
REMARK    2  A    between atoms: O_2  and  C_3
REMARK    3  A    between atoms: C_6  and  C_7
REMARK    4  A    between atoms: C_16  and  C_18
REMARK                            x       y       z     vdW  Elec       q    Type
REMARK                         _______ _______ _______ _____ _____    ______ ____
ROOT
ATOM      1  C   UNL     1       1.197   8.800  19.097  0.00  0.00    +0.000 C 
ATOM      2  C   UNL     1       1.613   8.183  20.435  0.00  0.00    +0.000 C 
ATOM      3  C   UNL     1       2.088   6.768  20.234  0.00  0.00    +0.000 C 
ATOM      4  O   UNL     1       1.901   5.886  21.065  0.00  0.00    +0.000 OA
ATOM      5  C   UNL     1       2.875   6.492  19.026  0.00  0.00    +0.000 A 
ATOM      6  C   UNL     1       3.508   5.288  18.850  0.00  0.00    +0.000 A 
ATOM      7  N   UNL     1       4.268   5.011  17.775  0.00  0.00    +0.000 NA
ATOM      8  C   UNL     1       4.412   5.969  16.854  0.00  0.00    +0.000 A 
ATOM      9  N   UNL     1       5.203   5.755  15.738  0.00  0.00    +0.000 N 
ATOM     10  C   UNL     1       5.731   4.541  15.363  0.00  0.00    +0.000 C 
ATOM     11  O   UNL     1       5.537   3.471  15.932  0.00  0.00    +0.000 OA
ATOM     12  N   UNL     1       3.834   7.185  16.941  0.00  0.00    +0.000 NA
ATOM     13  C   UNL     1       3.043   7.425  18.022  0.00  0.00    +0.000 A 
ATOM     14  C   UNL     1       2.375   8.779  18.100  0.00  0.00    +0.000 C 
ATOM     15  H   UNL     1       5.349   6.557  15.143  0.00  0.00    +0.000 HD
ENDROOT
BRANCH   1  19
ATOM     16  C   UNL     1      -0.418  12.799  19.602  0.00  0.00    +0.000 A 
ATOM     17  C   UNL     1      -1.104  11.695  20.106  0.00  0.00    +0.000 A 
ATOM     18  C   UNL     1      -0.582  10.407  19.966  0.00  0.00    +0.000 A 
ATOM     19  C   UNL     1       0.632  10.196  19.299  0.00  0.00    +0.000 A 
ATOM     20  C   UNL     1       1.307  11.310  18.777  0.00  0.00    +0.000 A 
ATOM     21  C   UNL     1       0.786  12.602  18.928  0.00  0.00    +0.000 A 
BRANCH  16  23
ATOM     22  C   UNL     1      -0.333  15.142  19.302  0.00  0.00    +0.000 C 
ATOM     23  O   UNL     1      -1.036  14.004  19.786  0.00  0.00    +0.000 OA
ENDBRANCH  16  23
ENDBRANCH   1  19
BRANCH  10  24
ATOM     24  C   UNL     1       6.546   4.609  14.161  0.00  0.00    +0.000 A 
ATOM     25  C   UNL     1       6.439   3.916  12.968  0.00  0.00    +0.000 A 
ATOM     26  C   UNL     1       7.492   4.364  12.139  0.00  0.00    +0.000 A 
ATOM     27  C   UNL     1       8.180   5.301  12.873  0.00  0.00    +0.000 A 
ATOM     28  O   UNL     1       7.616   5.464  14.099  0.00  0.00    +0.000 OA
ENDBRANCH  10  24
TORSDOF 3
ENDMDL
MODEL 2
REMARK VINA RESULT:      -8.0      2.099      9.414
REMARK  Name = 
REMARK  4 active torsions:
REMARK  status: ('A' for Active; 'I' for Inactive)
REMARK    1  A    between atoms: C_1  and  O_2
REMARK    2  A    between atoms: O_2  and  C_3
REMARK    3  A    between atoms: C_6  and  C_7
REMARK    4  A    between atoms: C_16  and  C_18
REMARK                            x       y       z     vdW  Elec       q    Type
REMARK                         _______ _______ _______ _____ _____    ______ ____
ROOT
ATOM      1  C   UNL     1       3.862   6.100  18.184  0.00  0.00    +0.000 C 
ATOM      2  C   UNL     1       2.977   5.062  18.881  0.00  0.00    +0.000 C 
ATOM      3  C   UNL     1       2.372   5.645  20.131  0.00  0.00    +0.000 C 
ATOM      4  O   UNL     1       2.165   4.976  21.137  0.00  0.00    +0.000 OA
ATOM      5  C   UNL     1       1.948   7.050  20.076  0.00  0.00    +0.000 A 
ATOM      6  C   UNL     1       1.219   7.612  21.094  0.00  0.00    +0.000 A 
ATOM      7  N   UNL     1       0.781   8.884  21.063  0.00  0.00    +0.000 NA
ATOM      8  C   UNL     1       1.067   9.613  19.980  0.00  0.00    +0.000 A 
ATOM      9  N   UNL     1       0.621  10.920  19.877  0.00  0.00    +0.000 N 
ATOM     10  C   UNL     1       0.049  11.643  20.897  0.00  0.00    +0.000 C 
ATOM     11  O   UNL     1      -0.102  11.255  22.051  0.00  0.00    +0.000 OA
ATOM     12  N   UNL     1       1.772   9.147  18.928  0.00  0.00    +0.000 NA
ATOM     13  C   UNL     1       2.232   7.869  19.001  0.00  0.00    +0.000 A 
ATOM     14  C   UNL     1       3.046   7.361  17.833  0.00  0.00    +0.000 C 
ATOM     15  H   UNL     1       0.784  11.370  18.989  0.00  0.00    +0.000 HD
ENDROOT
BRANCH   1  19
ATOM     16  C   UNL     1       5.883   4.410  14.733  0.00  0.00    +0.000 A 
ATOM     17  C   UNL     1       5.366   3.575  15.721  0.00  0.00    +0.000 A 
ATOM     18  C   UNL     1       4.696   4.109  16.825  0.00  0.00    +0.000 A 
ATOM     19  C   UNL     1       4.548   5.495  16.971  0.00  0.00    +0.000 A 
ATOM     20  C   UNL     1       5.089   6.329  15.981  0.00  0.00    +0.000 A 
ATOM     21  C   UNL     1       5.752   5.790  14.869  0.00  0.00    +0.000 A 
BRANCH  16  23
ATOM     22  C   UNL     1       5.739   3.469  12.569  0.00  0.00    +0.000 C 
ATOM     23  O   UNL     1       6.531   3.772  13.712  0.00  0.00    +0.000 OA
ENDBRANCH  16  23
ENDBRANCH   1  19
BRANCH  10  24
ATOM     24  C   UNL     1      -0.350  12.985  20.505  0.00  0.00    +0.000 A 
ATOM     25  C   UNL     1       0.147  13.812  19.513  0.00  0.00    +0.000 A 
ATOM     26  C   UNL     1      -0.601  15.009  19.566  0.00  0.00    +0.000 A 
ATOM     27  C   UNL     1      -1.509  14.845  20.585  0.00  0.00    +0.000 A 
ATOM     28  O   UNL     1      -1.372  13.622  21.162  0.00  0.00    +0.000 OA
ENDBRANCH  10  24
TORSDOF 3
ENDMDL
MODEL 3
REMARK VINA RESULT:      -7.9      1.372      1.722
REMARK  Name = 
REMARK  4 active torsions:
REMARK  status: ('A' for Active; 'I' for Inactive)
REMARK    1  A    between atoms: C_1  and  O_2
REMARK    2  A    between atoms: O_2  and  C_3
REMARK    3  A    between atoms: C_6  and  C_7
REMARK    4  A    between atoms: C_16  and  C_18
REMARK                            x       y       z     vdW  Elec       q    Type
REMARK                         _______ _______ _______ _____ _____    ______ ____
ROOT
ATOM      1  C   UNL     1       1.361   7.496  19.959  0.00  0.00    +0.000 C 
ATOM      2  C   UNL     1       1.819   6.617  21.127  0.00  0.00    +0.000 C 
ATOM      3  C   UNL     1       2.290   5.279  20.622  0.00  0.00    +0.000 C 
ATOM      4  O   UNL     1       2.131   4.241  21.255  0.00  0.00    +0.000 OA
ATOM      5  C   UNL     1       3.041   5.267  19.360  0.00  0.00    +0.000 A 
ATOM      6  C   UNL     1       3.670   4.131  18.919  0.00  0.00    +0.000 A 
ATOM      7  N   UNL     1       4.398   4.091  17.788  0.00  0.00    +0.000 NA
ATOM      8  C   UNL     1       4.512   5.221  17.082  0.00  0.00    +0.000 A 
ATOM      9  N   UNL     1       5.270   5.250  15.924  0.00  0.00    +0.000 N 
ATOM     10  C   UNL     1       5.788   4.145  15.289  0.00  0.00    +0.000 C 
ATOM     11  O   UNL     1       5.614   2.979  15.627  0.00  0.00    +0.000 OA
ATOM     12  N   UNL     1       3.935   6.387  17.438  0.00  0.00    +0.000 NA
ATOM     13  C   UNL     1       3.177   6.390  18.568  0.00  0.00    +0.000 A 
ATOM     14  C   UNL     1       2.508   7.692  18.946  0.00  0.00    +0.000 C 
ATOM     15  H   UNL     1       5.396   6.160  15.505  0.00  0.00    +0.000 HD
ENDROOT
BRANCH   1  19
ATOM     16  C   UNL     1      -0.287  11.266  21.345  0.00  0.00    +0.000 A 
ATOM     17  C   UNL     1      -0.340  10.135  22.158  0.00  0.00    +0.000 A 
ATOM     18  C   UNL     1       0.206   8.923  21.729  0.00  0.00    +0.000 A 
ATOM     19  C   UNL     1       0.800   8.814  20.464  0.00  0.00    +0.000 A 
ATOM     20  C   UNL     1       0.831   9.952  19.644  0.00  0.00    +0.000 A 
ATOM     21  C   UNL     1       0.292  11.169  20.082  0.00  0.00    +0.000 A 
BRANCH  16  23
ATOM     22  C   UNL     1      -1.635  12.194  23.051  0.00  0.00    +0.000 C 
ATOM     23  O   UNL     1      -0.869  12.387  21.867  0.00  0.00    +0.000 OA
ENDBRANCH  16  23
ENDBRANCH   1  19
BRANCH  10  24
ATOM     24  C   UNL     1       6.566   4.469  14.104  0.00  0.00    +0.000 A 
ATOM     25  C   UNL     1       6.475   3.979  12.813  0.00  0.00    +0.000 A 
ATOM     26  C   UNL     1       7.475   4.630  12.057  0.00  0.00    +0.000 A 
ATOM     27  C   UNL     1       8.118   5.478  12.928  0.00  0.00    +0.000 A 
ATOM     28  O   UNL     1       7.576   5.394  14.172  0.00  0.00    +0.000 OA
ENDBRANCH  10  24
TORSDOF 3
ENDMDL
MODEL 4
REMARK VINA RESULT:      -7.9      2.288      9.417
REMARK  Name = 
REMARK  4 active torsions:
REMARK  status: ('A' for Active; 'I' for Inactive)
REMARK    1  A    between atoms: C_1  and  O_2
REMARK    2  A    between atoms: O_2  and  C_3
REMARK    3  A    between atoms: C_6  and  C_7
REMARK    4  A    between atoms: C_16  and  C_18
REMARK                            x       y       z     vdW  Elec       q    Type
REMARK                         _______ _______ _______ _____ _____    ______ ____
ROOT
ATOM      1  C   UNL     1       4.631   5.252  17.725  0.00  0.00    +0.000 C 
ATOM      2  C   UNL     1       3.847   3.989  18.096  0.00  0.00    +0.000 C 
ATOM      3  C   UNL     1       3.173   4.166  19.431  0.00  0.00    +0.000 C 
ATOM      4  O   UNL     1       3.023   3.241  20.221  0.00  0.00    +0.000 OA
ATOM      5  C   UNL     1       2.609   5.490  19.726  0.00  0.00    +0.000 A 
ATOM      6  C   UNL     1       1.816   5.694  20.826  0.00  0.00    +0.000 A 
ATOM      7  N   UNL     1       1.252   6.883  21.109  0.00  0.00    +0.000 NA
ATOM      8  C   UNL     1       1.475   7.893  20.263  0.00  0.00    +0.000 A 
ATOM      9  N   UNL     1       0.900   9.133  20.485  0.00  0.00    +0.000 N 
ATOM     10  C   UNL     1       0.246   9.508  21.635  0.00  0.00    +0.000 C 
ATOM     11  O   UNL     1       0.122   8.819  22.643  0.00  0.00    +0.000 OA
ATOM     12  N   UNL     1       2.235   7.787  19.153  0.00  0.00    +0.000 NA
ATOM     13  C   UNL     1       2.821   6.583  18.910  0.00  0.00    +0.000 A 
ATOM     14  C   UNL     1       3.696   6.478  17.682  0.00  0.00    +0.000 C 
ATOM     15  H   UNL     1       1.027   9.814  19.750  0.00  0.00    +0.000 HD
ENDROOT
BRANCH   1  19
ATOM     16  C   UNL     1       6.849   4.648  14.041  0.00  0.00    +0.000 A 
ATOM     17  C   UNL     1       5.542   4.179  14.159  0.00  0.00    +0.000 A 
ATOM     18  C   UNL     1       4.813   4.386  15.333  0.00  0.00    +0.000 A 
ATOM     19  C   UNL     1       5.389   5.053  16.424  0.00  0.00    +0.000 A 
ATOM     20  C   UNL     1       6.712   5.504  16.304  0.00  0.00    +0.000 A 
ATOM     21  C   UNL     1       7.436   5.304  15.121  0.00  0.00    +0.000 A 
BRANCH  16  23
ATOM     22  C   UNL     1       6.713   3.579  11.937  0.00  0.00    +0.000 C 
ATOM     23  O   UNL     1       7.463   4.369  12.852  0.00  0.00    +0.000 OA
ENDBRANCH  16  23
ENDBRANCH   1  19
BRANCH  10  24
ATOM     24  C   UNL     1      -0.282  10.862  21.589  0.00  0.00    +0.000 A 
ATOM     25  C   UNL     1      -0.867  11.557  20.546  0.00  0.00    +0.000 A 
ATOM     26  C   UNL     1      -1.196  12.839  21.043  0.00  0.00    +0.000 A 
ATOM     27  C   UNL     1      -0.792  12.851  22.357  0.00  0.00    +0.000 A 
ATOM     28  O   UNL     1      -0.240  11.658  22.704  0.00  0.00    +0.000 OA
ENDBRANCH  10  24
TORSDOF 3
ENDMDL
MODEL 5
REMARK VINA RESULT:      -7.9      2.150      9.407
REMARK  Name = 
REMARK  4 active torsions:
REMARK  status: ('A' for Active; 'I' for Inactive)
REMARK    1  A    between atoms: C_1  and  O_2
REMARK    2  A    between atoms: O_2  and  C_3
REMARK    3  A    between atoms: C_6  and  C_7
REMARK    4  A    between atoms: C_16  and  C_18
REMARK                            x       y       z     vdW  Elec       q    Type
REMARK                         _______ _______ _______ _____ _____    ______ ____
ROOT
ATOM      1  C   UNL     1       3.981   5.971  18.253  0.00  0.00    +0.000 C 
ATOM      2  C   UNL     1       3.135   4.872  18.903  0.00  0.00    +0.000 C 
ATOM      3  C   UNL     1       2.484   5.388  20.159  0.00  0.00    +0.000 C 
ATOM      4  O   UNL     1       2.293   4.680  21.141  0.00  0.00    +0.000 OA
ATOM      5  C   UNL     1       1.995   6.773  20.139  0.00  0.00    +0.000 A 
ATOM      6  C   UNL     1       1.224   7.268  21.160  0.00  0.00    +0.000 A 
ATOM      7  N   UNL     1       0.727   8.518  21.160  0.00  0.00    +0.000 NA
ATOM      8  C   UNL     1       0.995   9.293  20.104  0.00  0.00    +0.000 A 
ATOM      9  N   UNL     1       0.489  10.580  20.032  0.00  0.00    +0.000 N 
ATOM     10  C   UNL     1      -0.132  11.244  21.064  0.00  0.00    +0.000 C 
ATOM     11  O   UNL     1      -0.283  10.814  22.203  0.00  0.00    +0.000 OA
ATOM     12  N   UNL     1       1.738   8.893  19.051  0.00  0.00    +0.000 NA
ATOM     13  C   UNL     1       2.257   7.636  19.094  0.00  0.00    +0.000 A 
ATOM     14  C   UNL     1       3.112   7.203  17.925  0.00  0.00    +0.000 C 
ATOM     15  H   UNL     1       0.645  11.065  19.161  0.00  0.00    +0.000 HD
ENDROOT
BRANCH   1  19
ATOM     16  C   UNL     1       6.021   4.400  14.757  0.00  0.00    +0.000 A 
ATOM     17  C   UNL     1       5.748   5.763  14.856  0.00  0.00    +0.000 A 
ATOM     18  C   UNL     1       5.110   6.280  15.987  0.00  0.00    +0.000 A 
ATOM     19  C   UNL     1       4.714   5.437  17.034  0.00  0.00    +0.000 A 
ATOM     20  C   UNL     1       4.976   4.064  16.916  0.00  0.00    +0.000 A 
ATOM     21  C   UNL     1       5.625   3.549  15.786  0.00  0.00    +0.000 A 
BRANCH  16  23
ATOM     22  C   UNL     1       5.785   3.429  12.614  0.00  0.00    +0.000 C 
ATOM     23  O   UNL     1       6.633   4.012  13.597  0.00  0.00    +0.000 OA
ENDBRANCH  16  23
ENDBRANCH   1  19
BRANCH  10  24
ATOM     24  C   UNL     1      -0.588  12.578  20.705  0.00  0.00    +0.000 A 
ATOM     25  C   UNL     1      -1.803  13.199  20.935  0.00  0.00    +0.000 A 
ATOM     26  C   UNL     1      -1.713  14.492  20.370  0.00  0.00    +0.000 A 
ATOM     27  C   UNL     1      -0.453  14.583  19.829  0.00  0.00    +0.000 A 
ATOM     28  O   UNL     1       0.243  13.432  20.027  0.00  0.00    +0.000 OA
ENDBRANCH  10  24
TORSDOF 3
ENDMDL
MODEL 6
REMARK VINA RESULT:      -7.8      2.387      9.417
REMARK  Name = 
REMARK  4 active torsions:
REMARK  status: ('A' for Active; 'I' for Inactive)
REMARK    1  A    between atoms: C_1  and  O_2
REMARK    2  A    between atoms: O_2  and  C_3
REMARK    3  A    between atoms: C_6  and  C_7
REMARK    4  A    between atoms: C_16  and  C_18
REMARK                            x       y       z     vdW  Elec       q    Type
REMARK                         _______ _______ _______ _____ _____    ______ ____
ROOT
ATOM      1  C   UNL     1       4.498   5.192  17.861  0.00  0.00    +0.000 C 
ATOM      2  C   UNL     1       3.566   4.000  18.095  0.00  0.00    +0.000 C 
ATOM      3  C   UNL     1       2.843   4.151  19.408  0.00  0.00    +0.000 C 
ATOM      4  O   UNL     1       2.554   3.193  20.115  0.00  0.00    +0.000 OA
ATOM      5  C   UNL     1       2.409   5.504  19.781  0.00  0.00    +0.000 A 
ATOM      6  C   UNL     1       1.585   5.714  20.856  0.00  0.00    +0.000 A 
ATOM      7  N   UNL     1       1.136   6.933  21.207  0.00  0.00    +0.000 NA
ATOM      8  C   UNL     1       1.510   7.972  20.453  0.00  0.00    +0.000 A 
ATOM      9  N   UNL     1       1.060   9.248  20.746  0.00  0.00    +0.000 N 
ATOM     10  C   UNL     1       0.389   9.607  21.892  0.00  0.00    +0.000 C 
ATOM     11  O   UNL     1       0.139   8.864  22.836  0.00  0.00    +0.000 OA
ATOM     12  N   UNL     1       2.314   7.864  19.375  0.00  0.00    +0.000 NA
ATOM     13  C   UNL     1       2.780   6.625  19.064  0.00  0.00    +0.000 A 
ATOM     14  C   UNL     1       3.703   6.514  17.872  0.00  0.00    +0.000 C 
ATOM     15  H   UNL     1       1.298   9.963  20.074  0.00  0.00    +0.000 HD
ENDROOT
BRANCH   1  19
ATOM     16  C   UNL     1       6.735   4.696  14.172  0.00  0.00    +0.000 A 
ATOM     17  C   UNL     1       7.301   5.373  15.251  0.00  0.00    +0.000 A 
ATOM     18  C   UNL     1       6.597   5.520  16.449  0.00  0.00    +0.000 A 
ATOM     19  C   UNL     1       5.299   5.007  16.583  0.00  0.00    +0.000 A 
ATOM     20  C   UNL     1       4.729   4.344  15.485  0.00  0.00    +0.000 A 
ATOM     21  C   UNL     1       5.442   4.189  14.289  0.00  0.00    +0.000 A 
BRANCH  16  23
ATOM     22  C   UNL     1       6.984   3.871  11.971  0.00  0.00    +0.000 C 
ATOM     23  O   UNL     1       7.513   4.632  13.050  0.00  0.00    +0.000 OA
ENDBRANCH  16  23
ENDBRANCH   1  19
BRANCH  10  24
ATOM     24  C   UNL     1       0.011  11.011  21.929  0.00  0.00    +0.000 A 
ATOM     25  C   UNL     1      -1.069  11.630  22.530  0.00  0.00    +0.000 A 
ATOM     26  C   UNL     1      -0.957  13.011  22.250  0.00  0.00    +0.000 A 
ATOM     27  C   UNL     1       0.183  13.153  21.495  0.00  0.00    +0.000 A 
ATOM     28  O   UNL     1       0.784  11.950  21.295  0.00  0.00    +0.000 OA
ENDBRANCH  10  24
TORSDOF 3
ENDMDL
MODEL 7
REMARK VINA RESULT:      -7.7      4.387      9.841
REMARK  Name = 
REMARK  4 active torsions:
REMARK  status: ('A' for Active; 'I' for Inactive)
REMARK    1  A    between atoms: C_1  and  O_2
REMARK    2  A    between atoms: O_2  and  C_3
REMARK    3  A    between atoms: C_6  and  C_7
REMARK    4  A    between atoms: C_16  and  C_18
REMARK                            x       y       z     vdW  Elec       q    Type
REMARK                         _______ _______ _______ _____ _____    ______ ____
ROOT
ATOM      1  C   UNL     1       1.415   8.838  20.702  0.00  0.00    +0.000 C 
ATOM      2  C   UNL     1       0.224   8.702  21.656  0.00  0.00    +0.000 C 
ATOM      3  C   UNL     1      -0.072  10.023  22.315  0.00  0.00    +0.000 C 
ATOM      4  O   UNL     1      -0.486  10.107  23.466  0.00  0.00    +0.000 OA
ATOM      5  C   UNL     1       0.069  11.229  21.490  0.00  0.00    +0.000 A 
ATOM      6  C   UNL     1      -0.357  12.452  21.941  0.00  0.00    +0.000 A 
ATOM      7  N   UNL     1      -0.279  13.573  21.201  0.00  0.00    +0.000 NA
ATOM      8  C   UNL     1       0.228  13.468  19.968  0.00  0.00    +0.000 A 
ATOM      9  N   UNL     1       0.311  14.580  19.147  0.00  0.00    +0.000 N 
ATOM     10  C   UNL     1       0.091  15.877  19.548  0.00  0.00    +0.000 C 
ATOM     11  O   UNL     1      -0.160  16.239  20.693  0.00  0.00    +0.000 OA
ATOM     12  N   UNL     1       0.669  12.309  19.436  0.00  0.00    +0.000 NA
ATOM     13  C   UNL     1       0.609  11.198  20.219  0.00  0.00    +0.000 A 
ATOM     14  C   UNL     1       1.131   9.909  19.628  0.00  0.00    +0.000 C 
ATOM     15  H   UNL     1       0.604  14.404  18.198  0.00  0.00    +0.000 HD
ENDROOT
BRANCH   1  19
ATOM     16  C   UNL     1       2.389   4.971  18.985  0.00  0.00    +0.000 A 
ATOM     17  C   UNL     1       2.636   6.140  18.268  0.00  0.00    +0.000 A 
ATOM     18  C   UNL     1       2.345   7.390  18.820  0.00  0.00    +0.000 A 
ATOM     19  C   UNL     1       1.780   7.492  20.099  0.00  0.00    +0.000 A 
ATOM     20  C   UNL     1       1.516   6.310  20.806  0.00  0.00    +0.000 A 
ATOM     21  C   UNL     1       1.819   5.058  20.254  0.00  0.00    +0.000 A 
BRANCH  16  23
ATOM     22  C   UNL     1       1.751   2.757  18.456  0.00  0.00    +0.000 C 
ATOM     23  O   UNL     1       2.700   3.810  18.333  0.00  0.00    +0.000 OA
ENDBRANCH  16  23
ENDBRANCH   1  19
BRANCH  10  24
ATOM     24  C   UNL     1       0.220  16.847  18.472  0.00  0.00    +0.000 A 
ATOM     25  C   UNL     1      -0.749  17.550  17.781  0.00  0.00    +0.000 A 
ATOM     26  C   UNL     1      -0.075  18.354  16.834  0.00  0.00    +0.000 A 
ATOM     27  C   UNL     1       1.265  18.095  17.002  0.00  0.00    +0.000 A 
ATOM     28  O   UNL     1       1.461  17.186  17.994  0.00  0.00    +0.000 OA
ENDBRANCH  10  24
TORSDOF 3
ENDMDL
MODEL 8
REMARK VINA RESULT:      -7.6      4.235      9.792
REMARK  Name = 
REMARK  4 active torsions:
REMARK  status: ('A' for Active; 'I' for Inactive)
REMARK    1  A    between atoms: C_1  and  O_2
REMARK    2  A    between atoms: O_2  and  C_3
REMARK    3  A    between atoms: C_6  and  C_7
REMARK    4  A    between atoms: C_16  and  C_18
REMARK                            x       y       z     vdW  Elec       q    Type
REMARK                         _______ _______ _______ _____ _____    ______ ____
ROOT
ATOM      1  C   UNL     1       1.453   8.600  20.601  0.00  0.00    +0.000 C 
ATOM      2  C   UNL     1       0.219   8.425  21.490  0.00  0.00    +0.000 C 
ATOM      3  C   UNL     1      -0.121   9.723  22.175  0.00  0.00    +0.000 C 
ATOM      4  O   UNL     1      -0.592   9.768  23.306  0.00  0.00    +0.000 OA
ATOM      5  C   UNL     1       0.049  10.955  21.395  0.00  0.00    +0.000 A 
ATOM      6  C   UNL     1      -0.410  12.160  21.862  0.00  0.00    +0.000 A 
ATOM      7  N   UNL     1      -0.306  13.304  21.161  0.00  0.00    +0.000 NA
ATOM      8  C   UNL     1       0.262  13.241  19.952  0.00  0.00    +0.000 A 
ATOM      9  N   UNL     1       0.374  14.379  19.171  0.00  0.00    +0.000 N 
ATOM     10  C   UNL     1       0.123  15.661  19.600  0.00  0.00    +0.000 C 
ATOM     11  O   UNL     1      -0.187  15.985  20.742  0.00  0.00    +0.000 OA
ATOM     12  N   UNL     1       0.738  12.103  19.407  0.00  0.00    +0.000 NA
ATOM     13  C   UNL     1       0.650  10.968  20.152  0.00  0.00    +0.000 A 
ATOM     14  C   UNL     1       1.212   9.701  19.547  0.00  0.00    +0.000 C 
ATOM     15  H   UNL     1       0.715  14.235  18.232  0.00  0.00    +0.000 HD
ENDROOT
BRANCH   1  19
ATOM     16  C   UNL     1       2.682   4.841  18.809  0.00  0.00    +0.000 A 
ATOM     17  C   UNL     1       2.065   4.855  20.059  0.00  0.00    +0.000 A 
ATOM     18  C   UNL     1       1.648   6.057  20.634  0.00  0.00    +0.000 A 
ATOM     19  C   UNL     1       1.860   7.277  19.976  0.00  0.00    +0.000 A 
ATOM     20  C   UNL     1       2.499   7.256  18.727  0.00  0.00    +0.000 A 
ATOM     21  C   UNL     1       2.907   6.047  18.148  0.00  0.00    +0.000 A 
BRANCH  16  23
ATOM     22  C   UNL     1       2.533   2.497  19.078  0.00  0.00    +0.000 C 
ATOM     23  O   UNL     1       3.060   3.607  18.359  0.00  0.00    +0.000 OA
ENDBRANCH  16  23
ENDBRANCH   1  19
BRANCH  10  24
ATOM     24  C   UNL     1       0.296  16.665  18.562  0.00  0.00    +0.000 A 
ATOM     25  C   UNL     1       1.449  17.158  17.979  0.00  0.00    +0.000 A 
ATOM     26  C   UNL     1       1.046  18.123  17.028  0.00  0.00    +0.000 A 
ATOM     27  C   UNL     1      -0.327  18.163  17.086  0.00  0.00    +0.000 A 
ATOM     28  O   UNL     1      -0.797  17.282  18.009  0.00  0.00    +0.000 OA
ENDBRANCH  10  24
TORSDOF 3
ENDMDL
MODEL 9
REMARK VINA RESULT:      -7.4      4.186      6.119
REMARK  Name = 
REMARK  4 active torsions:
REMARK  status: ('A' for Active; 'I' for Inactive)
REMARK    1  A    between atoms: C_1  and  O_2
REMARK    2  A    between atoms: O_2  and  C_3
REMARK    3  A    between atoms: C_6  and  C_7
REMARK    4  A    between atoms: C_16  and  C_18
REMARK                            x       y       z     vdW  Elec       q    Type
REMARK                         _______ _______ _______ _____ _____    ______ ____
ROOT
ATOM      1  C   UNL     1      -0.255  12.224  21.671  0.00  0.00    +0.000 C 
ATOM      2  C   UNL     1      -0.581  12.582  20.218  0.00  0.00    +0.000 C 
ATOM      3  C   UNL     1       0.382  11.901  19.282  0.00  0.00    +0.000 C 
ATOM      4  O   UNL     1       0.762  12.418  18.238  0.00  0.00    +0.000 OA
ATOM      5  C   UNL     1       0.792  10.533  19.623  0.00  0.00    +0.000 A 
ATOM      6  C   UNL     1       1.511   9.767  18.741  0.00  0.00    +0.000 A 
ATOM      7  N   UNL     1       1.873   8.498  19.002  0.00  0.00    +0.000 NA
ATOM      8  C   UNL     1       1.495   7.973  20.172  0.00  0.00    +0.000 A 
ATOM      9  N   UNL     1       1.814   6.663  20.488  0.00  0.00    +0.000 N 
ATOM     10  C   UNL     1       2.678   5.865  19.775  0.00  0.00    +0.000 C 
ATOM     11  O   UNL     1       3.325   6.211  18.792  0.00  0.00    +0.000 OA
ATOM     12  N   UNL     1       0.783   8.645  21.100  0.00  0.00    +0.000 NA
ATOM     13  C   UNL     1       0.460   9.938  20.824  0.00  0.00    +0.000 A 
ATOM     14  C   UNL     1      -0.312  10.696  21.879  0.00  0.00    +0.000 C 
ATOM     15  H   UNL     1       1.405   6.304  21.339  0.00  0.00    +0.000 HD
ENDROOT
BRANCH   1  19
ATOM     16  C   UNL     1      -2.854  14.426  24.363  0.00  0.00    +0.000 A 
ATOM     17  C   UNL     1      -3.218  13.157  23.917  0.00  0.00    +0.000 A 
ATOM     18  C   UNL     1      -2.379  12.432  23.067  0.00  0.00    +0.000 A 
ATOM     19  C   UNL     1      -1.163  12.975  22.629  0.00  0.00    +0.000 A 
ATOM     20  C   UNL     1      -0.813  14.261  23.067  0.00  0.00    +0.000 A 
ATOM     21  C   UNL     1      -1.653  14.981  23.928  0.00  0.00    +0.000 A 
BRANCH  16  23
ATOM     22  C   UNL     1      -3.988  16.424  24.922  0.00  0.00    +0.000 C 
ATOM     23  O   UNL     1      -3.764  15.041  25.176  0.00  0.00    +0.000 OA
ENDBRANCH  16  23
ENDBRANCH   1  19
BRANCH  10  24
ATOM     24  C   UNL     1       2.810   4.522  20.318  0.00  0.00    +0.000 A 
ATOM     25  C   UNL     1       2.092   3.886  21.315  0.00  0.00    +0.000 A 
ATOM     26  C   UNL     1       2.638   2.589  21.448  0.00  0.00    +0.000 A 
ATOM     27  C   UNL     1       3.655   2.510  20.527  0.00  0.00    +0.000 A 
ATOM     28  O   UNL     1       3.769   3.672  19.831  0.00  0.00    +0.000 OA
ENDBRANCH  10  24
TORSDOF 3
ENDMDL
