MODEL 1
REMARK VINA RESULT:      -7.8      0.000      0.000
REMARK  Name = 
REMARK  5 active torsions:
REMARK  status: ('A' for Active; 'I' for Inactive)
REMARK    1  A    between atoms: C_1  and  O_2
REMARK    2  A    between atoms: O_2  and  C_3
REMARK    3  A    between atoms: C_8  and  C_9
REMARK    4  A    between atoms: N_13  and  C_14
REMARK    5  A    between atoms: C_14  and  C_15
REMARK                            x       y       z     vdW  Elec       q    Type
REMARK                         _______ _______ _______ _____ _____    ______ ____
ROOT
ATOM      1  C   UNL     1       4.450   4.591  17.422  0.00  0.00    +0.000 A 
ATOM      2  C   UNL     1       3.838   5.627  18.105  0.00  0.00    +0.000 A 
ATOM      3  C   UNL     1       2.929   5.191  19.130  0.00  0.00    +0.000 A 
ATOM      4  C   UNL     1       2.098   5.888  20.028  0.00  0.00    +0.000 A 
ATOM      5  N   UNL     1       2.077   7.281  20.047  0.00  0.00    +0.000 N 
ATOM      6  N   UNL     1       1.299   5.174  20.853  0.00  0.00    +0.000 NA
ATOM      7  C   UNL     1       1.336   3.831  20.783  0.00  0.00    +0.000 A 
ATOM      8  N   UNL     1       2.113   3.072  20.004  0.00  0.00    +0.000 NA
ATOM      9  C   UNL     1       2.891   3.812  19.195  0.00  0.00    +0.000 A 
ATOM     10  S   UNL     1       3.973   3.081  18.111  0.00  0.00    +0.000 S 
ATOM     11  H   UNL     1       2.904   7.683  19.622  0.00  0.00    +0.000 HD
ENDROOT
BRANCH   1  17
ATOM     12  C   UNL     1       6.690   5.179  16.344  0.00  0.00    +0.000 A 
ATOM     13  C   UNL     1       7.528   5.144  15.216  0.00  0.00    +0.000 A 
ATOM     14  C   UNL     1       7.073   4.650  13.998  0.00  0.00    +0.000 A 
ATOM     15  C   UNL     1       5.773   4.176  13.891  0.00  0.00    +0.000 A 
ATOM     16  C   UNL     1       4.943   4.169  15.010  0.00  0.00    +0.000 A 
ATOM     17  C   UNL     1       5.383   4.639  16.268  0.00  0.00    +0.000 A 
BRANCH  12  19
ATOM     18  C   UNL     1       7.399   7.094  17.545  0.00  0.00    +0.000 C 
ATOM     19  O   UNL     1       7.130   5.690  17.544  0.00  0.00    +0.000 OA
ENDBRANCH  12  19
ENDBRANCH   1  17
BRANCH   5  20
ATOM     20  C   UNL     1       1.736   7.897  21.316  0.00  0.00    +0.000 C 
BRANCH  20  21
ATOM     21  C   UNL     1       0.865   9.107  21.048  0.00  0.00    +0.000 A 
ATOM     22  C   UNL     1       0.192   9.741  22.103  0.00  0.00    +0.000 A 
ATOM     23  C   UNL     1      -0.618  10.857  21.862  0.00  0.00    +0.000 A 
ATOM     24  C   UNL     1      -0.762  11.344  20.566  0.00  0.00    +0.000 A 
ATOM     25  C   UNL     1      -0.103  10.720  19.510  0.00  0.00    +0.000 A 
ATOM     26  C   UNL     1       0.706   9.605  19.746  0.00  0.00    +0.000 A 
ENDBRANCH  20  21
ENDBRANCH   5  20
TORSDOF 4
ENDMDL
MODEL 2
REMARK VINA RESULT:      -7.4      1.871      2.923
REMARK  Name = 
REMARK  5 active torsions:
REMARK  status: ('A' for Active; 'I' for Inactive)
REMARK    1  A    between atoms: C_1  and  O_2
REMARK    2  A    between atoms: O_2  and  C_3
REMARK    3  A    between atoms: C_8  and  C_9
REMARK    4  A    between atoms: N_13  and  C_14
REMARK    5  A    between atoms: C_14  and  C_15
REMARK                            x       y       z     vdW  Elec       q    Type
REMARK                         _______ _______ _______ _____ _____    ______ ____
ROOT
ATOM      1  C   UNL     1       4.058   6.213  17.768  0.00  0.00    +0.000 A 
ATOM      2  C   UNL     1       3.295   7.355  17.603  0.00  0.00    +0.000 A 
ATOM      3  C   UNL     1       2.456   7.663  18.729  0.00  0.00    +0.000 A 
ATOM      4  C   UNL     1       1.526   8.691  18.973  0.00  0.00    +0.000 A 
ATOM      5  N   UNL     1       1.297   9.687  18.026  0.00  0.00    +0.000 N 
ATOM      6  N   UNL     1       0.838   8.673  20.138  0.00  0.00    +0.000 NA
ATOM      7  C   UNL     1       1.074   7.680  21.012  0.00  0.00    +0.000 A 
ATOM      8  N   UNL     1       1.960   6.685  20.901  0.00  0.00    +0.000 NA
ATOM      9  C   UNL     1       2.623   6.729  19.733  0.00  0.00    +0.000 A 
ATOM     10  S   UNL     1       3.808   5.573  19.353  0.00  0.00    +0.000 S 
ATOM     11  H   UNL     1       2.057   9.765  17.361  0.00  0.00    +0.000 HD
ENDROOT
BRANCH   1  17
ATOM     12  C   UNL     1       6.202   6.113  16.383  0.00  0.00    +0.000 A 
ATOM     13  C   UNL     1       7.040   5.393  15.515  0.00  0.00    +0.000 A 
ATOM     14  C   UNL     1       6.659   4.153  15.012  0.00  0.00    +0.000 A 
ATOM     15  C   UNL     1       5.435   3.611  15.375  0.00  0.00    +0.000 A 
ATOM     16  C   UNL     1       4.610   4.295  16.267  0.00  0.00    +0.000 A 
ATOM     17  C   UNL     1       4.979   5.544  16.816  0.00  0.00    +0.000 A 
BRANCH  12  19
ATOM     18  C   UNL     1       7.667   7.349  17.775  0.00  0.00    +0.000 C 
ATOM     19  O   UNL     1       6.566   7.350  16.863  0.00  0.00    +0.000 OA
ENDBRANCH  12  19
ENDBRANCH   1  17
BRANCH   5  20
ATOM     20  C   UNL     1       0.862  10.971  18.543  0.00  0.00    +0.000 C 
BRANCH  20  21
ATOM     21  C   UNL     1      -0.648  11.050  18.435  0.00  0.00    +0.000 A 
ATOM     22  C   UNL     1      -1.341  10.187  17.573  0.00  0.00    +0.000 A 
ATOM     23  C   UNL     1      -2.734  10.257  17.465  0.00  0.00    +0.000 A 
ATOM     24  C   UNL     1      -3.443  11.191  18.217  0.00  0.00    +0.000 A 
ATOM     25  C   UNL     1      -2.766  12.057  19.071  0.00  0.00    +0.000 A 
ATOM     26  C   UNL     1      -1.374  11.991  19.181  0.00  0.00    +0.000 A 
ENDBRANCH  20  21
ENDBRANCH   5  20
TORSDOF 4
ENDMDL
MODEL 3
REMARK VINA RESULT:      -7.4      4.009      8.672
REMARK  Name = 
REMARK  5 active torsions:
REMARK  status: ('A' for Active; 'I' for Inactive)
REMARK    1  A    between atoms: C_1  and  O_2
REMARK    2  A    between atoms: O_2  and  C_3
REMARK    3  A    between atoms: C_8  and  C_9
REMARK    4  A    between atoms: N_13  and  C_14
REMARK    5  A    between atoms: C_14  and  C_15
REMARK                            x       y       z     vdW  Elec       q    Type
REMARK                         _______ _______ _______ _____ _____    ______ ____
ROOT
ATOM      1  C   UNL     1       3.953   4.491  18.377  0.00  0.00    +0.000 A 
ATOM      2  C   UNL     1       4.369   4.520  17.058  0.00  0.00    +0.000 A 
ATOM      3  C   UNL     1       5.606   5.224  16.852  0.00  0.00    +0.000 A 
ATOM      4  C   UNL     1       6.361   5.509  15.699  0.00  0.00    +0.000 A 
ATOM      5  N   UNL     1       5.952   5.054  14.447  0.00  0.00    +0.000 N 
ATOM      6  N   UNL     1       7.478   6.260  15.830  0.00  0.00    +0.000 NA
ATOM      7  C   UNL     1       7.821   6.697  17.055  0.00  0.00    +0.000 A 
ATOM      8  N   UNL     1       7.205   6.451  18.215  0.00  0.00    +0.000 NA
ATOM      9  C   UNL     1       6.098   5.706  18.049  0.00  0.00    +0.000 A 
ATOM     10  S   UNL     1       5.139   5.254  19.375  0.00  0.00    +0.000 S 
ATOM     11  H   UNL     1       5.302   4.280  14.514  0.00  0.00    +0.000 HD
ENDROOT
BRANCH   1  17
ATOM     12  C   UNL     1       2.224   2.634  18.668  0.00  0.00    +0.000 A 
ATOM     13  C   UNL     1       1.065   2.158  19.305  0.00  0.00    +0.000 A 
ATOM     14  C   UNL     1       0.343   2.966  20.178  0.00  0.00    +0.000 A 
ATOM     15  C   UNL     1       0.772   4.260  20.431  0.00  0.00    +0.000 A 
ATOM     16  C   UNL     1       1.941   4.732  19.837  0.00  0.00    +0.000 A 
ATOM     17  C   UNL     1       2.713   3.929  18.966  0.00  0.00    +0.000 A 
BRANCH  12  19
ATOM     18  C   UNL     1       3.935   1.021  18.376  0.00  0.00    +0.000 C 
ATOM     19  O   UNL     1       2.928   1.845  17.785  0.00  0.00    +0.000 OA
ENDBRANCH  12  19
ENDBRANCH   1  17
BRANCH   5  20
ATOM     20  C   UNL     1       7.006   4.827  13.475  0.00  0.00    +0.000 C 
BRANCH  20  21
ATOM     21  C   UNL     1       6.587   3.690  12.565  0.00  0.00    +0.000 A 
ATOM     22  C   UNL     1       7.556   2.896  11.934  0.00  0.00    +0.000 A 
ATOM     23  C   UNL     1       7.176   1.848  11.088  0.00  0.00    +0.000 A 
ATOM     24  C   UNL     1       5.827   1.588  10.867  0.00  0.00    +0.000 A 
ATOM     25  C   UNL     1       4.855   2.372  11.483  0.00  0.00    +0.000 A 
ATOM     26  C   UNL     1       5.231   3.421  12.327  0.00  0.00    +0.000 A 
ENDBRANCH  20  21
ENDBRANCH   5  20
TORSDOF 4
ENDMDL
MODEL 4
REMARK VINA RESULT:      -7.3      1.828      2.716
REMARK  Name = 
REMARK  5 active torsions:
REMARK  status: ('A' for Active; 'I' for Inactive)
REMARK    1  A    between atoms: C_1  and  O_2
REMARK    2  A    between atoms: O_2  and  C_3
REMARK    3  A    between atoms: C_8  and  C_9
REMARK    4  A    between atoms: N_13  and  C_14
REMARK    5  A    between atoms: C_14  and  C_15
REMARK                            x       y       z     vdW  Elec       q    Type
REMARK                         _______ _______ _______ _____ _____    ______ ____
ROOT
ATOM      1  C   UNL     1       4.170   6.234  17.788  0.00  0.00    +0.000 A 
ATOM      2  C   UNL     1       3.400   7.376  17.658  0.00  0.00    +0.000 A 
ATOM      3  C   UNL     1       2.521   7.615  18.770  0.00  0.00    +0.000 A 
ATOM      4  C   UNL     1       1.571   8.620  19.037  0.00  0.00    +0.000 A 
ATOM      5  N   UNL     1       1.362   9.663  18.137  0.00  0.00    +0.000 N 
ATOM      6  N   UNL     1       0.845   8.534  20.175  0.00  0.00    +0.000 NA
ATOM      7  C   UNL     1       1.064   7.497  21.003  0.00  0.00    +0.000 A 
ATOM      8  N   UNL     1       1.965   6.518  20.869  0.00  0.00    +0.000 NA
ATOM      9  C   UNL     1       2.665   6.631  19.728  0.00  0.00    +0.000 A 
ATOM     10  S   UNL     1       3.875   5.509  19.328  0.00  0.00    +0.000 S 
ATOM     11  H   UNL     1       2.143   9.783  17.503  0.00  0.00    +0.000 HD
ENDROOT
BRANCH   1  17
ATOM     12  C   UNL     1       6.519   5.901  16.842  0.00  0.00    +0.000 A 
ATOM     13  C   UNL     1       7.367   5.247  15.932  0.00  0.00    +0.000 A 
ATOM     14  C   UNL     1       6.858   4.380  14.970  0.00  0.00    +0.000 A 
ATOM     15  C   UNL     1       5.491   4.149  14.907  0.00  0.00    +0.000 A 
ATOM     16  C   UNL     1       4.642   4.761  15.828  0.00  0.00    +0.000 A 
ATOM     17  C   UNL     1       5.130   5.626  16.833  0.00  0.00    +0.000 A 
BRANCH  12  19
ATOM     18  C   UNL     1       7.793   6.178  18.819  0.00  0.00    +0.000 C 
ATOM     19  O   UNL     1       7.018   6.777  17.779  0.00  0.00    +0.000 OA
ENDBRANCH  12  19
ENDBRANCH   1  17
BRANCH   5  20
ATOM     20  C   UNL     1       0.896  10.913  18.706  0.00  0.00    +0.000 C 
BRANCH  20  21
ATOM     21  C   UNL     1      -0.606  10.998  18.522  0.00  0.00    +0.000 A 
ATOM     22  C   UNL     1      -1.358  11.923  19.261  0.00  0.00    +0.000 A 
ATOM     23  C   UNL     1      -2.746  12.004  19.100  0.00  0.00    +0.000 A 
ATOM     24  C   UNL     1      -3.390  11.159  18.200  0.00  0.00    +0.000 A 
ATOM     25  C   UNL     1      -2.656  10.232  17.465  0.00  0.00    +0.000 A 
ATOM     26  C   UNL     1      -1.270  10.148  17.624  0.00  0.00    +0.000 A 
ENDBRANCH  20  21
ENDBRANCH   5  20
TORSDOF 4
ENDMDL
MODEL 5
REMARK VINA RESULT:      -7.3      1.375      1.958
REMARK  Name = 
REMARK  5 active torsions:
REMARK  status: ('A' for Active; 'I' for Inactive)
REMARK    1  A    between atoms: C_1  and  O_2
REMARK    2  A    between atoms: O_2  and  C_3
REMARK    3  A    between atoms: C_8  and  C_9
REMARK    4  A    between atoms: N_13  and  C_14
REMARK    5  A    between atoms: C_14  and  C_15
REMARK                            x       y       z     vdW  Elec       q    Type
REMARK                         _______ _______ _______ _____ _____    ______ ____
ROOT
ATOM      1  C   UNL     1       4.492   5.609  17.519  0.00  0.00    +0.000 A 
ATOM      2  C   UNL     1       3.707   6.739  17.667  0.00  0.00    +0.000 A 
ATOM      3  C   UNL     1       2.892   6.732  18.851  0.00  0.00    +0.000 A 
ATOM      4  C   UNL     1       1.952   7.644  19.368  0.00  0.00    +0.000 A 
ATOM      5  N   UNL     1       1.685   8.843  18.712  0.00  0.00    +0.000 N 
ATOM      6  N   UNL     1       1.294   7.315  20.503  0.00  0.00    +0.000 NA
ATOM      7  C   UNL     1       1.567   6.137  21.089  0.00  0.00    +0.000 A 
ATOM      8  N   UNL     1       2.465   5.222  20.710  0.00  0.00    +0.000 NA
ATOM      9  C   UNL     1       3.098   5.576  19.578  0.00  0.00    +0.000 A 
ATOM     10  S   UNL     1       4.290   4.581  18.893  0.00  0.00    +0.000 S 
ATOM     11  H   UNL     1       2.427   9.105  18.074  0.00  0.00    +0.000 HD
ENDROOT
BRANCH   1  17
ATOM     12  C   UNL     1       6.791   5.483  16.415  0.00  0.00    +0.000 A 
ATOM     13  C   UNL     1       7.589   5.045  15.344  0.00  0.00    +0.000 A 
ATOM     14  C   UNL     1       7.024   4.419  14.237  0.00  0.00    +0.000 A 
ATOM     15  C   UNL     1       5.653   4.217  14.187  0.00  0.00    +0.000 A 
ATOM     16  C   UNL     1       4.854   4.611  15.259  0.00  0.00    +0.000 A 
ATOM     17  C   UNL     1       5.399   5.225  16.409  0.00  0.00    +0.000 A 
BRANCH  12  19
ATOM     18  C   UNL     1       7.497   7.538  17.359  0.00  0.00    +0.000 C 
ATOM     19  O   UNL     1       7.344   6.124  17.500  0.00  0.00    +0.000 OA
ENDBRANCH  12  19
ENDBRANCH   1  17
BRANCH   5  20
ATOM     20  C   UNL     1       1.243   9.944  19.548  0.00  0.00    +0.000 C 
BRANCH  20  21
ATOM     21  C   UNL     1      -0.045  10.500  18.976  0.00  0.00    +0.000 A 
ATOM     22  C   UNL     1      -0.630  11.647  19.534  0.00  0.00    +0.000 A 
ATOM     23  C   UNL     1      -1.822  12.162  19.013  0.00  0.00    +0.000 A 
ATOM     24  C   UNL     1      -2.437  11.535  17.933  0.00  0.00    +0.000 A 
ATOM     25  C   UNL     1      -1.870  10.393  17.374  0.00  0.00    +0.000 A 
ATOM     26  C   UNL     1      -0.680   9.873  17.892  0.00  0.00    +0.000 A 
ENDBRANCH  20  21
ENDBRANCH   5  20
TORSDOF 4
ENDMDL
MODEL 6
REMARK VINA RESULT:      -7.2      0.781      1.236
REMARK  Name = 
REMARK  5 active torsions:
REMARK  status: ('A' for Active; 'I' for Inactive)
REMARK    1  A    between atoms: C_1  and  O_2
REMARK    2  A    between atoms: O_2  and  C_3
REMARK    3  A    between atoms: C_8  and  C_9
REMARK    4  A    between atoms: N_13  and  C_14
REMARK    5  A    between atoms: C_14  and  C_15
REMARK                            x       y       z     vdW  Elec       q    Type
REMARK                         _______ _______ _______ _____ _____    ______ ____
ROOT
ATOM      1  C   UNL     1       4.598   4.946  17.462  0.00  0.00    +0.000 A 
ATOM      2  C   UNL     1       3.860   5.998  17.975  0.00  0.00    +0.000 A 
ATOM      3  C   UNL     1       3.058   5.645  19.114  0.00  0.00    +0.000 A 
ATOM      4  C   UNL     1       2.160   6.379  19.914  0.00  0.00    +0.000 A 
ATOM      5  N   UNL     1       1.933   7.732  19.674  0.00  0.00    +0.000 N 
ATOM      6  N   UNL     1       1.502   5.732  20.902  0.00  0.00    +0.000 NA
ATOM      7  C   UNL     1       1.735   4.420  21.082  0.00  0.00    +0.000 A 
ATOM      8  N   UNL     1       2.592   3.641  20.413  0.00  0.00    +0.000 NA
ATOM      9  C   UNL     1       3.227   4.313  19.437  0.00  0.00    +0.000 A 
ATOM     10  S   UNL     1       4.372   3.545  18.446  0.00  0.00    +0.000 S 
ATOM     11  H   UNL     1       2.678   8.156  19.134  0.00  0.00    +0.000 HD
ENDROOT
BRANCH   1  17
ATOM     12  C   UNL     1       6.754   5.513  16.214  0.00  0.00    +0.000 A 
ATOM     13  C   UNL     1       7.544   5.384  15.059  0.00  0.00    +0.000 A 
ATOM     14  C   UNL     1       7.068   4.721  13.933  0.00  0.00    +0.000 A 
ATOM     15  C   UNL     1       5.794   4.172  13.946  0.00  0.00    +0.000 A 
ATOM     16  C   UNL     1       5.013   4.258  15.097  0.00  0.00    +0.000 A 
ATOM     17  C   UNL     1       5.477   4.901  16.267  0.00  0.00    +0.000 A 
BRANCH  12  19
ATOM     18  C   UNL     1       7.722   5.362  18.371  0.00  0.00    +0.000 C 
ATOM     19  O   UNL     1       7.213   6.189  17.322  0.00  0.00    +0.000 OA
ENDBRANCH  12  19
ENDBRANCH   1  17
BRANCH   5  20
ATOM     20  C   UNL     1       1.543   8.527  20.824  0.00  0.00    +0.000 C 
BRANCH  20  21
ATOM     21  C   UNL     1       0.734   9.713  20.340  0.00  0.00    +0.000 A 
ATOM     22  C   UNL     1       0.257   9.754  19.021  0.00  0.00    +0.000 A 
ATOM     23  C   UNL     1      -0.486  10.848  18.567  0.00  0.00    +0.000 A 
ATOM     24  C   UNL     1      -0.757  11.909  19.426  0.00  0.00    +0.000 A 
ATOM     25  C   UNL     1      -0.284  11.884  20.736  0.00  0.00    +0.000 A 
ATOM     26  C   UNL     1       0.461  10.793  21.193  0.00  0.00    +0.000 A 
ENDBRANCH  20  21
ENDBRANCH   5  20
TORSDOF 4
ENDMDL
MODEL 7
REMARK VINA RESULT:      -7.1      2.141      3.484
REMARK  Name = 
REMARK  5 active torsions:
REMARK  status: ('A' for Active; 'I' for Inactive)
REMARK    1  A    between atoms: C_1  and  O_2
REMARK    2  A    between atoms: O_2  and  C_3
REMARK    3  A    between atoms: C_8  and  C_9
REMARK    4  A    between atoms: N_13  and  C_14
REMARK    5  A    between atoms: C_14  and  C_15
REMARK                            x       y       z     vdW  Elec       q    Type
REMARK                         _______ _______ _______ _____ _____    ______ ____
ROOT
ATOM      1  C   UNL     1       3.723   6.422  18.053  0.00  0.00    +0.000 A 
ATOM      2  C   UNL     1       3.036   7.602  17.830  0.00  0.00    +0.000 A 
ATOM      3  C   UNL     1       2.178   7.990  18.916  0.00  0.00    +0.000 A 
ATOM      4  C   UNL     1       1.304   9.079  19.099  0.00  0.00    +0.000 A 
ATOM      5  N   UNL     1       1.169  10.060  18.119  0.00  0.00    +0.000 N 
ATOM      6  N   UNL     1       0.575   9.134  20.237  0.00  0.00    +0.000 NA
ATOM      7  C   UNL     1       0.720   8.153  21.145  0.00  0.00    +0.000 A 
ATOM      8  N   UNL     1       1.547   7.104  21.092  0.00  0.00    +0.000 NA
ATOM      9  C   UNL     1       2.253   7.076  19.949  0.00  0.00    +0.000 A 
ATOM     10  S   UNL     1       3.378   5.842  19.643  0.00  0.00    +0.000 S 
ATOM     11  H   UNL     1       1.956  10.074  17.481  0.00  0.00    +0.000 HD
ENDROOT
BRANCH   1  17
ATOM     12  C   UNL     1       4.355   4.375  16.662  0.00  0.00    +0.000 A 
ATOM     13  C   UNL     1       5.251   3.753  15.776  0.00  0.00    +0.000 A 
ATOM     14  C   UNL     1       6.451   4.363  15.421  0.00  0.00    +0.000 A 
ATOM     15  C   UNL     1       6.769   5.608  15.944  0.00  0.00    +0.000 A 
ATOM     16  C   UNL     1       5.873   6.254  16.794  0.00  0.00    +0.000 A 
ATOM     17  C   UNL     1       4.635   5.673  17.153  0.00  0.00    +0.000 A 
BRANCH  12  19
ATOM     18  C   UNL     1       3.332   2.516  17.715  0.00  0.00    +0.000 C 
ATOM     19  O   UNL     1       3.179   3.763  17.034  0.00  0.00    +0.000 OA
ENDBRANCH  12  19
ENDBRANCH   1  17
BRANCH   5  20
ATOM     20  C   UNL     1       0.794  11.381  18.586  0.00  0.00    +0.000 C 
BRANCH  20  21
ATOM     21  C   UNL     1      -0.717  11.483  18.588  0.00  0.00    +0.000 A 
ATOM     22  C   UNL     1      -1.374  12.249  19.564  0.00  0.00    +0.000 A 
ATOM     23  C   UNL     1      -2.770  12.343  19.574  0.00  0.00    +0.000 A 
ATOM     24  C   UNL     1      -3.518  11.672  18.610  0.00  0.00    +0.000 A 
ATOM     25  C   UNL     1      -2.879  10.904  17.641  0.00  0.00    +0.000 A 
ATOM     26  C   UNL     1      -1.485  10.806  17.628  0.00  0.00    +0.000 A 
ENDBRANCH  20  21
ENDBRANCH   5  20
TORSDOF 4
ENDMDL
MODEL 8
REMARK VINA RESULT:      -7.1      3.305      8.613
REMARK  Name = 
REMARK  5 active torsions:
REMARK  status: ('A' for Active; 'I' for Inactive)
REMARK    1  A    between atoms: C_1  and  O_2
REMARK    2  A    between atoms: O_2  and  C_3
REMARK    3  A    between atoms: C_8  and  C_9
REMARK    4  A    between atoms: N_13  and  C_14
REMARK    5  A    between atoms: C_14  and  C_15
REMARK                            x       y       z     vdW  Elec       q    Type
REMARK                         _______ _______ _______ _____ _____    ______ ____
ROOT
ATOM      1  C   UNL     1       3.905   4.380  18.320  0.00  0.00    +0.000 A 
ATOM      2  C   UNL     1       4.334   4.442  17.005  0.00  0.00    +0.000 A 
ATOM      3  C   UNL     1       5.579   5.139  16.831  0.00  0.00    +0.000 A 
ATOM      4  C   UNL     1       6.347   5.448  15.692  0.00  0.00    +0.000 A 
ATOM      5  N   UNL     1       5.946   5.033  14.424  0.00  0.00    +0.000 N 
ATOM      6  N   UNL     1       7.471   6.184  15.855  0.00  0.00    +0.000 NA
ATOM      7  C   UNL     1       7.807   6.583  17.094  0.00  0.00    +0.000 A 
ATOM      8  N   UNL     1       7.177   6.310  18.241  0.00  0.00    +0.000 NA
ATOM      9  C   UNL     1       6.065   5.582  18.045  0.00  0.00    +0.000 A 
ATOM     10  S   UNL     1       5.089   5.102  19.349  0.00  0.00    +0.000 S 
ATOM     11  H   UNL     1       5.287   4.264  14.464  0.00  0.00    +0.000 HD
ENDROOT
BRANCH   1  17
ATOM     12  C   UNL     1       1.979   4.368  19.997  0.00  0.00    +0.000 A 
ATOM     13  C   UNL     1       0.772   3.798  20.438  0.00  0.00    +0.000 A 
ATOM     14  C   UNL     1       0.258   2.652  19.841  0.00  0.00    +0.000 A 
ATOM     15  C   UNL     1       0.941   2.060  18.788  0.00  0.00    +0.000 A 
ATOM     16  C   UNL     1       2.119   2.636  18.314  0.00  0.00    +0.000 A 
ATOM     17  C   UNL     1       2.654   3.814  18.881  0.00  0.00    +0.000 A 
BRANCH  12  19
ATOM     18  C   UNL     1       1.769   6.695  20.384  0.00  0.00    +0.000 C 
ATOM     19  O   UNL     1       2.502   5.488  20.602  0.00  0.00    +0.000 OA
ENDBRANCH  12  19
ENDBRANCH   1  17
BRANCH   5  20
ATOM     20  C   UNL     1       7.006   4.822  13.456  0.00  0.00    +0.000 C 
BRANCH  20  21
ATOM     21  C   UNL     1       6.605   3.683  12.541  0.00  0.00    +0.000 A 
ATOM     22  C   UNL     1       7.587   2.913  11.900  0.00  0.00    +0.000 A 
ATOM     23  C   UNL     1       7.224   1.863  11.049  0.00  0.00    +0.000 A 
ATOM     24  C   UNL     1       5.879   1.577  10.833  0.00  0.00    +0.000 A 
ATOM     25  C   UNL     1       4.895   2.338  11.459  0.00  0.00    +0.000 A 
ATOM     26  C   UNL     1       5.253   3.389  12.308  0.00  0.00    +0.000 A 
ENDBRANCH  20  21
ENDBRANCH   5  20
TORSDOF 4
ENDMDL
MODEL 9
REMARK VINA RESULT:      -7.1      3.259      5.137
REMARK  Name = 
REMARK  5 active torsions:
REMARK  status: ('A' for Active; 'I' for Inactive)
REMARK    1  A    between atoms: C_1  and  O_2
REMARK    2  A    between atoms: O_2  and  C_3
REMARK    3  A    between atoms: C_8  and  C_9
REMARK    4  A    between atoms: N_13  and  C_14
REMARK    5  A    between atoms: C_14  and  C_15
REMARK                            x       y       z     vdW  Elec       q    Type
REMARK                         _______ _______ _______ _____ _____    ______ ____
ROOT
ATOM      1  C   UNL     1       2.351   7.625  18.825  0.00  0.00    +0.000 A 
ATOM      2  C   UNL     1       1.735   8.796  18.421  0.00  0.00    +0.000 A 
ATOM      3  C   UNL     1       0.952   9.426  19.449  0.00  0.00    +0.000 A 
ATOM      4  C   UNL     1       0.159  10.590  19.467  0.00  0.00    +0.000 A 
ATOM      5  N   UNL     1       0.048  11.395  18.335  0.00  0.00    +0.000 N 
ATOM      6  N   UNL     1      -0.515  10.892  20.599  0.00  0.00    +0.000 NA
ATOM      7  C   UNL     1      -0.397  10.073  21.659  0.00  0.00    +0.000 A 
ATOM      8  N   UNL     1       0.357   8.974  21.764  0.00  0.00    +0.000 NA
ATOM      9  C   UNL     1       1.010   8.699  20.622  0.00  0.00    +0.000 A 
ATOM     10  S   UNL     1       2.037   7.353  20.502  0.00  0.00    +0.000 S 
ATOM     11  H   UNL     1       0.807  11.243  17.681  0.00  0.00    +0.000 HD
ENDROOT
BRANCH   1  17
ATOM     12  C   UNL     1       2.882   5.287  17.944  0.00  0.00    +0.000 A 
ATOM     13  C   UNL     1       3.685   4.457  17.143  0.00  0.00    +0.000 A 
ATOM     14  C   UNL     1       4.809   4.956  16.492  0.00  0.00    +0.000 A 
ATOM     15  C   UNL     1       5.144   6.295  16.629  0.00  0.00    +0.000 A 
ATOM     16  C   UNL     1       4.336   7.138  17.390  0.00  0.00    +0.000 A 
ATOM     17  C   UNL     1       3.173   6.669  18.041  0.00  0.00    +0.000 A 
BRANCH  12  19
ATOM     18  C   UNL     1       1.462   3.428  18.319  0.00  0.00    +0.000 C 
ATOM     19  O   UNL     1       1.783   4.790  18.608  0.00  0.00    +0.000 OA
ENDBRANCH  12  19
ENDBRANCH   1  17
BRANCH   5  20
ATOM     20  C   UNL     1      -0.218  12.801  18.577  0.00  0.00    +0.000 C 
BRANCH  20  21
ATOM     21  C   UNL     1       1.097  13.553  18.557  0.00  0.00    +0.000 A 
ATOM     22  C   UNL     1       1.149  14.897  18.957  0.00  0.00    +0.000 A 
ATOM     23  C   UNL     1       2.360  15.599  18.937  0.00  0.00    +0.000 A 
ATOM     24  C   UNL     1       3.524  14.963  18.515  0.00  0.00    +0.000 A 
ATOM     25  C   UNL     1       3.484  13.632  18.110  0.00  0.00    +0.000 A 
ATOM     26  C   UNL     1       2.277  12.927  18.127  0.00  0.00    +0.000 A 
ENDBRANCH  20  21
ENDBRANCH   5  20
TORSDOF 4
ENDMDL
