MODEL 1
REMARK VINA RESULT:      -8.7      0.000      0.000
REMARK  Name = 
REMARK  4 active torsions:
REMARK  status: ('A' for Active; 'I' for Inactive)
REMARK    1  A    between atoms: C_4  and  N_5
REMARK    2  A    between atoms: C_13  and  C_14
REMARK    3  A    between atoms: N_16  and  C_17
REMARK    4  A    between atoms: C_17  and  C_18
REMARK                            x       y       z     vdW  Elec       q    Type
REMARK                         _______ _______ _______ _____ _____    ______ ____
ROOT
ATOM      1  O   UNL     1       1.106   3.460  21.340  0.00  0.00    +0.000 OA
ATOM      2  C   UNL     1       1.697   4.090  20.471  0.00  0.00    +0.000 A 
ATOM      3  C   UNL     1       1.608   5.566  20.420  0.00  0.00    +0.000 A 
ATOM      4  C   UNL     1       2.200   6.260  19.428  0.00  0.00    +0.000 A 
ATOM      5  N   UNL     1       2.893   5.588  18.449  0.00  0.00    +0.000 N 
ATOM      6  C   UNL     1       3.182   4.210  18.497  0.00  0.00    +0.000 A 
ATOM      7  C   UNL     1       4.007   3.582  17.541  0.00  0.00    +0.000 A 
ATOM      8  C   UNL     1       4.155   2.182  17.573  0.00  0.00    +0.000 A 
ATOM      9  C   UNL     1       3.501   1.412  18.535  0.00  0.00    +0.000 A 
ATOM     10  C   UNL     1       2.697   2.028  19.486  0.00  0.00    +0.000 A 
ATOM     11  C   UNL     1       2.540   3.417  19.461  0.00  0.00    +0.000 A 
ATOM     12  H   UNL     1       3.537   6.154  17.905  0.00  0.00    +0.000 HD
ENDROOT
BRANCH   4  13
ATOM     13  N   UNL     1       2.137   7.650  19.372  0.00  0.00    +0.000 N 
ATOM     14  C   UNL     1       1.711   8.491  20.510  0.00  0.00    +0.000 C 
ATOM     15  C   UNL     1       0.617   9.474  20.067  0.00  0.00    +0.000 C 
ATOM     16  O   UNL     1       1.036  10.261  18.938  0.00  0.00    +0.000 OA
ATOM     17  C   UNL     1       1.373   9.403  17.836  0.00  0.00    +0.000 C 
ATOM     18  C   UNL     1       2.525   8.454  18.199  0.00  0.00    +0.000 C 
ENDBRANCH   4  13
BRANCH   7  19
ATOM     19  C   UNL     1       4.733   4.346  16.542  0.00  0.00    +0.000 A 
ATOM     20  C   UNL     1       5.447   3.836  15.480  0.00  0.00    +0.000 A 
ATOM     21  N   UNL     1       5.959   4.941  14.868  0.00  0.00    +0.000 N 
ATOM     22  N   UNL     1       5.548   6.073  15.476  0.00  0.00    +0.000 NA
ATOM     23  N   UNL     1       4.805   5.716  16.516  0.00  0.00    +0.000 NA
BRANCH  21  24
ATOM     24  C   UNL     1       6.737   4.995  13.642  0.00  0.00    +0.000 C 
BRANCH  24  25
ATOM     25  C   UNL     1       6.373   3.896  12.672  0.00  0.00    +0.000 A 
ATOM     26  C   UNL     1       7.358   3.036  12.165  0.00  0.00    +0.000 A 
ATOM     27  C   UNL     1       7.011   1.978  11.322  0.00  0.00    +0.000 A 
ATOM     28  C   UNL     1       5.677   1.763  10.981  0.00  0.00    +0.000 A 
ATOM     29  C   UNL     1       4.690   2.614  11.473  0.00  0.00    +0.000 A 
ATOM     30  C   UNL     1       5.035   3.675  12.311  0.00  0.00    +0.000 A 
ENDBRANCH  24  25
ENDBRANCH  21  24
ENDBRANCH   7  19
TORSDOF 4
ENDMDL
MODEL 2
REMARK VINA RESULT:      -8.6      4.688      7.494
REMARK  Name = 
REMARK  4 active torsions:
REMARK  status: ('A' for Active; 'I' for Inactive)
REMARK    1  A    between atoms: C_4  and  N_5
REMARK    2  A    between atoms: C_13  and  C_14
REMARK    3  A    between atoms: N_16  and  C_17
REMARK    4  A    between atoms: C_17  and  C_18
REMARK                            x       y       z     vdW  Elec       q    Type
REMARK                         _______ _______ _______ _____ _____    ______ ____
ROOT
ATOM      1  O   UNL     1      -1.015  13.322  23.141  0.00  0.00    +0.000 OA
ATOM      2  C   UNL     1      -0.420  12.845  22.183  0.00  0.00    +0.000 A 
ATOM      3  C   UNL     1       0.211  13.724  21.175  0.00  0.00    +0.000 A 
ATOM      4  C   UNL     1       0.809  13.207  20.084  0.00  0.00    +0.000 A 
ATOM      5  N   UNL     1       0.831  11.844  19.904  0.00  0.00    +0.000 N 
ATOM      6  C   UNL     1       0.415  10.916  20.878  0.00  0.00    +0.000 A 
ATOM      7  C   UNL     1       0.573   9.525  20.708  0.00  0.00    +0.000 A 
ATOM      8  C   UNL     1       0.025   8.648  21.662  0.00  0.00    +0.000 A 
ATOM      9  C   UNL     1      -0.669   9.134  22.771  0.00  0.00    +0.000 A 
ATOM     10  C   UNL     1      -0.818  10.504  22.948  0.00  0.00    +0.000 A 
ATOM     11  C   UNL     1      -0.281  11.384  22.005  0.00  0.00    +0.000 A 
ATOM     12  H   UNL     1       1.517  11.504  19.237  0.00  0.00    +0.000 HD
ENDROOT
BRANCH   4  13
ATOM     13  N   UNL     1       1.419  14.020  19.131  0.00  0.00    +0.000 N 
ATOM     14  C   UNL     1       2.426  13.528  18.168  0.00  0.00    +0.000 C 
ATOM     15  C   UNL     1       3.674  14.423  18.197  0.00  0.00    +0.000 C 
ATOM     16  O   UNL     1       3.342  15.804  17.975  0.00  0.00    +0.000 OA
ATOM     17  C   UNL     1       2.415  16.256  18.976  0.00  0.00    +0.000 C 
ATOM     18  C   UNL     1       1.109  15.447  18.934  0.00  0.00    +0.000 C 
ENDBRANCH   4  13
BRANCH   7  19
ATOM     19  C   UNL     1       1.317   8.976  19.588  0.00  0.00    +0.000 A 
ATOM     20  C   UNL     1       2.141   7.872  19.615  0.00  0.00    +0.000 A 
ATOM     21  N   UNL     1       2.620   7.789  18.342  0.00  0.00    +0.000 N 
ATOM     22  N   UNL     1       2.088   8.745  17.554  0.00  0.00    +0.000 NA
ATOM     23  N   UNL     1       1.296   9.490  18.316  0.00  0.00    +0.000 NA
BRANCH  21  24
ATOM     24  C   UNL     1       3.480   6.760  17.784  0.00  0.00    +0.000 C 
BRANCH  24  25
ATOM     25  C   UNL     1       3.072   5.368  18.204  0.00  0.00    +0.000 A 
ATOM     26  C   UNL     1       3.901   4.601  19.037  0.00  0.00    +0.000 A 
ATOM     27  C   UNL     1       3.492   3.341  19.479  0.00  0.00    +0.000 A 
ATOM     28  C   UNL     1       2.250   2.836  19.102  0.00  0.00    +0.000 A 
ATOM     29  C   UNL     1       1.420   3.585  18.271  0.00  0.00    +0.000 A 
ATOM     30  C   UNL     1       1.829   4.841  17.822  0.00  0.00    +0.000 A 
ENDBRANCH  24  25
ENDBRANCH  21  24
ENDBRANCH   7  19
TORSDOF 4
ENDMDL
MODEL 3
REMARK VINA RESULT:      -8.6      2.765      7.905
REMARK  Name = 
REMARK  4 active torsions:
REMARK  status: ('A' for Active; 'I' for Inactive)
REMARK    1  A    between atoms: C_4  and  N_5
REMARK    2  A    between atoms: C_13  and  C_14
REMARK    3  A    between atoms: N_16  and  C_17
REMARK    4  A    between atoms: C_17  and  C_18
REMARK                            x       y       z     vdW  Elec       q    Type
REMARK                         _______ _______ _______ _____ _____    ______ ____
ROOT
ATOM      1  O   UNL     1       3.686   0.924  18.403  0.00  0.00    +0.000 OA
ATOM      2  C   UNL     1       3.644   2.148  18.379  0.00  0.00    +0.000 A 
ATOM      3  C   UNL     1       4.495   2.912  17.440  0.00  0.00    +0.000 A 
ATOM      4  C   UNL     1       4.504   4.259  17.455  0.00  0.00    +0.000 A 
ATOM      5  N   UNL     1       3.714   4.933  18.357  0.00  0.00    +0.000 N 
ATOM      6  C   UNL     1       2.746   4.312  19.171  0.00  0.00    +0.000 A 
ATOM      7  C   UNL     1       1.865   5.052  19.987  0.00  0.00    +0.000 A 
ATOM      8  C   UNL     1       1.007   4.368  20.869  0.00  0.00    +0.000 A 
ATOM      9  C   UNL     1       1.015   2.974  20.944  0.00  0.00    +0.000 A 
ATOM     10  C   UNL     1       1.873   2.243  20.133  0.00  0.00    +0.000 A 
ATOM     11  C   UNL     1       2.732   2.911  19.257  0.00  0.00    +0.000 A 
ATOM     12  H   UNL     1       3.547   5.911  18.143  0.00  0.00    +0.000 HD
ENDROOT
BRANCH   4  13
ATOM     13  N   UNL     1       5.289   4.994  16.570  0.00  0.00    +0.000 N 
ATOM     14  C   UNL     1       5.564   4.569  15.182  0.00  0.00    +0.000 C 
ATOM     15  C   UNL     1       7.074   4.604  14.902  0.00  0.00    +0.000 C 
ATOM     16  O   UNL     1       7.637   5.895  15.195  0.00  0.00    +0.000 OA
ATOM     17  C   UNL     1       7.405   6.234  16.572  0.00  0.00    +0.000 C 
ATOM     18  C   UNL     1       5.903   6.296  16.886  0.00  0.00    +0.000 C 
ENDBRANCH   4  13
BRANCH   7  19
ATOM     19  C   UNL     1       1.799   6.501  19.918  0.00  0.00    +0.000 A 
ATOM     20  C   UNL     1       1.273   7.342  20.873  0.00  0.00    +0.000 A 
ATOM     21  N   UNL     1       1.416   8.585  20.331  0.00  0.00    +0.000 N 
ATOM     22  N   UNL     1       2.042   8.529  19.137  0.00  0.00    +0.000 NA
ATOM     23  N   UNL     1       2.268   7.249  18.868  0.00  0.00    +0.000 NA
BRANCH  21  24
ATOM     24  C   UNL     1       1.096   9.862  20.945  0.00  0.00    +0.000 C 
BRANCH  24  25
ATOM     25  C   UNL     1       0.419  10.814  19.990  0.00  0.00    +0.000 A 
ATOM     26  C   UNL     1      -0.862  10.535  19.490  0.00  0.00    +0.000 A 
ATOM     27  C   UNL     1      -1.516  11.449  18.660  0.00  0.00    +0.000 A 
ATOM     28  C   UNL     1      -0.903  12.654  18.327  0.00  0.00    +0.000 A 
ATOM     29  C   UNL     1       0.371  12.942  18.812  0.00  0.00    +0.000 A 
ATOM     30  C   UNL     1       1.029  12.028  19.635  0.00  0.00    +0.000 A 
ENDBRANCH  24  25
ENDBRANCH  21  24
ENDBRANCH   7  19
TORSDOF 4
ENDMDL
MODEL 4
REMARK VINA RESULT:      -8.4      2.636      7.992
REMARK  Name = 
REMARK  4 active torsions:
REMARK  status: ('A' for Active; 'I' for Inactive)
REMARK    1  A    between atoms: C_4  and  N_5
REMARK    2  A    between atoms: C_13  and  C_14
REMARK    3  A    between atoms: N_16  and  C_17
REMARK    4  A    between atoms: C_17  and  C_18
REMARK                            x       y       z     vdW  Elec       q    Type
REMARK                         _______ _______ _______ _____ _____    ______ ____
ROOT
ATOM      1  O   UNL     1       3.732   1.044  18.608  0.00  0.00    +0.000 OA
ATOM      2  C   UNL     1       3.680   2.262  18.488  0.00  0.00    +0.000 A 
ATOM      3  C   UNL     1       4.481   2.951  17.452  0.00  0.00    +0.000 A 
ATOM      4  C   UNL     1       4.479   4.295  17.358  0.00  0.00    +0.000 A 
ATOM      5  N   UNL     1       3.726   5.037  18.238  0.00  0.00    +0.000 N 
ATOM      6  C   UNL     1       2.802   4.480  19.144  0.00  0.00    +0.000 A 
ATOM      7  C   UNL     1       1.954   5.279  19.938  0.00  0.00    +0.000 A 
ATOM      8  C   UNL     1       1.143   4.666  20.911  0.00  0.00    +0.000 A 
ATOM      9  C   UNL     1       1.165   3.283  21.098  0.00  0.00    +0.000 A 
ATOM     10  C   UNL     1       1.991   2.491  20.309  0.00  0.00    +0.000 A 
ATOM     11  C   UNL     1       2.803   3.090  19.343  0.00  0.00    +0.000 A 
ATOM     12  H   UNL     1       3.542   5.994  17.954  0.00  0.00    +0.000 HD
ENDROOT
BRANCH   4  13
ATOM     13  N   UNL     1       5.218   4.959  16.381  0.00  0.00    +0.000 N 
ATOM     14  C   UNL     1       5.261   4.534  14.966  0.00  0.00    +0.000 C 
ATOM     15  C   UNL     1       6.717   4.415  14.490  0.00  0.00    +0.000 C 
ATOM     16  O   UNL     1       7.449   5.632  14.713  0.00  0.00    +0.000 OA
ATOM     17  C   UNL     1       7.437   5.967  16.110  0.00  0.00    +0.000 C 
ATOM     18  C   UNL     1       6.004   6.182  16.620  0.00  0.00    +0.000 C 
ENDBRANCH   4  13
BRANCH   7  19
ATOM     19  C   UNL     1       1.873   6.718  19.755  0.00  0.00    +0.000 A 
ATOM     20  C   UNL     1       1.285   7.620  20.614  0.00  0.00    +0.000 A 
ATOM     21  N   UNL     1       1.443   8.820  19.988  0.00  0.00    +0.000 N 
ATOM     22  N   UNL     1       2.133   8.686  18.837  0.00  0.00    +0.000 NA
ATOM     23  N   UNL     1       2.390   7.393  18.679  0.00  0.00    +0.000 NA
BRANCH  21  24
ATOM     24  C   UNL     1       1.073  10.134  20.484  0.00  0.00    +0.000 C 
BRANCH  24  25
ATOM     25  C   UNL     1      -0.207  10.650  19.873  0.00  0.00    +0.000 A 
ATOM     26  C   UNL     1      -0.886  11.736  20.446  0.00  0.00    +0.000 A 
ATOM     27  C   UNL     1      -2.033  12.256  19.841  0.00  0.00    +0.000 A 
ATOM     28  C   UNL     1      -2.510  11.704  18.655  0.00  0.00    +0.000 A 
ATOM     29  C   UNL     1      -1.849  10.622  18.078  0.00  0.00    +0.000 A 
ATOM     30  C   UNL     1      -0.707  10.096  18.684  0.00  0.00    +0.000 A 
ENDBRANCH  24  25
ENDBRANCH  21  24
ENDBRANCH   7  19
TORSDOF 4
ENDMDL
MODEL 5
REMARK VINA RESULT:      -8.3      2.694      7.613
REMARK  Name = 
REMARK  4 active torsions:
REMARK  status: ('A' for Active; 'I' for Inactive)
REMARK    1  A    between atoms: C_4  and  N_5
REMARK    2  A    between atoms: C_13  and  C_14
REMARK    3  A    between atoms: N_16  and  C_17
REMARK    4  A    between atoms: C_17  and  C_18
REMARK                            x       y       z     vdW  Elec       q    Type
REMARK                         _______ _______ _______ _____ _____    ______ ____
ROOT
ATOM      1  O   UNL     1       3.697   0.913  18.446  0.00  0.00    +0.000 OA
ATOM      2  C   UNL     1       3.655   2.136  18.385  0.00  0.00    +0.000 A 
ATOM      3  C   UNL     1       4.495   2.870  17.415  0.00  0.00    +0.000 A 
ATOM      4  C   UNL     1       4.503   4.217  17.389  0.00  0.00    +0.000 A 
ATOM      5  N   UNL     1       3.723   4.919  18.277  0.00  0.00    +0.000 N 
ATOM      6  C   UNL     1       2.764   4.323  19.120  0.00  0.00    +0.000 A 
ATOM      7  C   UNL     1       1.891   5.087  19.923  0.00  0.00    +0.000 A 
ATOM      8  C   UNL     1       1.042   4.430  20.833  0.00  0.00    +0.000 A 
ATOM      9  C   UNL     1       1.051   3.039  20.951  0.00  0.00    +0.000 A 
ATOM     10  C   UNL     1       1.902   2.283  20.154  0.00  0.00    +0.000 A 
ATOM     11  C   UNL     1       2.751   2.925  19.249  0.00  0.00    +0.000 A 
ATOM     12  H   UNL     1       3.553   5.890  18.035  0.00  0.00    +0.000 HD
ENDROOT
BRANCH   4  13
ATOM     13  N   UNL     1       5.279   4.925  16.474  0.00  0.00    +0.000 N 
ATOM     14  C   UNL     1       5.545   4.455  15.098  0.00  0.00    +0.000 C 
ATOM     15  C   UNL     1       7.053   4.487  14.805  0.00  0.00    +0.000 C 
ATOM     16  O   UNL     1       7.613   5.788  15.050  0.00  0.00    +0.000 OA
ATOM     17  C   UNL     1       7.391   6.172  16.417  0.00  0.00    +0.000 C 
ATOM     18  C   UNL     1       5.890   6.239  16.741  0.00  0.00    +0.000 C 
ENDBRANCH   4  13
BRANCH   7  19
ATOM     19  C   UNL     1       1.824   6.533  19.810  0.00  0.00    +0.000 A 
ATOM     20  C   UNL     1       1.975   7.272  18.658  0.00  0.00    +0.000 A 
ATOM     21  N   UNL     1       1.858   8.563  19.079  0.00  0.00    +0.000 N 
ATOM     22  N   UNL     1       1.597   8.627  20.400  0.00  0.00    +0.000 NA
ATOM     23  N   UNL     1       1.588   7.382  20.862  0.00  0.00    +0.000 NA
BRANCH  21  24
ATOM     24  C   UNL     1       1.862   9.765  18.263  0.00  0.00    +0.000 C 
BRANCH  24  25
ATOM     25  C   UNL     1       0.545  10.502  18.304  0.00  0.00    +0.000 A 
ATOM     26  C   UNL     1      -0.637   9.877  17.878  0.00  0.00    +0.000 A 
ATOM     27  C   UNL     1      -1.865  10.536  17.980  0.00  0.00    +0.000 A 
ATOM     28  C   UNL     1      -1.927  11.821  18.515  0.00  0.00    +0.000 A 
ATOM     29  C   UNL     1      -0.761  12.455  18.935  0.00  0.00    +0.000 A 
ATOM     30  C   UNL     1       0.468  11.802  18.828  0.00  0.00    +0.000 A 
ENDBRANCH  24  25
ENDBRANCH  21  24
ENDBRANCH   7  19
TORSDOF 4
ENDMDL
MODEL 6
REMARK VINA RESULT:      -8.3      3.355      7.647
REMARK  Name = 
REMARK  4 active torsions:
REMARK  status: ('A' for Active; 'I' for Inactive)
REMARK    1  A    between atoms: C_4  and  N_5
REMARK    2  A    between atoms: C_13  and  C_14
REMARK    3  A    between atoms: N_16  and  C_17
REMARK    4  A    between atoms: C_17  and  C_18
REMARK                            x       y       z     vdW  Elec       q    Type
REMARK                         _______ _______ _______ _____ _____    ______ ____
ROOT
ATOM      1  O   UNL     1       4.509   1.501  20.379  0.00  0.00    +0.000 OA
ATOM      2  C   UNL     1       4.455   2.653  19.965  0.00  0.00    +0.000 A 
ATOM      3  C   UNL     1       5.583   3.235  19.207  0.00  0.00    +0.000 A 
ATOM      4  C   UNL     1       5.557   4.521  18.807  0.00  0.00    +0.000 A 
ATOM      5  N   UNL     1       4.469   5.305  19.111  0.00  0.00    +0.000 N 
ATOM      6  C   UNL     1       3.277   4.809  19.675  0.00  0.00    +0.000 A 
ATOM      7  C   UNL     1       2.136   5.618  19.851  0.00  0.00    +0.000 A 
ATOM      8  C   UNL     1       1.021   5.096  20.532  0.00  0.00    +0.000 A 
ATOM      9  C   UNL     1       1.028   3.793  21.032  0.00  0.00    +0.000 A 
ATOM     10  C   UNL     1       2.146   2.989  20.849  0.00  0.00    +0.000 A 
ATOM     11  C   UNL     1       3.261   3.498  20.178  0.00  0.00    +0.000 A 
ATOM     12  H   UNL     1       4.376   6.153  18.561  0.00  0.00    +0.000 HD
ENDROOT
BRANCH   4  13
ATOM     13  N   UNL     1       6.606   5.081  18.081  0.00  0.00    +0.000 N 
ATOM     14  C   UNL     1       7.418   6.215  18.570  0.00  0.00    +0.000 C 
ATOM     15  C   UNL     1       7.484   7.322  17.507  0.00  0.00    +0.000 C 
ATOM     16  O   UNL     1       7.959   6.818  16.246  0.00  0.00    +0.000 OA
ATOM     17  C   UNL     1       7.099   5.766  15.778  0.00  0.00    +0.000 C 
ATOM     18  C   UNL     1       7.064   4.592  16.769  0.00  0.00    +0.000 C 
ENDBRANCH   4  13
BRANCH   7  19
ATOM     19  C   UNL     1       2.071   6.968  19.319  0.00  0.00    +0.000 A 
ATOM     20  C   UNL     1       1.437   8.046  19.898  0.00  0.00    +0.000 A 
ATOM     21  N   UNL     1       1.635   9.059  19.007  0.00  0.00    +0.000 N 
ATOM     22  N   UNL     1       2.390   8.656  17.965  0.00  0.00    +0.000 NA
ATOM     23  N   UNL     1       2.651   7.366  18.141  0.00  0.00    +0.000 NA
BRANCH  21  24
ATOM     24  C   UNL     1       1.242  10.451  19.147  0.00  0.00    +0.000 C 
BRANCH  24  25
ATOM     25  C   UNL     1      -0.217  10.679  18.833  0.00  0.00    +0.000 A 
ATOM     26  C   UNL     1      -0.965  11.621  19.556  0.00  0.00    +0.000 A 
ATOM     27  C   UNL     1      -2.295  11.881  19.219  0.00  0.00    +0.000 A 
ATOM     28  C   UNL     1      -2.891  11.210  18.154  0.00  0.00    +0.000 A 
ATOM     29  C   UNL     1      -2.162  10.268  17.432  0.00  0.00    +0.000 A 
ATOM     30  C   UNL     1      -0.835  10.002  17.770  0.00  0.00    +0.000 A 
ENDBRANCH  24  25
ENDBRANCH  21  24
ENDBRANCH   7  19
TORSDOF 4
ENDMDL
MODEL 7
REMARK VINA RESULT:      -8.2      2.755      7.889
REMARK  Name = 
REMARK  4 active torsions:
REMARK  status: ('A' for Active; 'I' for Inactive)
REMARK    1  A    between atoms: C_4  and  N_5
REMARK    2  A    between atoms: C_13  and  C_14
REMARK    3  A    between atoms: N_16  and  C_17
REMARK    4  A    between atoms: C_17  and  C_18
REMARK                            x       y       z     vdW  Elec       q    Type
REMARK                         _______ _______ _______ _____ _____    ______ ____
ROOT
ATOM      1  O   UNL     1       4.245   1.600  19.235  0.00  0.00    +0.000 OA
ATOM      2  C   UNL     1       4.119   2.742  18.810  0.00  0.00    +0.000 A 
ATOM      3  C   UNL     1       4.806   3.164  17.569  0.00  0.00    +0.000 A 
ATOM      4  C   UNL     1       4.725   4.436  17.133  0.00  0.00    +0.000 A 
ATOM      5  N   UNL     1       3.998   5.356  17.851  0.00  0.00    +0.000 N 
ATOM      6  C   UNL     1       3.171   5.023  18.943  0.00  0.00    +0.000 A 
ATOM      7  C   UNL     1       2.340   5.973  19.572  0.00  0.00    +0.000 A 
ATOM      8  C   UNL     1       1.634   5.607  20.734  0.00  0.00    +0.000 A 
ATOM      9  C   UNL     1       1.744   4.323  21.268  0.00  0.00    +0.000 A 
ATOM     10  C   UNL     1       2.554   3.381  20.644  0.00  0.00    +0.000 A 
ATOM     11  C   UNL     1       3.262   3.734  19.492  0.00  0.00    +0.000 A 
ATOM     12  H   UNL     1       3.742   6.199  17.347  0.00  0.00    +0.000 HD
ENDROOT
BRANCH   4  13
ATOM     13  N   UNL     1       5.355   4.847  15.961  0.00  0.00    +0.000 N 
ATOM     14  C   UNL     1       4.904   4.445  14.612  0.00  0.00    +0.000 C 
ATOM     15  C   UNL     1       6.082   3.882  13.801  0.00  0.00    +0.000 C 
ATOM     16  O   UNL     1       7.182   4.808  13.752  0.00  0.00    +0.000 OA
ATOM     17  C   UNL     1       7.629   5.115  15.082  0.00  0.00    +0.000 C 
ATOM     18  C   UNL     1       6.510   5.761  15.913  0.00  0.00    +0.000 C 
ENDBRANCH   4  13
BRANCH   7  19
ATOM     19  C   UNL     1       2.169   7.310  19.033  0.00  0.00    +0.000 A 
ATOM     20  C   UNL     1       1.521   8.362  19.643  0.00  0.00    +0.000 A 
ATOM     21  N   UNL     1       1.604   9.372  18.731  0.00  0.00    +0.000 N 
ATOM     22  N   UNL     1       2.307   8.994  17.644  0.00  0.00    +0.000 NA
ATOM     23  N   UNL     1       2.646   7.722  17.814  0.00  0.00    +0.000 NA
BRANCH  21  24
ATOM     24  C   UNL     1       1.150  10.743  18.884  0.00  0.00    +0.000 C 
BRANCH  24  25
ATOM     25  C   UNL     1      -0.325  10.904  18.609  0.00  0.00    +0.000 A 
ATOM     26  C   UNL     1      -0.981  10.049  17.709  0.00  0.00    +0.000 A 
ATOM     27  C   UNL     1      -2.359  10.155  17.506  0.00  0.00    +0.000 A 
ATOM     28  C   UNL     1      -3.098  11.107  18.204  0.00  0.00    +0.000 A 
ATOM     29  C   UNL     1      -2.459  11.966  19.095  0.00  0.00    +0.000 A 
ATOM     30  C   UNL     1      -1.081  11.867  19.295  0.00  0.00    +0.000 A 
ENDBRANCH  24  25
ENDBRANCH  21  24
ENDBRANCH   7  19
TORSDOF 4
ENDMDL
MODEL 8
REMARK VINA RESULT:      -8.0      2.589      8.354
REMARK  Name = 
REMARK  4 active torsions:
REMARK  status: ('A' for Active; 'I' for Inactive)
REMARK    1  A    between atoms: C_4  and  N_5
REMARK    2  A    between atoms: C_13  and  C_14
REMARK    3  A    between atoms: N_16  and  C_17
REMARK    4  A    between atoms: C_17  and  C_18
REMARK                            x       y       z     vdW  Elec       q    Type
REMARK                         _______ _______ _______ _____ _____    ______ ____
ROOT
ATOM      1  O   UNL     1       3.717   1.051  18.551  0.00  0.00    +0.000 OA
ATOM      2  C   UNL     1       3.683   2.260  18.357  0.00  0.00    +0.000 A 
ATOM      3  C   UNL     1       4.501   2.874  17.289  0.00  0.00    +0.000 A 
ATOM      4  C   UNL     1       4.520   4.210  17.114  0.00  0.00    +0.000 A 
ATOM      5  N   UNL     1       3.771   5.013  17.942  0.00  0.00    +0.000 N 
ATOM      6  C   UNL     1       2.833   4.525  18.872  0.00  0.00    +0.000 A 
ATOM      7  C   UNL     1       1.991   5.382  19.610  0.00  0.00    +0.000 A 
ATOM      8  C   UNL     1       1.163   4.839  20.611  0.00  0.00    +0.000 A 
ATOM      9  C   UNL     1       1.164   3.470  20.881  0.00  0.00    +0.000 A 
ATOM     10  C   UNL     1       1.985   2.621  20.148  0.00  0.00    +0.000 A 
ATOM     11  C   UNL     1       2.813   3.149  19.154  0.00  0.00    +0.000 A 
ATOM     12  H   UNL     1       3.602   5.954  17.599  0.00  0.00    +0.000 HD
ENDROOT
BRANCH   4  13
ATOM     13  N   UNL     1       5.274   4.804  16.105  0.00  0.00    +0.000 N 
ATOM     14  C   UNL     1       5.247   4.354  14.698  0.00  0.00    +0.000 C 
ATOM     15  C   UNL     1       6.677   4.124  14.184  0.00  0.00    +0.000 C 
ATOM     16  O   UNL     1       7.499   5.291  14.364  0.00  0.00    +0.000 OA
ATOM     17  C   UNL     1       7.550   5.649  15.755  0.00  0.00    +0.000 C 
ATOM     18  C   UNL     1       6.151   5.973  16.300  0.00  0.00    +0.000 C 
ENDBRANCH   4  13
BRANCH   7  19
ATOM     19  C   UNL     1       1.931   6.808  19.341  0.00  0.00    +0.000 A 
ATOM     20  C   UNL     1       1.696   7.805  20.262  0.00  0.00    +0.000 A 
ATOM     21  N   UNL     1       1.708   8.947  19.518  0.00  0.00    +0.000 N 
ATOM     22  N   UNL     1       1.987   8.688  18.224  0.00  0.00    +0.000 NA
ATOM     23  N   UNL     1       2.112   7.372  18.103  0.00  0.00    +0.000 NA
BRANCH  21  24
ATOM     24  C   UNL     1       1.586  10.315  19.993  0.00  0.00    +0.000 C 
BRANCH  24  25
ATOM     25  C   UNL     1       0.557  10.463  21.087  0.00  0.00    +0.000 A 
ATOM     26  C   UNL     1       0.491   9.535  22.137  0.00  0.00    +0.000 A 
ATOM     27  C   UNL     1      -0.416   9.711  23.184  0.00  0.00    +0.000 A 
ATOM     28  C   UNL     1      -1.262  10.818  23.199  0.00  0.00    +0.000 A 
ATOM     29  C   UNL     1      -1.211  11.744  22.159  0.00  0.00    +0.000 A 
ATOM     30  C   UNL     1      -0.310  11.567  21.109  0.00  0.00    +0.000 A 
ENDBRANCH  24  25
ENDBRANCH  21  24
ENDBRANCH   7  19
TORSDOF 4
ENDMDL
MODEL 9
REMARK VINA RESULT:      -8.0      4.622      6.390
REMARK  Name = 
REMARK  4 active torsions:
REMARK  status: ('A' for Active; 'I' for Inactive)
REMARK    1  A    between atoms: C_4  and  N_5
REMARK    2  A    between atoms: C_13  and  C_14
REMARK    3  A    between atoms: N_16  and  C_17
REMARK    4  A    between atoms: C_17  and  C_18
REMARK                            x       y       z     vdW  Elec       q    Type
REMARK                         _______ _______ _______ _____ _____    ______ ____
ROOT
ATOM      1  O   UNL     1       1.949   3.720  17.232  0.00  0.00    +0.000 OA
ATOM      2  C   UNL     1       2.635   4.699  17.499  0.00  0.00    +0.000 A 
ATOM      3  C   UNL     1       2.036   5.884  18.150  0.00  0.00    +0.000 A 
ATOM      4  C   UNL     1       2.770   6.989  18.386  0.00  0.00    +0.000 A 
ATOM      5  N   UNL     1       4.094   7.017  18.013  0.00  0.00    +0.000 N 
ATOM      6  C   UNL     1       4.802   5.892  17.546  0.00  0.00    +0.000 A 
ATOM      7  C   UNL     1       6.189   5.928  17.298  0.00  0.00    +0.000 A 
ATOM      8  C   UNL     1       6.813   4.809  16.715  0.00  0.00    +0.000 A 
ATOM      9  C   UNL     1       6.081   3.669  16.383  0.00  0.00    +0.000 A 
ATOM     10  C   UNL     1       4.716   3.625  16.637  0.00  0.00    +0.000 A 
ATOM     11  C   UNL     1       4.085   4.732  17.212  0.00  0.00    +0.000 A 
ATOM     12  H   UNL     1       4.655   7.738  18.455  0.00  0.00    +0.000 HD
ENDROOT
BRANCH   4  13
ATOM     13  N   UNL     1       2.225   8.108  19.010  0.00  0.00    +0.000 N 
ATOM     14  C   UNL     1       1.865   8.145  20.443  0.00  0.00    +0.000 C 
ATOM     15  C   UNL     1       0.425   8.651  20.618  0.00  0.00    +0.000 C 
ATOM     16  O   UNL     1       0.228   9.924  19.977  0.00  0.00    +0.000 OA
ATOM     17  C   UNL     1       0.524   9.820  18.574  0.00  0.00    +0.000 C 
ATOM     18  C   UNL     1       1.983   9.398  18.341  0.00  0.00    +0.000 C 
ENDBRANCH   4  13
BRANCH   7  19
ATOM     19  C   UNL     1       6.997   7.080  17.658  0.00  0.00    +0.000 A 
ATOM     20  C   UNL     1       6.833   8.370  17.202  0.00  0.00    +0.000 A 
ATOM     21  N   UNL     1       7.845   9.060  17.800  0.00  0.00    +0.000 N 
ATOM     22  N   UNL     1       8.563   8.266  18.620  0.00  0.00    +0.000 NA
ATOM     23  N   UNL     1       8.058   7.042  18.527  0.00  0.00    +0.000 NA
BRANCH  21  24
ATOM     24  C   UNL     1       8.105  10.488  17.731  0.00  0.00    +0.000 C 
BRANCH  24  25
ATOM     25  C   UNL     1       9.323  10.898  18.524  0.00  0.00    +0.000 A 
ATOM     26  C   UNL     1      10.533  11.188  17.876  0.00  0.00    +0.000 A 
ATOM     27  C   UNL     1      11.639  11.633  18.604  0.00  0.00    +0.000 A 
ATOM     28  C   UNL     1      11.547  11.800  19.984  0.00  0.00    +0.000 A 
ATOM     29  C   UNL     1      10.353  11.510  20.640  0.00  0.00    +0.000 A 
ATOM     30  C   UNL     1       9.249  11.059  19.916  0.00  0.00    +0.000 A 
ENDBRANCH  24  25
ENDBRANCH  21  24
ENDBRANCH   7  19
TORSDOF 4
ENDMDL
