MODEL 1
REMARK VINA RESULT:      -7.7      0.000      0.000
REMARK  Name = 
REMARK  6 active torsions:
REMARK  status: ('A' for Active; 'I' for Inactive)
REMARK    1  A    between atoms: C_1  and  O_2
REMARK    2  A    between atoms: O_2  and  C_3
REMARK    3  A    between atoms: C_3  and  C_5
REMARK    4  A    between atoms: C_8  and  N_9
REMARK    5  A    between atoms: C_10  and  C_12
REMARK    6  A    between atoms: C_16  and  C_17
REMARK                            x       y       z     vdW  Elec       q    Type
REMARK                         _______ _______ _______ _____ _____    ______ ____
ROOT
ATOM      1  N   UNL     1       2.776   6.499  19.771  0.00  0.00    +0.000 N 
ATOM      2  C   UNL     1       2.475   5.255  19.220  0.00  0.00    +0.000 C 
ATOM      3  O   UNL     1       1.571   5.071  18.413  0.00  0.00    +0.000 OA
ATOM      4  H   UNL     1       3.621   6.563  20.325  0.00  0.00    +0.000 HD
ENDROOT
BRANCH   1   8
ATOM      5  C   UNL     1       0.758  10.167  19.131  0.00  0.00    +0.000 A 
ATOM      6  C   UNL     1       1.494   9.591  18.093  0.00  0.00    +0.000 A 
ATOM      7  C   UNL     1       2.158   8.375  18.281  0.00  0.00    +0.000 A 
ATOM      8  C   UNL     1       2.102   7.713  19.511  0.00  0.00    +0.000 A 
ATOM      9  C   UNL     1       1.342   8.279  20.545  0.00  0.00    +0.000 A 
ATOM     10  C   UNL     1       0.684   9.505  20.360  0.00  0.00    +0.000 A 
BRANCH   5  11
ATOM     11  C   UNL     1       0.075  11.462  18.865  0.00  0.00    +0.000 C 
ATOM     12  O   UNL     1       0.669  12.493  18.578  0.00  0.00    +0.000 OA
BRANCH  11  14
ATOM     13  C   UNL     1      -1.978  11.520  17.759  0.00  0.00    +0.000 C 
ATOM     14  O   UNL     1      -1.266  11.329  18.984  0.00  0.00    +0.000 OA
ENDBRANCH  11  14
ENDBRANCH   5  11
ENDBRANCH   1   8
BRANCH   2  15
ATOM     15  C   UNL     1       3.360   4.185  19.612  0.00  0.00    +0.000 A 
ATOM     16  S   UNL     1       2.787   2.857  20.537  0.00  0.00    +0.000 S 
ATOM     17  N   UNL     1       4.239   2.046  20.472  0.00  0.00    +0.000 NA
ATOM     18  N   UNL     1       5.161   2.702  19.790  0.00  0.00    +0.000 NA
ATOM     19  C   UNL     1       4.691   3.925  19.299  0.00  0.00    +0.000 A 
BRANCH  19  20
ATOM     20  C   UNL     1       5.599   4.792  18.546  0.00  0.00    +0.000 A 
ATOM     21  C   UNL     1       6.658   5.430  19.214  0.00  0.00    +0.000 A 
ATOM     22  C   UNL     1       7.535   6.275  18.528  0.00  0.00    +0.000 A 
ATOM     23  C   UNL     1       7.371   6.494  17.163  0.00  0.00    +0.000 A 
ATOM     24  C   UNL     1       6.317   5.885  16.489  0.00  0.00    +0.000 A 
ATOM     25  C   UNL     1       5.429   5.055  17.178  0.00  0.00    +0.000 A 
ENDBRANCH  19  20
ENDBRANCH   2  15
TORSDOF 5
ENDMDL
MODEL 2
REMARK VINA RESULT:      -7.7      0.637      1.171
REMARK  Name = 
REMARK  6 active torsions:
REMARK  status: ('A' for Active; 'I' for Inactive)
REMARK    1  A    between atoms: C_1  and  O_2
REMARK    2  A    between atoms: O_2  and  C_3
REMARK    3  A    between atoms: C_3  and  C_5
REMARK    4  A    between atoms: C_8  and  N_9
REMARK    5  A    between atoms: C_10  and  C_12
REMARK    6  A    between atoms: C_16  and  C_17
REMARK                            x       y       z     vdW  Elec       q    Type
REMARK                         _______ _______ _______ _____ _____    ______ ____
ROOT
ATOM      1  N   UNL     1       2.665   6.558  20.069  0.00  0.00    +0.000 N 
ATOM      2  C   UNL     1       2.565   5.432  19.255  0.00  0.00    +0.000 C 
ATOM      3  O   UNL     1       1.784   5.342  18.315  0.00  0.00    +0.000 OA
ATOM      4  H   UNL     1       3.431   6.577  20.732  0.00  0.00    +0.000 HD
ENDROOT
BRANCH   1   8
ATOM      5  C   UNL     1       0.360  10.080  19.603  0.00  0.00    +0.000 A 
ATOM      6  C   UNL     1       0.320   9.380  20.811  0.00  0.00    +0.000 A 
ATOM      7  C   UNL     1       1.082   8.222  20.988  0.00  0.00    +0.000 A 
ATOM      8  C   UNL     1       1.896   7.739  19.961  0.00  0.00    +0.000 A 
ATOM      9  C   UNL     1       1.956   8.455  18.757  0.00  0.00    +0.000 A 
ATOM     10  C   UNL     1       1.183   9.612  18.574  0.00  0.00    +0.000 A 
BRANCH   5  11
ATOM     11  C   UNL     1      -0.475  11.305  19.480  0.00  0.00    +0.000 C 
ATOM     12  O   UNL     1      -0.100  12.417  19.828  0.00  0.00    +0.000 OA
BRANCH  11  14
ATOM     13  C   UNL     1      -1.945  11.691  17.711  0.00  0.00    +0.000 C 
ATOM     14  O   UNL     1      -1.680  11.010  18.940  0.00  0.00    +0.000 OA
ENDBRANCH  11  14
ENDBRANCH   5  11
ENDBRANCH   1   8
BRANCH   2  15
ATOM     15  C   UNL     1       3.511   4.382  19.547  0.00  0.00    +0.000 A 
ATOM     16  S   UNL     1       3.006   2.916  20.284  0.00  0.00    +0.000 S 
ATOM     17  N   UNL     1       4.513   2.217  20.174  0.00  0.00    +0.000 NA
ATOM     18  N   UNL     1       5.405   3.011  19.610  0.00  0.00    +0.000 NA
ATOM     19  C   UNL     1       4.865   4.251  19.253  0.00  0.00    +0.000 A 
BRANCH  19  20
ATOM     20  C   UNL     1       5.732   5.262  18.643  0.00  0.00    +0.000 A 
ATOM     21  C   UNL     1       6.996   5.516  19.203  0.00  0.00    +0.000 A 
ATOM     22  C   UNL     1       7.842   6.484  18.654  0.00  0.00    +0.000 A 
ATOM     23  C   UNL     1       7.441   7.211  17.536  0.00  0.00    +0.000 A 
ATOM     24  C   UNL     1       6.186   6.985  16.981  0.00  0.00    +0.000 A 
ATOM     25  C   UNL     1       5.332   6.031  17.541  0.00  0.00    +0.000 A 
ENDBRANCH  19  20
ENDBRANCH   2  15
TORSDOF 5
ENDMDL
MODEL 3
REMARK VINA RESULT:      -7.6      0.604      1.492
REMARK  Name = 
REMARK  6 active torsions:
REMARK  status: ('A' for Active; 'I' for Inactive)
REMARK    1  A    between atoms: C_1  and  O_2
REMARK    2  A    between atoms: O_2  and  C_3
REMARK    3  A    between atoms: C_3  and  C_5
REMARK    4  A    between atoms: C_8  and  N_9
REMARK    5  A    between atoms: C_10  and  C_12
REMARK    6  A    between atoms: C_16  and  C_17
REMARK                            x       y       z     vdW  Elec       q    Type
REMARK                         _______ _______ _______ _____ _____    ______ ____
ROOT
ATOM      1  N   UNL     1       2.703   6.547  19.981  0.00  0.00    +0.000 N 
ATOM      2  C   UNL     1       2.508   5.371  19.260  0.00  0.00    +0.000 C 
ATOM      3  O   UNL     1       1.660   5.243  18.385  0.00  0.00    +0.000 OA
ATOM      4  H   UNL     1       3.514   6.585  20.586  0.00  0.00    +0.000 HD
ENDROOT
BRANCH   1   8
ATOM      5  C   UNL     1       0.492  10.114  19.413  0.00  0.00    +0.000 A 
ATOM      6  C   UNL     1       0.481   9.482  20.659  0.00  0.00    +0.000 A 
ATOM      7  C   UNL     1       1.213   8.311  20.869  0.00  0.00    +0.000 A 
ATOM      8  C   UNL     1       1.968   7.745  19.838  0.00  0.00    +0.000 A 
ATOM      9  C   UNL     1       1.999   8.393  18.595  0.00  0.00    +0.000 A 
ATOM     10  C   UNL     1       1.256   9.563  18.380  0.00  0.00    +0.000 A 
BRANCH   5  11
ATOM     11  C   UNL     1      -0.309  11.358  19.256  0.00  0.00    +0.000 C 
ATOM     12  O   UNL     1      -0.327  12.260  20.083  0.00  0.00    +0.000 OA
BRANCH  11  14
ATOM     13  C   UNL     1      -2.414  11.427  18.255  0.00  0.00    +0.000 C 
ATOM     14  O   UNL     1      -0.997  11.340  18.091  0.00  0.00    +0.000 OA
ENDBRANCH  11  14
ENDBRANCH   5  11
ENDBRANCH   1   8
BRANCH   2  15
ATOM     15  C   UNL     1       3.438   4.309  19.564  0.00  0.00    +0.000 A 
ATOM     16  S   UNL     1       2.906   2.848  20.290  0.00  0.00    +0.000 S 
ATOM     17  N   UNL     1       4.406   2.131  20.201  0.00  0.00    +0.000 NA
ATOM     18  N   UNL     1       5.315   2.915  19.652  0.00  0.00    +0.000 NA
ATOM     19  C   UNL     1       4.795   4.162  19.289  0.00  0.00    +0.000 A 
BRANCH  19  20
ATOM     20  C   UNL     1       5.682   5.164  18.694  0.00  0.00    +0.000 A 
ATOM     21  C   UNL     1       5.285   5.829  17.521  0.00  0.00    +0.000 A 
ATOM     22  C   UNL     1       6.113   6.781  16.919  0.00  0.00    +0.000 A 
ATOM     23  C   UNL     1       7.350   7.086  17.481  0.00  0.00    +0.000 A 
ATOM     24  C   UNL     1       7.767   6.425  18.632  0.00  0.00    +0.000 A 
ATOM     25  C   UNL     1       6.947   5.460  19.223  0.00  0.00    +0.000 A 
ENDBRANCH  19  20
ENDBRANCH   2  15
TORSDOF 5
ENDMDL
MODEL 4
REMARK VINA RESULT:      -7.6      0.580      1.441
REMARK  Name = 
REMARK  6 active torsions:
REMARK  status: ('A' for Active; 'I' for Inactive)
REMARK    1  A    between atoms: C_1  and  O_2
REMARK    2  A    between atoms: O_2  and  C_3
REMARK    3  A    between atoms: C_3  and  C_5
REMARK    4  A    between atoms: C_8  and  N_9
REMARK    5  A    between atoms: C_10  and  C_12
REMARK    6  A    between atoms: C_16  and  C_17
REMARK                            x       y       z     vdW  Elec       q    Type
REMARK                         _______ _______ _______ _____ _____    ______ ____
ROOT
ATOM      1  N   UNL     1       2.726   6.520  19.827  0.00  0.00    +0.000 N 
ATOM      2  C   UNL     1       2.505   5.313  19.167  0.00  0.00    +0.000 C 
ATOM      3  O   UNL     1       1.683   5.171  18.269  0.00  0.00    +0.000 OA
ATOM      4  H   UNL     1       3.516   6.558  20.460  0.00  0.00    +0.000 HD
ENDROOT
BRANCH   1   8
ATOM      5  C   UNL     1       0.707  10.198  19.254  0.00  0.00    +0.000 A 
ATOM      6  C   UNL     1       1.410   9.621  18.194  0.00  0.00    +0.000 A 
ATOM      7  C   UNL     1       2.073   8.402  18.360  0.00  0.00    +0.000 A 
ATOM      8  C   UNL     1       2.050   7.738  19.589  0.00  0.00    +0.000 A 
ATOM      9  C   UNL     1       1.324   8.304  20.646  0.00  0.00    +0.000 A 
ATOM     10  C   UNL     1       0.666   9.533  20.484  0.00  0.00    +0.000 A 
BRANCH   5  11
ATOM     11  C   UNL     1       0.022  11.497  19.011  0.00  0.00    +0.000 C 
ATOM     12  O   UNL     1      -0.900  11.637  18.220  0.00  0.00    +0.000 OA
BRANCH  11  14
ATOM     13  C   UNL     1       1.651  13.160  19.157  0.00  0.00    +0.000 C 
ATOM     14  O   UNL     1       0.562  12.472  19.778  0.00  0.00    +0.000 OA
ENDBRANCH  11  14
ENDBRANCH   5  11
ENDBRANCH   1   8
BRANCH   2  15
ATOM     15  C   UNL     1       3.376   4.232  19.564  0.00  0.00    +0.000 A 
ATOM     16  S   UNL     1       2.771   2.886  20.441  0.00  0.00    +0.000 S 
ATOM     17  N   UNL     1       4.224   2.074  20.406  0.00  0.00    +0.000 NA
ATOM     18  N   UNL     1       5.168   2.743  19.770  0.00  0.00    +0.000 NA
ATOM     19  C   UNL     1       4.716   3.977  19.290  0.00  0.00    +0.000 A 
BRANCH  19  20
ATOM     20  C   UNL     1       5.650   4.859  18.586  0.00  0.00    +0.000 A 
ATOM     21  C   UNL     1       5.506   5.055  17.202  0.00  0.00    +0.000 A 
ATOM     22  C   UNL     1       6.388   5.880  16.498  0.00  0.00    +0.000 A 
ATOM     23  C   UNL     1       7.427   6.523  17.165  0.00  0.00    +0.000 A 
ATOM     24  C   UNL     1       7.596   6.326  18.531  0.00  0.00    +0.000 A 
ATOM     25  C   UNL     1       6.725   5.487  19.232  0.00  0.00    +0.000 A 
ENDBRANCH  19  20
ENDBRANCH   2  15
TORSDOF 5
ENDMDL
MODEL 5
REMARK VINA RESULT:      -7.6      0.723      1.117
REMARK  Name = 
REMARK  6 active torsions:
REMARK  status: ('A' for Active; 'I' for Inactive)
REMARK    1  A    between atoms: C_1  and  O_2
REMARK    2  A    between atoms: O_2  and  C_3
REMARK    3  A    between atoms: C_3  and  C_5
REMARK    4  A    between atoms: C_8  and  N_9
REMARK    5  A    between atoms: C_10  and  C_12
REMARK    6  A    between atoms: C_16  and  C_17
REMARK                            x       y       z     vdW  Elec       q    Type
REMARK                         _______ _______ _______ _____ _____    ______ ____
ROOT
ATOM      1  N   UNL     1       2.689   6.580  19.869  0.00  0.00    +0.000 N 
ATOM      2  C   UNL     1       2.469   5.388  19.183  0.00  0.00    +0.000 C 
ATOM      3  O   UNL     1       1.623   5.256  18.306  0.00  0.00    +0.000 OA
ATOM      4  H   UNL     1       3.497   6.615  20.479  0.00  0.00    +0.000 HD
ENDROOT
BRANCH   1   8
ATOM      5  C   UNL     1       0.589  10.235  19.460  0.00  0.00    +0.000 A 
ATOM      6  C   UNL     1       1.291   9.713  18.371  0.00  0.00    +0.000 A 
ATOM      7  C   UNL     1       1.981   8.503  18.483  0.00  0.00    +0.000 A 
ATOM      8  C   UNL     1       1.986   7.792  19.686  0.00  0.00    +0.000 A 
ATOM      9  C   UNL     1       1.261   8.303  20.772  0.00  0.00    +0.000 A 
ATOM     10  C   UNL     1       0.577   9.523  20.664  0.00  0.00    +0.000 A 
BRANCH   5  11
ATOM     11  C   UNL     1      -0.124  11.528  19.275  0.00  0.00    +0.000 C 
ATOM     12  O   UNL     1      -0.885  11.752  18.343  0.00  0.00    +0.000 OA
BRANCH  11  14
ATOM     13  C   UNL     1       1.410  13.105  20.049  0.00  0.00    +0.000 C 
ATOM     14  O   UNL     1       0.189  12.393  20.266  0.00  0.00    +0.000 OA
ENDBRANCH  11  14
ENDBRANCH   5  11
ENDBRANCH   1   8
BRANCH   2  15
ATOM     15  C   UNL     1       3.369   4.313  19.524  0.00  0.00    +0.000 A 
ATOM     16  S   UNL     1       2.797   2.892  20.300  0.00  0.00    +0.000 S 
ATOM     17  N   UNL     1       4.277   2.132  20.238  0.00  0.00    +0.000 NA
ATOM     18  N   UNL     1       5.208   2.872  19.663  0.00  0.00    +0.000 NA
ATOM     19  C   UNL     1       4.721   4.120  19.257  0.00  0.00    +0.000 A 
BRANCH  19  20
ATOM     20  C   UNL     1       5.636   5.076  18.629  0.00  0.00    +0.000 A 
ATOM     21  C   UNL     1       6.844   5.400  19.270  0.00  0.00    +0.000 A 
ATOM     22  C   UNL     1       7.733   6.319  18.705  0.00  0.00    +0.000 A 
ATOM     23  C   UNL     1       7.431   6.928  17.489  0.00  0.00    +0.000 A 
ATOM     24  C   UNL     1       6.231   6.633  16.850  0.00  0.00    +0.000 A 
ATOM     25  C   UNL     1       5.334   5.728  17.424  0.00  0.00    +0.000 A 
ENDBRANCH  19  20
ENDBRANCH   2  15
TORSDOF 5
ENDMDL
MODEL 6
REMARK VINA RESULT:      -7.6      0.615      1.743
REMARK  Name = 
REMARK  6 active torsions:
REMARK  status: ('A' for Active; 'I' for Inactive)
REMARK    1  A    between atoms: C_1  and  O_2
REMARK    2  A    between atoms: O_2  and  C_3
REMARK    3  A    between atoms: C_3  and  C_5
REMARK    4  A    between atoms: C_8  and  N_9
REMARK    5  A    between atoms: C_10  and  C_12
REMARK    6  A    between atoms: C_16  and  C_17
REMARK                            x       y       z     vdW  Elec       q    Type
REMARK                         _______ _______ _______ _____ _____    ______ ____
ROOT
ATOM      1  N   UNL     1       2.779   6.371  19.966  0.00  0.00    +0.000 N 
ATOM      2  C   UNL     1       2.431   5.128  19.442  0.00  0.00    +0.000 C 
ATOM      3  O   UNL     1       1.490   4.952  18.678  0.00  0.00    +0.000 OA
ATOM      4  H   UNL     1       3.650   6.425  20.481  0.00  0.00    +0.000 HD
ENDROOT
BRANCH   1   8
ATOM      5  C   UNL     1       0.782  10.005  19.102  0.00  0.00    +0.000 A 
ATOM      6  C   UNL     1       0.710   9.463  20.387  0.00  0.00    +0.000 A 
ATOM      7  C   UNL     1       1.371   8.270  20.695  0.00  0.00    +0.000 A 
ATOM      8  C   UNL     1       2.115   7.595  19.724  0.00  0.00    +0.000 A 
ATOM      9  C   UNL     1       2.209   8.152  18.441  0.00  0.00    +0.000 A 
ATOM     10  C   UNL     1       1.536   9.344  18.128  0.00  0.00    +0.000 A 
BRANCH   5  11
ATOM     11  C   UNL     1       0.055  11.277  18.841  0.00  0.00    +0.000 C 
ATOM     12  O   UNL     1      -0.957  11.349  18.158  0.00  0.00    +0.000 OA
BRANCH  11  14
ATOM     13  C   UNL     1       1.653  12.965  18.651  0.00  0.00    +0.000 C 
ATOM     14  O   UNL     1       0.669  12.313  19.457  0.00  0.00    +0.000 OA
ENDBRANCH  11  14
ENDBRANCH   5  11
ENDBRANCH   1   8
BRANCH   2  15
ATOM     15  C   UNL     1       3.315   4.046  19.805  0.00  0.00    +0.000 A 
ATOM     16  S   UNL     1       2.774   2.761  20.808  0.00  0.00    +0.000 S 
ATOM     17  N   UNL     1       4.198   1.910  20.668  0.00  0.00    +0.000 NA
ATOM     18  N   UNL     1       5.086   2.520  19.904  0.00  0.00    +0.000 NA
ATOM     19  C   UNL     1       4.613   3.740  19.409  0.00  0.00    +0.000 A 
BRANCH  19  20
ATOM     20  C   UNL     1       5.489   4.560  18.569  0.00  0.00    +0.000 A 
ATOM     21  C   UNL     1       5.383   4.473  17.170  0.00  0.00    +0.000 A 
ATOM     22  C   UNL     1       6.213   5.232  16.338  0.00  0.00    +0.000 A 
ATOM     23  C   UNL     1       7.159   6.091  16.890  0.00  0.00    +0.000 A 
ATOM     24  C   UNL     1       7.290   6.176  18.272  0.00  0.00    +0.000 A 
ATOM     25  C   UNL     1       6.473   5.404  19.104  0.00  0.00    +0.000 A 
ENDBRANCH  19  20
ENDBRANCH   2  15
TORSDOF 5
ENDMDL
MODEL 7
REMARK VINA RESULT:      -7.6      0.731      1.313
REMARK  Name = 
REMARK  6 active torsions:
REMARK  status: ('A' for Active; 'I' for Inactive)
REMARK    1  A    between atoms: C_1  and  O_2
REMARK    2  A    between atoms: O_2  and  C_3
REMARK    3  A    between atoms: C_3  and  C_5
REMARK    4  A    between atoms: C_8  and  N_9
REMARK    5  A    between atoms: C_10  and  C_12
REMARK    6  A    between atoms: C_16  and  C_17
REMARK                            x       y       z     vdW  Elec       q    Type
REMARK                         _______ _______ _______ _____ _____    ______ ____
ROOT
ATOM      1  N   UNL     1       2.600   6.444  20.073  0.00  0.00    +0.000 N 
ATOM      2  C   UNL     1       2.470   5.278  19.320  0.00  0.00    +0.000 C 
ATOM      3  O   UNL     1       1.797   5.201  18.298  0.00  0.00    +0.000 OA
ATOM      4  H   UNL     1       3.281   6.432  20.822  0.00  0.00    +0.000 HD
ENDROOT
BRANCH   1   8
ATOM      5  C   UNL     1       0.753  10.134  19.120  0.00  0.00    +0.000 A 
ATOM      6  C   UNL     1       0.615   9.601  20.404  0.00  0.00    +0.000 A 
ATOM      7  C   UNL     1       1.226   8.390  20.741  0.00  0.00    +0.000 A 
ATOM      8  C   UNL     1       1.984   7.686  19.801  0.00  0.00    +0.000 A 
ATOM      9  C   UNL     1       2.143   8.234  18.520  0.00  0.00    +0.000 A 
ATOM     10  C   UNL     1       1.521   9.444  18.177  0.00  0.00    +0.000 A 
BRANCH   5  11
ATOM     11  C   UNL     1       0.077  11.427  18.827  0.00  0.00    +0.000 C 
ATOM     12  O   UNL     1       0.678  12.457  18.555  0.00  0.00    +0.000 OA
BRANCH  11  14
ATOM     13  C   UNL     1      -1.903  11.098  17.640  0.00  0.00    +0.000 C 
ATOM     14  O   UNL     1      -1.267  11.292  18.905  0.00  0.00    +0.000 OA
ENDBRANCH  11  14
ENDBRANCH   5  11
ENDBRANCH   1   8
BRANCH   2  15
ATOM     15  C   UNL     1       3.254   4.160  19.788  0.00  0.00    +0.000 A 
ATOM     16  S   UNL     1       2.763   3.246  21.155  0.00  0.00    +0.000 S 
ATOM     17  N   UNL     1       3.998   2.142  20.995  0.00  0.00    +0.000 NA
ATOM     18  N   UNL     1       4.784   2.399  19.965  0.00  0.00    +0.000 NA
ATOM     19  C   UNL     1       4.389   3.546  19.268  0.00  0.00    +0.000 A 
BRANCH  19  20
ATOM     20  C   UNL     1       5.175   3.990  18.114  0.00  0.00    +0.000 A 
ATOM     21  C   UNL     1       6.385   4.673  18.324  0.00  0.00    +0.000 A 
ATOM     22  C   UNL     1       7.153   5.122  17.246  0.00  0.00    +0.000 A 
ATOM     23  C   UNL     1       6.726   4.894  15.940  0.00  0.00    +0.000 A 
ATOM     24  C   UNL     1       5.522   4.236  15.714  0.00  0.00    +0.000 A 
ATOM     25  C   UNL     1       4.745   3.803  16.792  0.00  0.00    +0.000 A 
ENDBRANCH  19  20
ENDBRANCH   2  15
TORSDOF 5
ENDMDL
MODEL 8
REMARK VINA RESULT:      -7.5      0.754      1.530
REMARK  Name = 
REMARK  6 active torsions:
REMARK  status: ('A' for Active; 'I' for Inactive)
REMARK    1  A    between atoms: C_1  and  O_2
REMARK    2  A    between atoms: O_2  and  C_3
REMARK    3  A    between atoms: C_3  and  C_5
REMARK    4  A    between atoms: C_8  and  N_9
REMARK    5  A    between atoms: C_10  and  C_12
REMARK    6  A    between atoms: C_16  and  C_17
REMARK                            x       y       z     vdW  Elec       q    Type
REMARK                         _______ _______ _______ _____ _____    ______ ____
ROOT
ATOM      1  N   UNL     1       2.741   6.316  20.039  0.00  0.00    +0.000 N 
ATOM      2  C   UNL     1       2.432   5.072  19.494  0.00  0.00    +0.000 C 
ATOM      3  O   UNL     1       1.538   4.892  18.675  0.00  0.00    +0.000 OA
ATOM      4  H   UNL     1       3.579   6.373  20.605  0.00  0.00    +0.000 HD
ENDROOT
BRANCH   1   8
ATOM      5  C   UNL     1       0.775   9.938  19.066  0.00  0.00    +0.000 A 
ATOM      6  C   UNL     1       0.656   9.409  20.353  0.00  0.00    +0.000 A 
ATOM      7  C   UNL     1       1.307   8.221  20.697  0.00  0.00    +0.000 A 
ATOM      8  C   UNL     1       2.085   7.536  19.760  0.00  0.00    +0.000 A 
ATOM      9  C   UNL     1       2.225   8.080  18.476  0.00  0.00    +0.000 A 
ATOM     10  C   UNL     1       1.563   9.267  18.126  0.00  0.00    +0.000 A 
BRANCH   5  11
ATOM     11  C   UNL     1       0.057  11.207  18.765  0.00  0.00    +0.000 C 
ATOM     12  O   UNL     1      -1.159  11.286  18.660  0.00  0.00    +0.000 OA
BRANCH  11  14
ATOM     13  C   UNL     1       0.411  13.495  19.047  0.00  0.00    +0.000 C 
ATOM     14  O   UNL     1       0.931  12.230  18.630  0.00  0.00    +0.000 OA
ENDBRANCH  11  14
ENDBRANCH   5  11
ENDBRANCH   1   8
BRANCH   2  15
ATOM     15  C   UNL     1       3.298   3.993  19.906  0.00  0.00    +0.000 A 
ATOM     16  S   UNL     1       2.848   2.934  21.180  0.00  0.00    +0.000 S 
ATOM     17  N   UNL     1       4.183   1.959  20.985  0.00  0.00    +0.000 NA
ATOM     18  N   UNL     1       4.975   2.365  20.010  0.00  0.00    +0.000 NA
ATOM     19  C   UNL     1       4.501   3.524  19.387  0.00  0.00    +0.000 A 
BRANCH  19  20
ATOM     20  C   UNL     1       5.282   4.125  18.303  0.00  0.00    +0.000 A 
ATOM     21  C   UNL     1       6.386   4.936  18.613  0.00  0.00    +0.000 A 
ATOM     22  C   UNL     1       7.144   5.537  17.603  0.00  0.00    +0.000 A 
ATOM     23  C   UNL     1       6.812   5.334  16.266  0.00  0.00    +0.000 A 
ATOM     24  C   UNL     1       5.711   4.549  15.941  0.00  0.00    +0.000 A 
ATOM     25  C   UNL     1       4.942   3.964  16.951  0.00  0.00    +0.000 A 
ENDBRANCH  19  20
ENDBRANCH   2  15
TORSDOF 5
ENDMDL
MODEL 9
REMARK VINA RESULT:      -7.5      0.925      1.375
REMARK  Name = 
REMARK  6 active torsions:
REMARK  status: ('A' for Active; 'I' for Inactive)
REMARK    1  A    between atoms: C_1  and  O_2
REMARK    2  A    between atoms: O_2  and  C_3
REMARK    3  A    between atoms: C_3  and  C_5
REMARK    4  A    between atoms: C_8  and  N_9
REMARK    5  A    between atoms: C_10  and  C_12
REMARK    6  A    between atoms: C_16  and  C_17
REMARK                            x       y       z     vdW  Elec       q    Type
REMARK                         _______ _______ _______ _____ _____    ______ ____
ROOT
ATOM      1  N   UNL     1       2.607   6.437  19.959  0.00  0.00    +0.000 N 
ATOM      2  C   UNL     1       2.484   5.288  19.181  0.00  0.00    +0.000 C 
ATOM      3  O   UNL     1       1.825   5.235  18.149  0.00  0.00    +0.000 OA
ATOM      4  H   UNL     1       3.278   6.407  20.718  0.00  0.00    +0.000 HD
ENDROOT
BRANCH   1   8
ATOM      5  C   UNL     1       0.790  10.212  19.338  0.00  0.00    +0.000 A 
ATOM      6  C   UNL     1       1.488   9.598  18.295  0.00  0.00    +0.000 A 
ATOM      7  C   UNL     1       2.084   8.347  18.477  0.00  0.00    +0.000 A 
ATOM      8  C   UNL     1       1.999   7.687  19.705  0.00  0.00    +0.000 A 
ATOM      9  C   UNL     1       1.277   8.291  20.744  0.00  0.00    +0.000 A 
ATOM     10  C   UNL     1       0.687   9.552  20.566  0.00  0.00    +0.000 A 
BRANCH   5  11
ATOM     11  C   UNL     1       0.178  11.543  19.078  0.00  0.00    +0.000 C 
ATOM     12  O   UNL     1      -0.711  11.729  18.259  0.00  0.00    +0.000 OA
BRANCH  11  14
ATOM     13  C   UNL     1       1.928  13.065  19.315  0.00  0.00    +0.000 C 
ATOM     14  O   UNL     1       0.740  12.489  19.864  0.00  0.00    +0.000 OA
ENDBRANCH  11  14
ENDBRANCH   5  11
ENDBRANCH   1   8
BRANCH   2  15
ATOM     15  C   UNL     1       3.258   4.158  19.636  0.00  0.00    +0.000 A 
ATOM     16  S   UNL     1       2.735   3.204  20.963  0.00  0.00    +0.000 S 
ATOM     17  N   UNL     1       3.976   2.106  20.802  0.00  0.00    +0.000 NA
ATOM     18  N   UNL     1       4.787   2.395  19.801  0.00  0.00    +0.000 NA
ATOM     19  C   UNL     1       4.408   3.561  19.127  0.00  0.00    +0.000 A 
BRANCH  19  20
ATOM     20  C   UNL     1       5.222   4.039  18.007  0.00  0.00    +0.000 A 
ATOM     21  C   UNL     1       6.418   4.729  18.268  0.00  0.00    +0.000 A 
ATOM     22  C   UNL     1       7.212   5.211  17.223  0.00  0.00    +0.000 A 
ATOM     23  C   UNL     1       6.825   5.009  15.901  0.00  0.00    +0.000 A 
ATOM     24  C   UNL     1       5.635   4.345  15.625  0.00  0.00    +0.000 A 
ATOM     25  C   UNL     1       4.832   3.879  16.670  0.00  0.00    +0.000 A 
ENDBRANCH  19  20
ENDBRANCH   2  15
TORSDOF 5
ENDMDL
