MODEL 1
REMARK VINA RESULT:      -8.3      0.000      0.000
REMARK  Name = 
REMARK  5 active torsions:
REMARK  status: ('A' for Active; 'I' for Inactive)
REMARK    1  A    between atoms: C_1  and  C_2
REMARK    2  A    between atoms: C_5  and  C_6
REMARK    3  A    between atoms: C_8  and  N_9
REMARK    4  A    between atoms: N_9  and  C_10
REMARK    5  A    between atoms: N_9  and  C_11
REMARK                            x       y       z     vdW  Elec       q    Type
REMARK                         _______ _______ _______ _____ _____    ______ ____
ROOT
ATOM      1  C   UNL     1       3.327   6.349  19.291  0.00  0.00    +0.000 C 
ATOM      2  C   UNL     1       4.130   6.174  17.994  0.00  0.00    +0.000 C 
ATOM      3  C   UNL     1       5.305   5.173  18.121  0.00  0.00    +0.000 C 
ATOM      4  C   UNL     1       4.988   4.012  19.119  0.00  0.00    +0.000 C 
ATOM      5  C   UNL     1       3.553   3.873  19.573  0.00  0.00    +0.000 A 
ATOM      6  C   UNL     1       3.071   2.623  19.992  0.00  0.00    +0.000 A 
ATOM      7  C   UNL     1       1.750   2.476  20.413  0.00  0.00    +0.000 A 
ATOM      8  C   UNL     1       0.900   3.575  20.418  0.00  0.00    +0.000 A 
ATOM      9  C   UNL     1       1.380   4.829  20.040  0.00  0.00    +0.000 A 
ATOM     10  C   UNL     1       2.715   5.000  19.638  0.00  0.00    +0.000 A 
ENDROOT
BRANCH   1  15
ATOM     11  C   UNL     1      -0.137  11.047  18.992  0.00  0.00    +0.000 C 
ATOM     12  C   UNL     1       0.682   9.796  19.076  0.00  0.00    +0.000 A 
ATOM     13  C   UNL     1       0.894   9.157  20.300  0.00  0.00    +0.000 A 
ATOM     14  C   UNL     1       1.718   8.033  20.381  0.00  0.00    +0.000 A 
ATOM     15  C   UNL     1       2.341   7.514  19.236  0.00  0.00    +0.000 A 
ATOM     16  C   UNL     1       2.101   8.143  18.003  0.00  0.00    +0.000 A 
ATOM     17  C   UNL     1       1.284   9.274  17.926  0.00  0.00    +0.000 A 
ENDBRANCH   1  15
BRANCH   3  18
ATOM     18  N   UNL     1       5.749   4.762  16.750  0.00  0.00    +0.000 NA
ATOM     19  C   UNL     1       5.370   5.760  15.735  0.00  0.00    +0.000 C 
ATOM     20  C   UNL     1       7.189   4.514  16.640  0.00  0.00    +0.000 C 
ENDBRANCH   3  18
TORSDOF 2
ENDMDL
MODEL 2
REMARK VINA RESULT:      -8.2      1.082      1.318
REMARK  Name = 
REMARK  5 active torsions:
REMARK  status: ('A' for Active; 'I' for Inactive)
REMARK    1  A    between atoms: C_1  and  C_2
REMARK    2  A    between atoms: C_5  and  C_6
REMARK    3  A    between atoms: C_8  and  N_9
REMARK    4  A    between atoms: N_9  and  C_10
REMARK    5  A    between atoms: N_9  and  C_11
REMARK                            x       y       z     vdW  Elec       q    Type
REMARK                         _______ _______ _______ _____ _____    ______ ____
ROOT
ATOM      1  C   UNL     1       3.517   6.262  18.757  0.00  0.00    +0.000 C 
ATOM      2  C   UNL     1       4.515   6.539  17.624  0.00  0.00    +0.000 C 
ATOM      3  C   UNL     1       5.708   5.551  17.590  0.00  0.00    +0.000 C 
ATOM      4  C   UNL     1       5.303   4.120  18.069  0.00  0.00    +0.000 C 
ATOM      5  C   UNL     1       3.825   3.838  18.213  0.00  0.00    +0.000 A 
ATOM      6  C   UNL     1       3.350   2.522  18.100  0.00  0.00    +0.000 A 
ATOM      7  C   UNL     1       1.990   2.244  18.229  0.00  0.00    +0.000 A 
ATOM      8  C   UNL     1       1.093   3.278  18.470  0.00  0.00    +0.000 A 
ATOM      9  C   UNL     1       1.560   4.584  18.624  0.00  0.00    +0.000 A 
ATOM     10  C   UNL     1       2.929   4.878  18.523  0.00  0.00    +0.000 A 
ENDROOT
BRANCH   1  15
ATOM     11  C   UNL     1      -0.110  10.799  19.406  0.00  0.00    +0.000 C 
ATOM     12  C   UNL     1       0.752   9.585  19.243  0.00  0.00    +0.000 A 
ATOM     13  C   UNL     1       1.060   8.770  20.336  0.00  0.00    +0.000 A 
ATOM     14  C   UNL     1       1.923   7.683  20.189  0.00  0.00    +0.000 A 
ATOM     15  C   UNL     1       2.492   7.378  18.944  0.00  0.00    +0.000 A 
ATOM     16  C   UNL     1       2.156   8.184  17.843  0.00  0.00    +0.000 A 
ATOM     17  C   UNL     1       1.300   9.277  17.993  0.00  0.00    +0.000 A 
ENDBRANCH   1  15
BRANCH   3  18
ATOM     18  N   UNL     1       6.375   5.635  16.251  0.00  0.00    +0.000 NA
ATOM     19  C   UNL     1       7.179   4.434  15.968  0.00  0.00    +0.000 C 
ATOM     20  C   UNL     1       5.449   5.845  15.136  0.00  0.00    +0.000 C 
ENDBRANCH   3  18
TORSDOF 2
ENDMDL
MODEL 3
REMARK VINA RESULT:      -8.1      1.854      6.032
REMARK  Name = 
REMARK  5 active torsions:
REMARK  status: ('A' for Active; 'I' for Inactive)
REMARK    1  A    between atoms: C_1  and  C_2
REMARK    2  A    between atoms: C_5  and  C_6
REMARK    3  A    between atoms: C_8  and  N_9
REMARK    4  A    between atoms: N_9  and  C_10
REMARK    5  A    between atoms: N_9  and  C_11
REMARK                            x       y       z     vdW  Elec       q    Type
REMARK                         _______ _______ _______ _____ _____    ______ ____
ROOT
ATOM      1  C   UNL     1       4.636   4.767  18.198  0.00  0.00    +0.000 C 
ATOM      2  C   UNL     1       3.795   3.515  18.482  0.00  0.00    +0.000 C 
ATOM      3  C   UNL     1       3.232   3.456  19.923  0.00  0.00    +0.000 C 
ATOM      4  C   UNL     1       2.906   4.877  20.488  0.00  0.00    +0.000 C 
ATOM      5  C   UNL     1       2.908   6.023  19.502  0.00  0.00    +0.000 A 
ATOM      6  C   UNL     1       2.136   7.167  19.759  0.00  0.00    +0.000 A 
ATOM      7  C   UNL     1       2.125   8.232  18.861  0.00  0.00    +0.000 A 
ATOM      8  C   UNL     1       2.884   8.164  17.698  0.00  0.00    +0.000 A 
ATOM      9  C   UNL     1       3.685   7.048  17.453  0.00  0.00    +0.000 A 
ATOM     10  C   UNL     1       3.727   5.977  18.360  0.00  0.00    +0.000 A 
ENDROOT
BRANCH   1  15
ATOM     11  C   UNL     1       7.533   4.904  13.123  0.00  0.00    +0.000 C 
ATOM     12  C   UNL     1       6.803   4.785  14.426  0.00  0.00    +0.000 A 
ATOM     13  C   UNL     1       5.494   4.300  14.474  0.00  0.00    +0.000 A 
ATOM     14  C   UNL     1       4.795   4.261  15.682  0.00  0.00    +0.000 A 
ATOM     15  C   UNL     1       5.393   4.698  16.873  0.00  0.00    +0.000 A 
ATOM     16  C   UNL     1       6.719   5.158  16.824  0.00  0.00    +0.000 A 
ATOM     17  C   UNL     1       7.414   5.205  15.613  0.00  0.00    +0.000 A 
ENDBRANCH   1  15
BRANCH   3  18
ATOM     18  N   UNL     1       2.120   2.453  19.975  0.00  0.00    +0.000 NA
ATOM     19  C   UNL     1       1.250   2.667  21.144  0.00  0.00    +0.000 C 
ATOM     20  C   UNL     1       1.284   2.429  18.774  0.00  0.00    +0.000 C 
ENDBRANCH   3  18
TORSDOF 2
ENDMDL
MODEL 4
REMARK VINA RESULT:      -8.1      0.165      1.089
REMARK  Name = 
REMARK  5 active torsions:
REMARK  status: ('A' for Active; 'I' for Inactive)
REMARK    1  A    between atoms: C_1  and  C_2
REMARK    2  A    between atoms: C_5  and  C_6
REMARK    3  A    between atoms: C_8  and  N_9
REMARK    4  A    between atoms: N_9  and  C_10
REMARK    5  A    between atoms: N_9  and  C_11
REMARK                            x       y       z     vdW  Elec       q    Type
REMARK                         _______ _______ _______ _____ _____    ______ ____
ROOT
ATOM      1  C   UNL     1       3.363   6.371  19.242  0.00  0.00    +0.000 C 
ATOM      2  C   UNL     1       4.181   6.177  17.957  0.00  0.00    +0.000 C 
ATOM      3  C   UNL     1       5.318   5.135  18.094  0.00  0.00    +0.000 C 
ATOM      4  C   UNL     1       4.945   3.979  19.078  0.00  0.00    +0.000 C 
ATOM      5  C   UNL     1       3.499   3.886  19.508  0.00  0.00    +0.000 A 
ATOM      6  C   UNL     1       2.967   2.651  19.910  0.00  0.00    +0.000 A 
ATOM      7  C   UNL     1       1.636   2.546  20.308  0.00  0.00    +0.000 A 
ATOM      8  C   UNL     1       0.824   3.674  20.308  0.00  0.00    +0.000 A 
ATOM      9  C   UNL     1       1.353   4.914  19.948  0.00  0.00    +0.000 A 
ATOM     10  C   UNL     1       2.699   5.041  19.569  0.00  0.00    +0.000 A 
ENDROOT
BRANCH   1  15
ATOM     11  C   UNL     1      -0.552  10.707  19.094  0.00  0.00    +0.000 C 
ATOM     12  C   UNL     1       0.512   9.654  19.125  0.00  0.00    +0.000 A 
ATOM     13  C   UNL     1       1.156   9.250  17.952  0.00  0.00    +0.000 A 
ATOM     14  C   UNL     1       2.095   8.217  17.978  0.00  0.00    +0.000 A 
ATOM     15  C   UNL     1       2.419   7.570  19.180  0.00  0.00    +0.000 A 
ATOM     16  C   UNL     1       1.789   8.000  20.360  0.00  0.00    +0.000 A 
ATOM     17  C   UNL     1       0.843   9.027  20.331  0.00  0.00    +0.000 A 
ENDBRANCH   1  15
BRANCH   3  18
ATOM     18  N   UNL     1       5.770   4.719  16.727  0.00  0.00    +0.000 NA
ATOM     19  C   UNL     1       5.374   5.700  15.703  0.00  0.00    +0.000 C 
ATOM     20  C   UNL     1       7.213   4.496  16.620  0.00  0.00    +0.000 C 
ENDBRANCH   3  18
TORSDOF 2
ENDMDL
MODEL 5
REMARK VINA RESULT:      -8.0      1.580      3.961
REMARK  Name = 
REMARK  5 active torsions:
REMARK  status: ('A' for Active; 'I' for Inactive)
REMARK    1  A    between atoms: C_1  and  C_2
REMARK    2  A    between atoms: C_5  and  C_6
REMARK    3  A    between atoms: C_8  and  N_9
REMARK    4  A    between atoms: N_9  and  C_10
REMARK    5  A    between atoms: N_9  and  C_11
REMARK                            x       y       z     vdW  Elec       q    Type
REMARK                         _______ _______ _______ _____ _____    ______ ____
ROOT
ATOM      1  C   UNL     1       2.708   5.934  17.925  0.00  0.00    +0.000 C 
ATOM      2  C   UNL     1       2.417   4.718  18.816  0.00  0.00    +0.000 C 
ATOM      3  C   UNL     1       2.652   3.359  18.110  0.00  0.00    +0.000 C 
ATOM      4  C   UNL     1       3.819   3.425  17.073  0.00  0.00    +0.000 C 
ATOM      5  C   UNL     1       4.699   4.654  17.110  0.00  0.00    +0.000 A 
ATOM      6  C   UNL     1       6.021   4.581  16.644  0.00  0.00    +0.000 A 
ATOM      7  C   UNL     1       6.847   5.704  16.672  0.00  0.00    +0.000 A 
ATOM      8  C   UNL     1       6.360   6.908  17.166  0.00  0.00    +0.000 A 
ATOM      9  C   UNL     1       5.036   7.001  17.595  0.00  0.00    +0.000 A 
ATOM     10  C   UNL     1       4.183   5.886  17.550  0.00  0.00    +0.000 A 
ENDROOT
BRANCH   1  15
ATOM     11  C   UNL     1       0.556  10.799  20.344  0.00  0.00    +0.000 C 
ATOM     12  C   UNL     1       1.181   9.592  19.717  0.00  0.00    +0.000 A 
ATOM     13  C   UNL     1       1.408   9.534  18.340  0.00  0.00    +0.000 A 
ATOM     14  C   UNL     1       1.924   8.376  17.753  0.00  0.00    +0.000 A 
ATOM     15  C   UNL     1       2.236   7.253  18.533  0.00  0.00    +0.000 A 
ATOM     16  C   UNL     1       2.034   7.327  19.921  0.00  0.00    +0.000 A 
ATOM     17  C   UNL     1       1.508   8.482  20.505  0.00  0.00    +0.000 A 
ENDBRANCH   1  15
BRANCH   3  18
ATOM     18  N   UNL     1       2.748   2.279  19.145  0.00  0.00    +0.000 NA
ATOM     19  C   UNL     1       4.097   2.208  19.731  0.00  0.00    +0.000 C 
ATOM     20  C   UNL     1       1.777   2.409  20.233  0.00  0.00    +0.000 C 
ENDBRANCH   3  18
TORSDOF 2
ENDMDL
MODEL 6
REMARK VINA RESULT:      -8.0      1.861      5.914
REMARK  Name = 
REMARK  5 active torsions:
REMARK  status: ('A' for Active; 'I' for Inactive)
REMARK    1  A    between atoms: C_1  and  C_2
REMARK    2  A    between atoms: C_5  and  C_6
REMARK    3  A    between atoms: C_8  and  N_9
REMARK    4  A    between atoms: N_9  and  C_10
REMARK    5  A    between atoms: N_9  and  C_11
REMARK                            x       y       z     vdW  Elec       q    Type
REMARK                         _______ _______ _______ _____ _____    ______ ____
ROOT
ATOM      1  C   UNL     1       3.958   5.550  18.865  0.00  0.00    +0.000 C 
ATOM      2  C   UNL     1       3.056   4.369  19.251  0.00  0.00    +0.000 C 
ATOM      3  C   UNL     1       2.364   4.537  20.626  0.00  0.00    +0.000 C 
ATOM      4  C   UNL     1       2.033   6.032  20.942  0.00  0.00    +0.000 C 
ATOM      5  C   UNL     1       2.160   7.017  19.802  0.00  0.00    +0.000 A 
ATOM      6  C   UNL     1       1.405   8.200  19.814  0.00  0.00    +0.000 A 
ATOM      7  C   UNL     1       1.508   9.119  18.771  0.00  0.00    +0.000 A 
ATOM      8  C   UNL     1       2.366   8.864  17.708  0.00  0.00    +0.000 A 
ATOM      9  C   UNL     1       3.150   7.710  17.706  0.00  0.00    +0.000 A 
ATOM     10  C   UNL     1       3.077   6.786  18.761  0.00  0.00    +0.000 A 
ENDROOT
BRANCH   1  15
ATOM     11  C   UNL     1       7.225   4.855  14.069  0.00  0.00    +0.000 C 
ATOM     12  C   UNL     1       6.414   4.957  15.324  0.00  0.00    +0.000 A 
ATOM     13  C   UNL     1       5.203   4.272  15.454  0.00  0.00    +0.000 A 
ATOM     14  C   UNL     1       4.417   4.429  16.597  0.00  0.00    +0.000 A 
ATOM     15  C   UNL     1       4.829   5.269  17.643  0.00  0.00    +0.000 A 
ATOM     16  C   UNL     1       6.060   5.933  17.519  0.00  0.00    +0.000 A 
ATOM     17  C   UNL     1       6.841   5.782  16.370  0.00  0.00    +0.000 A 
ENDBRANCH   1  15
BRANCH   3  18
ATOM     18  N   UNL     1       1.221   3.573  20.721  0.00  0.00    +0.000 NA
ATOM     19  C   UNL     1       0.937   2.937  19.423  0.00  0.00    +0.000 C 
ATOM     20  C   UNL     1       1.411   2.520  21.720  0.00  0.00    +0.000 C 
ENDBRANCH   3  18
TORSDOF 2
ENDMDL
MODEL 7
REMARK VINA RESULT:      -7.9      1.848      6.009
REMARK  Name = 
REMARK  5 active torsions:
REMARK  status: ('A' for Active; 'I' for Inactive)
REMARK    1  A    between atoms: C_1  and  C_2
REMARK    2  A    between atoms: C_5  and  C_6
REMARK    3  A    between atoms: C_8  and  N_9
REMARK    4  A    between atoms: N_9  and  C_10
REMARK    5  A    between atoms: N_9  and  C_11
REMARK                            x       y       z     vdW  Elec       q    Type
REMARK                         _______ _______ _______ _____ _____    ______ ____
ROOT
ATOM      1  C   UNL     1       4.640   4.865  18.086  0.00  0.00    +0.000 C 
ATOM      2  C   UNL     1       3.834   3.584  18.348  0.00  0.00    +0.000 C 
ATOM      3  C   UNL     1       3.319   3.461  19.803  0.00  0.00    +0.000 C 
ATOM      4  C   UNL     1       2.981   4.852  20.431  0.00  0.00    +0.000 C 
ATOM      5  C   UNL     1       2.928   6.033  19.489  0.00  0.00    +0.000 A 
ATOM      6  C   UNL     1       2.141   7.150  19.812  0.00  0.00    +0.000 A 
ATOM      7  C   UNL     1       2.080   8.247  18.955  0.00  0.00    +0.000 A 
ATOM      8  C   UNL     1       2.802   8.238  17.768  0.00  0.00    +0.000 A 
ATOM      9  C   UNL     1       3.618   7.150  17.457  0.00  0.00    +0.000 A 
ATOM     10  C   UNL     1       3.712   6.048  18.321  0.00  0.00    +0.000 A 
ENDROOT
BRANCH   1  15
ATOM     11  C   UNL     1       7.376   4.448  12.938  0.00  0.00    +0.000 C 
ATOM     12  C   UNL     1       6.668   4.638  14.244  0.00  0.00    +0.000 A 
ATOM     13  C   UNL     1       7.335   5.163  15.353  0.00  0.00    +0.000 A 
ATOM     14  C   UNL     1       6.689   5.269  16.586  0.00  0.00    +0.000 A 
ATOM     15  C   UNL     1       5.355   4.861  16.737  0.00  0.00    +0.000 A 
ATOM     16  C   UNL     1       4.680   4.361  15.611  0.00  0.00    +0.000 A 
ATOM     17  C   UNL     1       5.331   4.246  14.380  0.00  0.00    +0.000 A 
ENDBRANCH   1  15
BRANCH   3  18
ATOM     18  N   UNL     1       2.230   2.432  19.852  0.00  0.00    +0.000 NA
ATOM     19  C   UNL     1       1.381   2.597  21.043  0.00  0.00    +0.000 C 
ATOM     20  C   UNL     1       1.369   2.420  18.667  0.00  0.00    +0.000 C 
ENDBRANCH   3  18
TORSDOF 2
ENDMDL
MODEL 8
REMARK VINA RESULT:      -7.9      1.833      5.868
REMARK  Name = 
REMARK  5 active torsions:
REMARK  status: ('A' for Active; 'I' for Inactive)
REMARK    1  A    between atoms: C_1  and  C_2
REMARK    2  A    between atoms: C_5  and  C_6
REMARK    3  A    between atoms: C_8  and  N_9
REMARK    4  A    between atoms: N_9  and  C_10
REMARK    5  A    between atoms: N_9  and  C_11
REMARK                            x       y       z     vdW  Elec       q    Type
REMARK                         _______ _______ _______ _____ _____    ______ ____
ROOT
ATOM      1  C   UNL     1       3.835   5.862  18.867  0.00  0.00    +0.000 C 
ATOM      2  C   UNL     1       2.974   4.640  19.216  0.00  0.00    +0.000 C 
ATOM      3  C   UNL     1       2.285   4.738  20.599  0.00  0.00    +0.000 C 
ATOM      4  C   UNL     1       1.908   6.210  20.968  0.00  0.00    +0.000 C 
ATOM      5  C   UNL     1       1.996   7.237  19.862  0.00  0.00    +0.000 A 
ATOM      6  C   UNL     1       1.203   8.394  19.918  0.00  0.00    +0.000 A 
ATOM      7  C   UNL     1       1.271   9.351  18.908  0.00  0.00    +0.000 A 
ATOM      8  C   UNL     1       2.130   9.161  17.832  0.00  0.00    +0.000 A 
ATOM      9  C   UNL     1       2.951   8.033  17.787  0.00  0.00    +0.000 A 
ATOM     10  C   UNL     1       2.914   7.072  18.810  0.00  0.00    +0.000 A 
ENDROOT
BRANCH   1  15
ATOM     11  C   UNL     1       7.241   4.684  14.266  0.00  0.00    +0.000 C 
ATOM     12  C   UNL     1       6.348   5.059  15.408  0.00  0.00    +0.000 A 
ATOM     13  C   UNL     1       6.759   5.990  16.365  0.00  0.00    +0.000 A 
ATOM     14  C   UNL     1       5.951   6.280  17.466  0.00  0.00    +0.000 A 
ATOM     15  C   UNL     1       4.707   5.652  17.631  0.00  0.00    +0.000 A 
ATOM     16  C   UNL     1       4.286   4.739  16.650  0.00  0.00    +0.000 A 
ATOM     17  C   UNL     1       5.100   4.442  15.554  0.00  0.00    +0.000 A 
ENDBRANCH   1  15
BRANCH   3  18
ATOM     18  N   UNL     1       1.174   3.735  20.666  0.00  0.00    +0.000 NA
ATOM     19  C   UNL     1       0.908   3.131  19.350  0.00  0.00    +0.000 C 
ATOM     20  C   UNL     1       1.402   2.658  21.632  0.00  0.00    +0.000 C 
ENDBRANCH   3  18
TORSDOF 2
ENDMDL
MODEL 9
REMARK VINA RESULT:      -7.9      1.348      1.856
REMARK  Name = 
REMARK  5 active torsions:
REMARK  status: ('A' for Active; 'I' for Inactive)
REMARK    1  A    between atoms: C_1  and  C_2
REMARK    2  A    between atoms: C_5  and  C_6
REMARK    3  A    between atoms: C_8  and  N_9
REMARK    4  A    between atoms: N_9  and  C_10
REMARK    5  A    between atoms: N_9  and  C_11
REMARK                            x       y       z     vdW  Elec       q    Type
REMARK                         _______ _______ _______ _____ _____    ______ ____
ROOT
ATOM      1  C   UNL     1       3.637   6.177  18.307  0.00  0.00    +0.000 C 
ATOM      2  C   UNL     1       4.424   6.373  17.003  0.00  0.00    +0.000 C 
ATOM      3  C   UNL     1       5.541   5.323  16.787  0.00  0.00    +0.000 C 
ATOM      4  C   UNL     1       5.163   3.927  17.380  0.00  0.00    +0.000 C 
ATOM      5  C   UNL     1       3.724   3.728  17.798  0.00  0.00    +0.000 A 
ATOM      6  C   UNL     1       3.174   2.437  17.818  0.00  0.00    +0.000 A 
ATOM      7  C   UNL     1       1.849   2.235  18.199  0.00  0.00    +0.000 A 
ATOM      8  C   UNL     1       1.062   3.321  18.564  0.00  0.00    +0.000 A 
ATOM      9  C   UNL     1       1.610   4.603  18.586  0.00  0.00    +0.000 A 
ATOM     10  C   UNL     1       2.951   4.821  18.229  0.00  0.00    +0.000 A 
ENDROOT
BRANCH   1  15
ATOM     11  C   UNL     1      -0.177  10.403  19.629  0.00  0.00    +0.000 C 
ATOM     12  C   UNL     1       0.861   9.379  19.291  0.00  0.00    +0.000 A 
ATOM     13  C   UNL     1       1.377   9.279  17.997  0.00  0.00    +0.000 A 
ATOM     14  C   UNL     1       2.291   8.274  17.672  0.00  0.00    +0.000 A 
ATOM     15  C   UNL     1       2.718   7.351  18.638  0.00  0.00    +0.000 A 
ATOM     16  C   UNL     1       2.218   7.474  19.945  0.00  0.00    +0.000 A 
ATOM     17  C   UNL     1       1.296   8.473  20.266  0.00  0.00    +0.000 A 
ENDBRANCH   1  15
BRANCH   3  18
ATOM     18  N   UNL     1       5.956   5.338  15.347  0.00  0.00    +0.000 NA
ATOM     19  C   UNL     1       7.392   5.048  15.193  0.00  0.00    +0.000 C 
ATOM     20  C   UNL     1       5.203   4.411  14.500  0.00  0.00    +0.000 C 
ENDBRANCH   3  18
TORSDOF 2
ENDMDL
