MODEL 1
REMARK VINA RESULT:      -7.7      0.000      0.000
REMARK  Name = 
REMARK  6 active torsions:
REMARK  status: ('A' for Active; 'I' for Inactive)
REMARK    1  A    between atoms: C_1  and  O_2
REMARK    2  A    between atoms: O_2  and  C_3
REMARK    3  A    between atoms: C_6  and  C_7
REMARK    4  A    between atoms: N_8  and  N_9
REMARK    5  A    between atoms: C_14  and  C_15
REMARK    6  A    between atoms: C_15  and  C_16
REMARK                            x       y       z     vdW  Elec       q    Type
REMARK                         _______ _______ _______ _____ _____    ______ ____
ROOT
ATOM      1  N   UNL     1       1.854   7.143  20.452  0.00  0.00    +0.000 N 
ATOM      2  C   UNL     1       1.292   8.332  20.844  0.00  0.00    +0.000 C 
ATOM      3  N   UNL     1       1.014   8.644  22.066  0.00  0.00    +0.000 NA
ATOM      4  C   UNL     1       0.506   9.916  22.195  0.00  0.00    +0.000 C 
ATOM      5  O   UNL     1       0.141  10.385  23.269  0.00  0.00    +0.000 OA
ATOM      6  C   UNL     1       0.425  10.717  20.906  0.00  0.00    +0.000 C 
ATOM      7  S   UNL     1       0.909   9.530  19.625  0.00  0.00    +0.000 S 
ATOM      8  H   UNL     1       2.068   6.536  21.242  0.00  0.00    +0.000 HD
ENDROOT
BRANCH   1  10
ATOM      9  C   UNL     1       2.959   5.845  18.961  0.00  0.00    +0.000 C 
ATOM     10  N   UNL     1       2.633   7.038  19.338  0.00  0.00    +0.000 NA
BRANCH   9  14
ATOM     11  C   UNL     1       5.647   5.300  15.681  0.00  0.00    +0.000 A 
ATOM     12  C   UNL     1       5.200   6.578  16.018  0.00  0.00    +0.000 A 
ATOM     13  C   UNL     1       4.318   6.760  17.082  0.00  0.00    +0.000 A 
ATOM     14  C   UNL     1       3.866   5.654  17.808  0.00  0.00    +0.000 A 
ATOM     15  C   UNL     1       4.288   4.369  17.463  0.00  0.00    +0.000 A 
ATOM     16  C   UNL     1       5.178   4.194  16.395  0.00  0.00    +0.000 A 
BRANCH  11  18
ATOM     17  C   UNL     1       6.363   4.140  13.748  0.00  0.00    +0.000 C 
ATOM     18  O   UNL     1       6.508   5.254  14.621  0.00  0.00    +0.000 OA
ENDBRANCH  11  18
ENDBRANCH   9  14
ENDBRANCH   1  10
BRANCH   6  19
ATOM     19  C   UNL     1      -0.988  11.238  20.694  0.00  0.00    +0.000 C 
BRANCH  19  20
ATOM     20  C   UNL     1      -1.246  11.600  19.248  0.00  0.00    +0.000 C 
ATOM     21  O   UNL     1      -0.712  12.563  18.703  0.00  0.00    +0.000 OA
ATOM     22  N   UNL     1      -2.201  10.794  18.651  0.00  0.00    +0.000 N 
ATOM     23  C   UNL     1      -2.609  10.792  17.348  0.00  0.00    +0.000 C 
ATOM     24  N   UNL     1      -2.030  11.685  16.521  0.00  0.00    +0.000 N 
ATOM     25  O   UNL     1      -3.457   9.999  16.953  0.00  0.00    +0.000 OA
ATOM     26  H   UNL     1      -2.646  10.067  19.191  0.00  0.00    +0.000 HD
ATOM     27  H   UNL     1      -1.415  12.404  16.893  0.00  0.00    +0.000 HD
ATOM     28  H   UNL     1      -2.347  11.749  15.565  0.00  0.00    +0.000 HD
ENDBRANCH  19  20
ENDBRANCH   6  19
TORSDOF 5
ENDMDL
MODEL 2
REMARK VINA RESULT:      -7.6      2.920      8.970
REMARK  Name = 
REMARK  6 active torsions:
REMARK  status: ('A' for Active; 'I' for Inactive)
REMARK    1  A    between atoms: C_1  and  O_2
REMARK    2  A    between atoms: O_2  and  C_3
REMARK    3  A    between atoms: C_6  and  C_7
REMARK    4  A    between atoms: N_8  and  N_9
REMARK    5  A    between atoms: C_14  and  C_15
REMARK    6  A    between atoms: C_15  and  C_16
REMARK                            x       y       z     vdW  Elec       q    Type
REMARK                         _______ _______ _______ _____ _____    ______ ____
ROOT
ATOM      1  N   UNL     1       2.761   6.008  20.195  0.00  0.00    +0.000 N 
ATOM      2  C   UNL     1       3.275   5.237  19.182  0.00  0.00    +0.000 C 
ATOM      3  N   UNL     1       3.269   3.946  19.168  0.00  0.00    +0.000 NA
ATOM      4  C   UNL     1       3.798   3.417  18.014  0.00  0.00    +0.000 C 
ATOM      5  O   UNL     1       3.918   2.211  17.824  0.00  0.00    +0.000 OA
ATOM      6  C   UNL     1       4.228   4.436  16.970  0.00  0.00    +0.000 C 
ATOM      7  S   UNL     1       4.004   6.030  17.800  0.00  0.00    +0.000 S 
ATOM      8  H   UNL     1       2.332   5.447  20.929  0.00  0.00    +0.000 HD
ENDROOT
BRANCH   1  10
ATOM      9  C   UNL     1       1.450   7.730  20.862  0.00  0.00    +0.000 C 
ATOM     10  N   UNL     1       2.268   7.261  19.977  0.00  0.00    +0.000 NA
BRANCH   9  14
ATOM     11  C   UNL     1      -0.464  11.503  20.247  0.00  0.00    +0.000 A 
ATOM     12  C   UNL     1       0.216  10.881  19.200  0.00  0.00    +0.000 A 
ATOM     13  C   UNL     1       0.847   9.654  19.397  0.00  0.00    +0.000 A 
ATOM     14  C   UNL     1       0.813   9.048  20.657  0.00  0.00    +0.000 A 
ATOM     15  C   UNL     1       0.156   9.674  21.718  0.00  0.00    +0.000 A 
ATOM     16  C   UNL     1      -0.480  10.906  21.510  0.00  0.00    +0.000 A 
BRANCH  11  18
ATOM     17  C   UNL     1      -2.254  13.007  20.604  0.00  0.00    +0.000 C 
ATOM     18  O   UNL     1      -1.041  12.699  19.927  0.00  0.00    +0.000 OA
ENDBRANCH  11  18
ENDBRANCH   9  14
ENDBRANCH   1  10
BRANCH   6  19
ATOM     19  C   UNL     1       5.676   4.202  16.568  0.00  0.00    +0.000 C 
BRANCH  19  20
ATOM     20  C   UNL     1       6.604   5.228  17.180  0.00  0.00    +0.000 C 
ATOM     21  O   UNL     1       7.023   6.198  16.553  0.00  0.00    +0.000 OA
ATOM     22  N   UNL     1       6.994   4.905  18.469  0.00  0.00    +0.000 N 
ATOM     23  C   UNL     1       7.752   5.643  19.333  0.00  0.00    +0.000 C 
ATOM     24  N   UNL     1       8.197   6.836  18.893  0.00  0.00    +0.000 N 
ATOM     25  O   UNL     1       8.001   5.235  20.463  0.00  0.00    +0.000 OA
ATOM     26  H   UNL     1       6.661   4.050  18.889  0.00  0.00    +0.000 HD
ATOM     27  H   UNL     1       8.074   7.102  17.920  0.00  0.00    +0.000 HD
ATOM     28  H   UNL     1       8.805   7.383  19.484  0.00  0.00    +0.000 HD
ENDBRANCH  19  20
ENDBRANCH   6  19
TORSDOF 5
ENDMDL
MODEL 3
REMARK VINA RESULT:      -7.5      2.935      8.873
REMARK  Name = 
REMARK  6 active torsions:
REMARK  status: ('A' for Active; 'I' for Inactive)
REMARK    1  A    between atoms: C_1  and  O_2
REMARK    2  A    between atoms: O_2  and  C_3
REMARK    3  A    between atoms: C_6  and  C_7
REMARK    4  A    between atoms: N_8  and  N_9
REMARK    5  A    between atoms: C_14  and  C_15
REMARK    6  A    between atoms: C_15  and  C_16
REMARK                            x       y       z     vdW  Elec       q    Type
REMARK                         _______ _______ _______ _____ _____    ______ ____
ROOT
ATOM      1  N   UNL     1       2.430   6.229  20.533  0.00  0.00    +0.000 N 
ATOM      2  C   UNL     1       2.922   5.397  19.558  0.00  0.00    +0.000 C 
ATOM      3  N   UNL     1       2.995   4.112  19.660  0.00  0.00    +0.000 NA
ATOM      4  C   UNL     1       3.477   3.508  18.522  0.00  0.00    +0.000 C 
ATOM      5  O   UNL     1       3.660   2.298  18.432  0.00  0.00    +0.000 OA
ATOM      6  C   UNL     1       3.772   4.447  17.363  0.00  0.00    +0.000 C 
ATOM      7  S   UNL     1       3.504   6.097  18.062  0.00  0.00    +0.000 S 
ATOM      8  H   UNL     1       2.088   5.716  21.343  0.00  0.00    +0.000 HD
ENDROOT
BRANCH   1  10
ATOM      9  C   UNL     1       1.253   8.041  21.212  0.00  0.00    +0.000 C 
ATOM     10  N   UNL     1       1.846   7.426  20.241  0.00  0.00    +0.000 NA
BRANCH   9  14
ATOM     11  C   UNL     1      -0.910  11.652  20.464  0.00  0.00    +0.000 A 
ATOM     12  C   UNL     1      -0.307  10.963  19.411  0.00  0.00    +0.000 A 
ATOM     13  C   UNL     1       0.405   9.789  19.651  0.00  0.00    +0.000 A 
ATOM     14  C   UNL     1       0.530   9.305  20.956  0.00  0.00    +0.000 A 
ATOM     15  C   UNL     1      -0.049  10.000  22.020  0.00  0.00    +0.000 A 
ATOM     16  C   UNL     1      -0.768  11.177  21.770  0.00  0.00    +0.000 A 
BRANCH  11  18
ATOM     17  C   UNL     1      -2.944  12.858  20.495  0.00  0.00    +0.000 C 
ATOM     18  O   UNL     1      -1.579  12.786  20.099  0.00  0.00    +0.000 OA
ENDBRANCH  11  18
ENDBRANCH   9  14
ENDBRANCH   1  10
BRANCH   6  19
ATOM     19  C   UNL     1       5.201   4.258  16.879  0.00  0.00    +0.000 C 
BRANCH  19  20
ATOM     20  C   UNL     1       6.198   4.959  17.775  0.00  0.00    +0.000 C 
ATOM     21  O   UNL     1       6.534   4.509  18.868  0.00  0.00    +0.000 OA
ATOM     22  N   UNL     1       6.607   6.184  17.276  0.00  0.00    +0.000 N 
ATOM     23  C   UNL     1       7.551   7.031  17.784  0.00  0.00    +0.000 C 
ATOM     24  N   UNL     1       8.168   6.652  18.920  0.00  0.00    +0.000 N 
ATOM     25  O   UNL     1       7.827   8.083  17.216  0.00  0.00    +0.000 OA
ATOM     26  H   UNL     1       6.228   6.517  16.402  0.00  0.00    +0.000 HD
ATOM     27  H   UNL     1       7.845   5.836  19.431  0.00  0.00    +0.000 HD
ATOM     28  H   UNL     1       8.831   7.279  19.353  0.00  0.00    +0.000 HD
ENDBRANCH  19  20
ENDBRANCH   6  19
TORSDOF 5
ENDMDL
MODEL 4
REMARK VINA RESULT:      -7.5      3.071      8.637
REMARK  Name = 
REMARK  6 active torsions:
REMARK  status: ('A' for Active; 'I' for Inactive)
REMARK    1  A    between atoms: C_1  and  O_2
REMARK    2  A    between atoms: O_2  and  C_3
REMARK    3  A    between atoms: C_6  and  C_7
REMARK    4  A    between atoms: N_8  and  N_9
REMARK    5  A    between atoms: C_14  and  C_15
REMARK    6  A    between atoms: C_15  and  C_16
REMARK                            x       y       z     vdW  Elec       q    Type
REMARK                         _______ _______ _______ _____ _____    ______ ____
ROOT
ATOM      1  N   UNL     1       2.142   6.775  20.743  0.00  0.00    +0.000 N 
ATOM      2  C   UNL     1       2.209   5.588  20.058  0.00  0.00    +0.000 C 
ATOM      3  N   UNL     1       1.965   4.429  20.573  0.00  0.00    +0.000 NA
ATOM      4  C   UNL     1       2.051   3.404  19.660  0.00  0.00    +0.000 C 
ATOM      5  O   UNL     1       1.894   2.225  19.961  0.00  0.00    +0.000 OA
ATOM      6  C   UNL     1       2.354   3.830  18.233  0.00  0.00    +0.000 C 
ATOM      7  S   UNL     1       2.659   5.611  18.365  0.00  0.00    +0.000 S 
ATOM      8  H   UNL     1       1.838   6.649  21.707  0.00  0.00    +0.000 HD
ENDROOT
BRANCH   1  10
ATOM      9  C   UNL     1       0.992   8.726  20.722  0.00  0.00    +0.000 C 
ATOM     10  N   UNL     1       1.843   7.954  20.128  0.00  0.00    +0.000 NA
BRANCH   9  14
ATOM     11  C   UNL     1      -0.202  12.355  18.803  0.00  0.00    +0.000 A 
ATOM     12  C   UNL     1       0.738  12.382  19.834  0.00  0.00    +0.000 A 
ATOM     13  C   UNL     1       1.124  11.202  20.467  0.00  0.00    +0.000 A 
ATOM     14  C   UNL     1       0.558   9.984  20.078  0.00  0.00    +0.000 A 
ATOM     15  C   UNL     1      -0.401   9.950  19.064  0.00  0.00    +0.000 A 
ATOM     16  C   UNL     1      -0.782  11.140  18.429  0.00  0.00    +0.000 A 
BRANCH  11  18
ATOM     17  C   UNL     1      -0.130  14.707  19.043  0.00  0.00    +0.000 C 
ATOM     18  O   UNL     1      -0.496  13.575  18.262  0.00  0.00    +0.000 OA
ENDBRANCH  11  18
ENDBRANCH   9  14
ENDBRANCH   1  10
BRANCH   6  19
ATOM     19  C   UNL     1       3.568   3.082  17.704  0.00  0.00    +0.000 C 
BRANCH  19  20
ATOM     20  C   UNL     1       4.861   3.652  18.243  0.00  0.00    +0.000 C 
ATOM     21  O   UNL     1       5.100   3.725  19.446  0.00  0.00    +0.000 OA
ATOM     22  N   UNL     1       5.686   4.155  17.252  0.00  0.00    +0.000 N 
ATOM     23  C   UNL     1       6.949   4.661  17.379  0.00  0.00    +0.000 C 
ATOM     24  N   UNL     1       7.475   4.693  18.619  0.00  0.00    +0.000 N 
ATOM     25  O   UNL     1       7.574   5.054  16.399  0.00  0.00    +0.000 OA
ATOM     26  H   UNL     1       5.384   4.122  16.289  0.00  0.00    +0.000 HD
ATOM     27  H   UNL     1       6.900   4.468  19.426  0.00  0.00    +0.000 HD
ATOM     28  H   UNL     1       8.383   5.110  18.758  0.00  0.00    +0.000 HD
ENDBRANCH  19  20
ENDBRANCH   6  19
TORSDOF 5
ENDMDL
MODEL 5
REMARK VINA RESULT:      -7.5      2.933      8.964
REMARK  Name = 
REMARK  6 active torsions:
REMARK  status: ('A' for Active; 'I' for Inactive)
REMARK    1  A    between atoms: C_1  and  O_2
REMARK    2  A    between atoms: O_2  and  C_3
REMARK    3  A    between atoms: C_6  and  C_7
REMARK    4  A    between atoms: N_8  and  N_9
REMARK    5  A    between atoms: C_14  and  C_15
REMARK    6  A    between atoms: C_15  and  C_16
REMARK                            x       y       z     vdW  Elec       q    Type
REMARK                         _______ _______ _______ _____ _____    ______ ____
ROOT
ATOM      1  N   UNL     1       2.773   6.059  19.846  0.00  0.00    +0.000 N 
ATOM      2  C   UNL     1       3.347   5.247  18.901  0.00  0.00    +0.000 C 
ATOM      3  N   UNL     1       3.391   3.958  18.971  0.00  0.00    +0.000 NA
ATOM      4  C   UNL     1       3.976   3.378  17.869  0.00  0.00    +0.000 C 
ATOM      5  O   UNL     1       4.149   2.168  17.762  0.00  0.00    +0.000 OA
ATOM      6  C   UNL     1       4.400   4.344  16.775  0.00  0.00    +0.000 C 
ATOM      7  S   UNL     1       4.088   5.978  17.492  0.00  0.00    +0.000 S 
ATOM      8  H   UNL     1       2.342   5.530  20.602  0.00  0.00    +0.000 HD
ENDROOT
BRANCH   1  10
ATOM      9  C   UNL     1       1.647   7.917  20.486  0.00  0.00    +0.000 C 
ATOM     10  N   UNL     1       2.239   7.274  19.533  0.00  0.00    +0.000 NA
BRANCH   9  14
ATOM     11  C   UNL     1      -0.231  11.680  19.714  0.00  0.00    +0.000 A 
ATOM     12  C   UNL     1      -0.539  10.966  20.873  0.00  0.00    +0.000 A 
ATOM     13  C   UNL     1       0.066   9.735  21.125  0.00  0.00    +0.000 A 
ATOM     14  C   UNL     1       0.976   9.205  20.206  0.00  0.00    +0.000 A 
ATOM     15  C   UNL     1       1.272   9.900  19.032  0.00  0.00    +0.000 A 
ATOM     16  C   UNL     1       0.664  11.139  18.787  0.00  0.00    +0.000 A 
BRANCH  11  18
ATOM     17  C   UNL     1      -1.157  13.571  20.792  0.00  0.00    +0.000 C 
ATOM     18  O   UNL     1      -0.887  12.871  19.583  0.00  0.00    +0.000 OA
ENDBRANCH  11  18
ENDBRANCH   9  14
ENDBRANCH   1  10
BRANCH   6  19
ATOM     19  C   UNL     1       5.868   4.144  16.432  0.00  0.00    +0.000 C 
BRANCH  19  20
ATOM     20  C   UNL     1       6.748   5.184  17.087  0.00  0.00    +0.000 C 
ATOM     21  O   UNL     1       7.220   6.135  16.468  0.00  0.00    +0.000 OA
ATOM     22  N   UNL     1       7.032   4.898  18.412  0.00  0.00    +0.000 N 
ATOM     23  C   UNL     1       7.721   5.659  19.312  0.00  0.00    +0.000 C 
ATOM     24  N   UNL     1       8.205   6.838  18.876  0.00  0.00    +0.000 N 
ATOM     25  O   UNL     1       7.876   5.283  20.470  0.00  0.00    +0.000 OA
ATOM     26  H   UNL     1       6.663   4.055  18.828  0.00  0.00    +0.000 HD
ATOM     27  H   UNL     1       8.162   7.077  17.889  0.00  0.00    +0.000 HD
ATOM     28  H   UNL     1       8.766   7.401  19.498  0.00  0.00    +0.000 HD
ENDBRANCH  19  20
ENDBRANCH   6  19
TORSDOF 5
ENDMDL
MODEL 6
REMARK VINA RESULT:      -7.5      2.860      8.895
REMARK  Name = 
REMARK  6 active torsions:
REMARK  status: ('A' for Active; 'I' for Inactive)
REMARK    1  A    between atoms: C_1  and  O_2
REMARK    2  A    between atoms: O_2  and  C_3
REMARK    3  A    between atoms: C_6  and  C_7
REMARK    4  A    between atoms: N_8  and  N_9
REMARK    5  A    between atoms: C_14  and  C_15
REMARK    6  A    between atoms: C_15  and  C_16
REMARK                            x       y       z     vdW  Elec       q    Type
REMARK                         _______ _______ _______ _____ _____    ______ ____
ROOT
ATOM      1  N   UNL     1       2.404   6.163  20.534  0.00  0.00    +0.000 N 
ATOM      2  C   UNL     1       3.213   5.382  19.748  0.00  0.00    +0.000 C 
ATOM      3  N   UNL     1       3.346   4.104  19.875  0.00  0.00    +0.000 NA
ATOM      4  C   UNL     1       4.177   3.551  18.928  0.00  0.00    +0.000 C 
ATOM      5  O   UNL     1       4.463   2.359  18.904  0.00  0.00    +0.000 OA
ATOM      6  C   UNL     1       4.724   4.525  17.898  0.00  0.00    +0.000 C 
ATOM      7  S   UNL     1       4.151   6.142  18.478  0.00  0.00    +0.000 S 
ATOM      8  H   UNL     1       1.880   5.617  21.215  0.00  0.00    +0.000 HD
ENDROOT
BRANCH   1  10
ATOM      9  C   UNL     1       1.424   8.159  20.969  0.00  0.00    +0.000 C 
ATOM     10  N   UNL     1       1.845   7.321  20.079  0.00  0.00    +0.000 NA
BRANCH   9  14
ATOM     11  C   UNL     1      -0.501  11.790  19.793  0.00  0.00    +0.000 A 
ATOM     12  C   UNL     1      -0.731  11.251  21.059  0.00  0.00    +0.000 A 
ATOM     13  C   UNL     1      -0.111  10.064  21.444  0.00  0.00    +0.000 A 
ATOM     14  C   UNL     1       0.736   9.399  20.553  0.00  0.00    +0.000 A 
ATOM     15  C   UNL     1       0.954   9.917  19.275  0.00  0.00    +0.000 A 
ATOM     16  C   UNL     1       0.331  11.114  18.896  0.00  0.00    +0.000 A 
BRANCH  11  18
ATOM     17  C   UNL     1      -0.437  13.942  18.813  0.00  0.00    +0.000 C 
ATOM     18  O   UNL     1      -1.165  12.956  19.536  0.00  0.00    +0.000 OA
ENDBRANCH  11  18
ENDBRANCH   9  14
ENDBRANCH   1  10
BRANCH   6  19
ATOM     19  C   UNL     1       6.242   4.444  17.847  0.00  0.00    +0.000 C 
BRANCH  19  20
ATOM     20  C   UNL     1       6.795   5.001  16.554  0.00  0.00    +0.000 C 
ATOM     21  O   UNL     1       7.452   6.038  16.508  0.00  0.00    +0.000 OA
ATOM     22  N   UNL     1       6.405   4.274  15.441  0.00  0.00    +0.000 N 
ATOM     23  C   UNL     1       6.786   4.449  14.142  0.00  0.00    +0.000 C 
ATOM     24  N   UNL     1       7.643   5.456  13.883  0.00  0.00    +0.000 N 
ATOM     25  O   UNL     1       6.372   3.707  13.256  0.00  0.00    +0.000 OA
ATOM     26  H   UNL     1       5.803   3.472  15.557  0.00  0.00    +0.000 HD
ATOM     27  H   UNL     1       7.883   6.124  14.611  0.00  0.00    +0.000 HD
ATOM     28  H   UNL     1       7.903   5.649  12.927  0.00  0.00    +0.000 HD
ENDBRANCH  19  20
ENDBRANCH   6  19
TORSDOF 5
ENDMDL
MODEL 7
REMARK VINA RESULT:      -7.4      3.086      8.711
REMARK  Name = 
REMARK  6 active torsions:
REMARK  status: ('A' for Active; 'I' for Inactive)
REMARK    1  A    between atoms: C_1  and  O_2
REMARK    2  A    between atoms: O_2  and  C_3
REMARK    3  A    between atoms: C_6  and  C_7
REMARK    4  A    between atoms: N_8  and  N_9
REMARK    5  A    between atoms: C_14  and  C_15
REMARK    6  A    between atoms: C_15  and  C_16
REMARK                            x       y       z     vdW  Elec       q    Type
REMARK                         _______ _______ _______ _____ _____    ______ ____
ROOT
ATOM      1  N   UNL     1       2.013   6.206  20.866  0.00  0.00    +0.000 N 
ATOM      2  C   UNL     1       2.022   5.210  19.922  0.00  0.00    +0.000 C 
ATOM      3  N   UNL     1       1.669   3.988  20.143  0.00  0.00    +0.000 NA
ATOM      4  C   UNL     1       1.719   3.200  19.017  0.00  0.00    +0.000 C 
ATOM      5  O   UNL     1       1.461   2.000  19.027  0.00  0.00    +0.000 OA
ATOM      6  C   UNL     1       2.117   3.919  17.739  0.00  0.00    +0.000 C 
ATOM      7  S   UNL     1       2.549   5.588  18.295  0.00  0.00    +0.000 S 
ATOM      8  H   UNL     1       1.657   5.886  21.765  0.00  0.00    +0.000 HD
ENDROOT
BRANCH   1  10
ATOM      9  C   UNL     1       0.996   8.192  21.258  0.00  0.00    +0.000 C 
ATOM     10  N   UNL     1       1.832   7.518  20.538  0.00  0.00    +0.000 NA
BRANCH   9  14
ATOM     11  C   UNL     1       0.027  12.230  20.242  0.00  0.00    +0.000 A 
ATOM     12  C   UNL     1       0.627  11.393  19.300  0.00  0.00    +0.000 A 
ATOM     13  C   UNL     1       0.951  10.078  19.629  0.00  0.00    +0.000 A 
ATOM     14  C   UNL     1       0.687   9.596  20.915  0.00  0.00    +0.000 A 
ATOM     15  C   UNL     1       0.110  10.433  21.872  0.00  0.00    +0.000 A 
ATOM     16  C   UNL     1      -0.217  11.753  21.532  0.00  0.00    +0.000 A 
BRANCH  11  18
ATOM     17  C   UNL     1      -0.421  13.636  18.394  0.00  0.00    +0.000 C 
ATOM     18  O   UNL     1      -0.242  13.494  19.798  0.00  0.00    +0.000 OA
ENDBRANCH  11  18
ENDBRANCH   9  14
ENDBRANCH   1  10
BRANCH   6  19
ATOM     19  C   UNL     1       3.295   3.216  17.081  0.00  0.00    +0.000 C 
BRANCH  19  20
ATOM     20  C   UNL     1       4.610   3.591  17.727  0.00  0.00    +0.000 C 
ATOM     21  O   UNL     1       4.799   3.505  18.938  0.00  0.00    +0.000 OA
ATOM     22  N   UNL     1       5.523   4.119  16.830  0.00  0.00    +0.000 N 
ATOM     23  C   UNL     1       6.820   4.481  17.059  0.00  0.00    +0.000 C 
ATOM     24  N   UNL     1       7.290   4.321  18.312  0.00  0.00    +0.000 N 
ATOM     25  O   UNL     1       7.523   4.918  16.154  0.00  0.00    +0.000 OA
ATOM     26  H   UNL     1       5.263   4.224  15.860  0.00  0.00    +0.000 HD
ATOM     27  H   UNL     1       6.660   4.066  19.067  0.00  0.00    +0.000 HD
ATOM     28  H   UNL     1       8.226   4.630  18.530  0.00  0.00    +0.000 HD
ENDBRANCH  19  20
ENDBRANCH   6  19
TORSDOF 5
ENDMDL
MODEL 8
REMARK VINA RESULT:      -7.4      5.885      8.429
REMARK  Name = 
REMARK  6 active torsions:
REMARK  status: ('A' for Active; 'I' for Inactive)
REMARK    1  A    between atoms: C_1  and  O_2
REMARK    2  A    between atoms: O_2  and  C_3
REMARK    3  A    between atoms: C_6  and  C_7
REMARK    4  A    between atoms: N_8  and  N_9
REMARK    5  A    between atoms: C_14  and  C_15
REMARK    6  A    between atoms: C_15  and  C_16
REMARK                            x       y       z     vdW  Elec       q    Type
REMARK                         _______ _______ _______ _____ _____    ______ ____
ROOT
ATOM      1  N   UNL     1       8.167   6.945  18.380  0.00  0.00    +0.000 N 
ATOM      2  C   UNL     1       7.011   6.208  18.400  0.00  0.00    +0.000 C 
ATOM      3  N   UNL     1       6.865   5.089  19.027  0.00  0.00    +0.000 NA
ATOM      4  C   UNL     1       5.591   4.578  18.931  0.00  0.00    +0.000 C 
ATOM      5  O   UNL     1       5.261   3.504  19.424  0.00  0.00    +0.000 OA
ATOM      6  C   UNL     1       4.602   5.443  18.167  0.00  0.00    +0.000 C 
ATOM      7  S   UNL     1       5.616   6.795  17.516  0.00  0.00    +0.000 S 
ATOM      8  H   UNL     1       8.901   6.531  18.953  0.00  0.00    +0.000 HD
ENDROOT
BRANCH   1  10
ATOM      9  C   UNL     1       9.006   8.972  18.945  0.00  0.00    +0.000 C 
ATOM     10  N   UNL     1       8.164   8.301  18.229  0.00  0.00    +0.000 NA
BRANCH   9  14
ATOM     11  C   UNL     1       9.088  13.243  18.766  0.00  0.00    +0.000 A 
ATOM     12  C   UNL     1       9.508  12.580  19.920  0.00  0.00    +0.000 A 
ATOM     13  C   UNL     1       9.476  11.188  19.985  0.00  0.00    +0.000 A 
ATOM     14  C   UNL     1       9.008  10.450  18.894  0.00  0.00    +0.000 A 
ATOM     15  C   UNL     1       8.563  11.105  17.744  0.00  0.00    +0.000 A 
ATOM     16  C   UNL     1       8.602  12.505  17.684  0.00  0.00    +0.000 A 
BRANCH  11  18
ATOM     17  C   UNL     1      10.304  15.134  19.503  0.00  0.00    +0.000 C 
ATOM     18  O   UNL     1       9.169  14.606  18.826  0.00  0.00    +0.000 OA
ENDBRANCH  11  18
ENDBRANCH   9  14
ENDBRANCH   1  10
BRANCH   6  19
ATOM     19  C   UNL     1       3.945   4.639  17.055  0.00  0.00    +0.000 C 
BRANCH  19  20
ATOM     20  C   UNL     1       2.767   3.834  17.560  0.00  0.00    +0.000 C 
ATOM     21  O   UNL     1       2.295   2.889  16.933  0.00  0.00    +0.000 OA
ATOM     22  N   UNL     1       2.236   4.333  18.738  0.00  0.00    +0.000 N 
ATOM     23  C   UNL     1       1.233   3.807  19.502  0.00  0.00    +0.000 C 
ATOM     24  N   UNL     1       0.666   2.664  19.069  0.00  0.00    +0.000 N 
ATOM     25  O   UNL     1       0.879   4.352  20.542  0.00  0.00    +0.000 OA
ATOM     26  H   UNL     1       2.639   5.159  19.154  0.00  0.00    +0.000 HD
ATOM     27  H   UNL     1       0.897   2.293  18.151  0.00  0.00    +0.000 HD
ATOM     28  H   UNL     1      -0.114   2.277  19.578  0.00  0.00    +0.000 HD
ENDBRANCH  19  20
ENDBRANCH   6  19
TORSDOF 5
ENDMDL
MODEL 9
REMARK VINA RESULT:      -7.4      3.165      8.701
REMARK  Name = 
REMARK  6 active torsions:
REMARK  status: ('A' for Active; 'I' for Inactive)
REMARK    1  A    between atoms: C_1  and  O_2
REMARK    2  A    between atoms: O_2  and  C_3
REMARK    3  A    between atoms: C_6  and  C_7
REMARK    4  A    between atoms: N_8  and  N_9
REMARK    5  A    between atoms: C_14  and  C_15
REMARK    6  A    between atoms: C_15  and  C_16
REMARK                            x       y       z     vdW  Elec       q    Type
REMARK                         _______ _______ _______ _____ _____    ______ ____
ROOT
ATOM      1  N   UNL     1       1.814   6.158  20.796  0.00  0.00    +0.000 N 
ATOM      2  C   UNL     1       2.011   5.171  19.863  0.00  0.00    +0.000 C 
ATOM      3  N   UNL     1       1.530   3.976  19.948  0.00  0.00    +0.000 NA
ATOM      4  C   UNL     1       1.830   3.195  18.855  0.00  0.00    +0.000 C 
ATOM      5  O   UNL     1       1.500   2.017  18.763  0.00  0.00    +0.000 OA
ATOM      6  C   UNL     1       2.607   3.895  17.751  0.00  0.00    +0.000 C 
ATOM      7  S   UNL     1       2.982   5.524  18.448  0.00  0.00    +0.000 S 
ATOM      8  H   UNL     1       1.208   5.857  21.557  0.00  0.00    +0.000 HD
ENDROOT
BRANCH   1  10
ATOM      9  C   UNL     1       0.894   8.218  20.996  0.00  0.00    +0.000 C 
ATOM     10  N   UNL     1       1.816   7.482  20.467  0.00  0.00    +0.000 NA
BRANCH   9  14
ATOM     11  C   UNL     1       0.656  12.355  19.946  0.00  0.00    +0.000 A 
ATOM     12  C   UNL     1       0.363  11.943  21.246  0.00  0.00    +0.000 A 
ATOM     13  C   UNL     1       0.432  10.595  21.591  0.00  0.00    +0.000 A 
ATOM     14  C   UNL     1       0.784   9.646  20.627  0.00  0.00    +0.000 A 
ATOM     15  C   UNL     1       1.055  10.045  19.317  0.00  0.00    +0.000 A 
ATOM     16  C   UNL     1       0.987  11.404  18.978  0.00  0.00    +0.000 A 
BRANCH  11  18
ATOM     17  C   UNL     1      -0.216  14.098  18.604  0.00  0.00    +0.000 C 
ATOM     18  O   UNL     1       0.553  13.702  19.734  0.00  0.00    +0.000 OA
ENDBRANCH  11  18
ENDBRANCH   9  14
ENDBRANCH   1  10
BRANCH   6  19
ATOM     19  C   UNL     1       3.869   3.115  17.416  0.00  0.00    +0.000 C 
BRANCH  19  20
ATOM     20  C   UNL     1       4.956   4.010  16.863  0.00  0.00    +0.000 C 
ATOM     21  O   UNL     1       4.802   4.686  15.849  0.00  0.00    +0.000 OA
ATOM     22  N   UNL     1       6.147   3.909  17.562  0.00  0.00    +0.000 N 
ATOM     23  C   UNL     1       7.294   4.630  17.385  0.00  0.00    +0.000 C 
ATOM     24  N   UNL     1       7.293   5.555  16.405  0.00  0.00    +0.000 N 
ATOM     25  O   UNL     1       8.273   4.445  18.101  0.00  0.00    +0.000 OA
ATOM     26  H   UNL     1       6.213   3.274  18.344  0.00  0.00    +0.000 HD
ATOM     27  H   UNL     1       6.514   5.611  15.755  0.00  0.00    +0.000 HD
ATOM     28  H   UNL     1       8.140   6.066  16.210  0.00  0.00    +0.000 HD
ENDBRANCH  19  20
ENDBRANCH   6  19
TORSDOF 5
ENDMDL
