MODEL 1
REMARK VINA RESULT:      -8.0      0.000      0.000
REMARK  Name = 
REMARK  8 active torsions:
REMARK  status: ('A' for Active; 'I' for Inactive)
REMARK    1  A    between atoms: C_1  and  O_2
REMARK    2  A    between atoms: O_2  and  C_3
REMARK    3  A    between atoms: C_8  and  C_9
REMARK    4  A    between atoms: C_11  and  N_12
REMARK    5  A    between atoms: N_12  and  C_13
REMARK    6  A    between atoms: C_17  and  P_18
REMARK    7  A    between atoms: P_18  and  O_20
REMARK    8  A    between atoms: P_18  and  O_21
REMARK                            x       y       z     vdW  Elec       q    Type
REMARK                         _______ _______ _______ _____ _____    ______ ____
ROOT
ATOM      1  C   UNL     1       0.941   9.485  20.119  0.00  0.00    +0.000 A 
ATOM      2  C   UNL     1       1.518   8.271  20.446  0.00  0.00    +0.000 A 
ATOM      3  C   UNL     1       2.183   7.577  19.447  0.00  0.00    +0.000 A 
ATOM      4  N   UNL     1       2.297   8.066  18.204  0.00  0.00    +0.000 NA
ATOM      5  C   UNL     1       1.741   9.258  17.979  0.00  0.00    +0.000 A 
ATOM      6  N   UNL     1       1.067   9.998  18.871  0.00  0.00    +0.000 NA
ENDROOT
BRANCH   1  12
ATOM      7  C   UNL     1       0.036  11.743  20.950  0.00  0.00    +0.000 A 
ATOM      8  C   UNL     1      -0.718  12.462  21.896  0.00  0.00    +0.000 A 
ATOM      9  C   UNL     1      -1.243  11.830  23.019  0.00  0.00    +0.000 A 
ATOM     10  C   UNL     1      -1.032  10.472  23.206  0.00  0.00    +0.000 A 
ATOM     11  C   UNL     1      -0.319   9.745  22.249  0.00  0.00    +0.000 A 
ATOM     12  C   UNL     1       0.217  10.346  21.091  0.00  0.00    +0.000 A 
BRANCH   7  14
ATOM     13  C   UNL     1      -0.129  13.508  19.380  0.00  0.00    +0.000 C 
ATOM     14  O   UNL     1       0.588  12.369  19.856  0.00  0.00    +0.000 OA
ENDBRANCH   7  14
ENDBRANCH   1  12
BRANCH   3  15
ATOM     15  N   UNL     1       2.737   6.320  19.777  0.00  0.00    +0.000 N 
ATOM     16  H   UNL     1       3.066   6.315  20.734  0.00  0.00    +0.000 HD
BRANCH  15  17
ATOM     17  C   UNL     1       3.468   5.462  18.930  0.00  0.00    +0.000 A 
ATOM     18  C   UNL     1       2.783   4.524  18.145  0.00  0.00    +0.000 A 
ATOM     19  C   UNL     1       3.464   3.721  17.233  0.00  0.00    +0.000 A 
ATOM     20  C   UNL     1       4.835   3.881  17.065  0.00  0.00    +0.000 A 
ATOM     21  C   UNL     1       5.548   4.830  17.814  0.00  0.00    +0.000 A 
ATOM     22  C   UNL     1       4.861   5.575  18.787  0.00  0.00    +0.000 A 
BRANCH  21  23
ATOM     23  P   UNL     1       7.173   5.219  17.281  0.00  0.00    +0.000 P 
ATOM     24  O   UNL     1       7.378   5.839  15.933  0.00  0.00    +0.000 OA
BRANCH  23  25
ATOM     25  O   UNL     1       7.707   6.264  18.380  0.00  0.00    +0.000 OA
ATOM     26  H   UNL     1       6.975   6.526  18.968  0.00  0.00    +0.000 HD
ENDBRANCH  23  25
BRANCH  23  27
ATOM     27  O   UNL     1       8.237   4.032  17.485  0.00  0.00    +0.000 OA
ATOM     28  H   UNL     1       9.153   4.365  17.418  0.00  0.00    +0.000 HD
ENDBRANCH  23  27
ENDBRANCH  21  23
ENDBRANCH  15  17
ENDBRANCH   3  15
TORSDOF 7
ENDMDL
MODEL 2
REMARK VINA RESULT:      -8.0      2.972      8.581
REMARK  Name = 
REMARK  8 active torsions:
REMARK  status: ('A' for Active; 'I' for Inactive)
REMARK    1  A    between atoms: C_1  and  O_2
REMARK    2  A    between atoms: O_2  and  C_3
REMARK    3  A    between atoms: C_8  and  C_9
REMARK    4  A    between atoms: C_11  and  N_12
REMARK    5  A    between atoms: N_12  and  C_13
REMARK    6  A    between atoms: C_17  and  P_18
REMARK    7  A    between atoms: P_18  and  O_20
REMARK    8  A    between atoms: P_18  and  O_21
REMARK                            x       y       z     vdW  Elec       q    Type
REMARK                         _______ _______ _______ _____ _____    ______ ____
ROOT
ATOM      1  C   UNL     1       3.896   4.479  18.436  0.00  0.00    +0.000 A 
ATOM      2  C   UNL     1       3.506   5.561  19.205  0.00  0.00    +0.000 A 
ATOM      3  C   UNL     1       2.473   5.378  20.109  0.00  0.00    +0.000 A 
ATOM      4  N   UNL     1       1.877   4.188  20.268  0.00  0.00    +0.000 NA
ATOM      5  C   UNL     1       2.332   3.187  19.512  0.00  0.00    +0.000 A 
ATOM      6  N   UNL     1       3.313   3.267  18.602  0.00  0.00    +0.000 NA
ENDROOT
BRANCH   1  12
ATOM      7  C   UNL     1       6.374   4.636  17.770  0.00  0.00    +0.000 A 
ATOM      8  C   UNL     1       7.351   4.610  16.759  0.00  0.00    +0.000 A 
ATOM      9  C   UNL     1       6.988   4.539  15.417  0.00  0.00    +0.000 A 
ATOM     10  C   UNL     1       5.646   4.483  15.070  0.00  0.00    +0.000 A 
ATOM     11  C   UNL     1       4.673   4.468  16.072  0.00  0.00    +0.000 A 
ATOM     12  C   UNL     1       5.001   4.523  17.442  0.00  0.00    +0.000 A 
BRANCH   7  14
ATOM     13  C   UNL     1       7.722   5.722  19.386  0.00  0.00    +0.000 C 
ATOM     14  O   UNL     1       6.724   4.742  19.096  0.00  0.00    +0.000 OA
ENDBRANCH   7  14
ENDBRANCH   1  12
BRANCH   3  15
ATOM     15  N   UNL     1       2.054   6.496  20.864  0.00  0.00    +0.000 N 
ATOM     16  H   UNL     1       1.457   6.206  21.629  0.00  0.00    +0.000 HD
BRANCH  15  17
ATOM     17  C   UNL     1       1.758   7.788  20.383  0.00  0.00    +0.000 A 
ATOM     18  C   UNL     1       1.847   8.046  19.008  0.00  0.00    +0.000 A 
ATOM     19  C   UNL     1       1.478   9.284  18.487  0.00  0.00    +0.000 A 
ATOM     20  C   UNL     1       0.972  10.264  19.335  0.00  0.00    +0.000 A 
ATOM     21  C   UNL     1       0.843  10.029  20.712  0.00  0.00    +0.000 A 
ATOM     22  C   UNL     1       1.295   8.806  21.234  0.00  0.00    +0.000 A 
BRANCH  21  23
ATOM     23  P   UNL     1      -0.136  11.158  21.632  0.00  0.00    +0.000 P 
ATOM     24  O   UNL     1      -0.433  10.873  23.072  0.00  0.00    +0.000 OA
BRANCH  23  25
ATOM     25  O   UNL     1       0.692  12.535  21.571  0.00  0.00    +0.000 OA
ATOM     26  H   UNL     1       1.519  12.445  22.080  0.00  0.00    +0.000 HD
ENDBRANCH  23  25
BRANCH  23  27
ATOM     27  O   UNL     1      -1.489  11.613  20.893  0.00  0.00    +0.000 OA
ATOM     28  H   UNL     1      -1.504  11.302  19.966  0.00  0.00    +0.000 HD
ENDBRANCH  23  27
ENDBRANCH  21  23
ENDBRANCH  15  17
ENDBRANCH   3  15
TORSDOF 7
ENDMDL
MODEL 3
REMARK VINA RESULT:      -7.9      0.741      1.168
REMARK  Name = 
REMARK  8 active torsions:
REMARK  status: ('A' for Active; 'I' for Inactive)
REMARK    1  A    between atoms: C_1  and  O_2
REMARK    2  A    between atoms: O_2  and  C_3
REMARK    3  A    between atoms: C_8  and  C_9
REMARK    4  A    between atoms: C_11  and  N_12
REMARK    5  A    between atoms: N_12  and  C_13
REMARK    6  A    between atoms: C_17  and  P_18
REMARK    7  A    between atoms: P_18  and  O_20
REMARK    8  A    between atoms: P_18  and  O_21
REMARK                            x       y       z     vdW  Elec       q    Type
REMARK                         _______ _______ _______ _____ _____    ______ ____
ROOT
ATOM      1  C   UNL     1       0.945   9.576  20.048  0.00  0.00    +0.000 A 
ATOM      2  C   UNL     1       1.563   8.377  20.359  0.00  0.00    +0.000 A 
ATOM      3  C   UNL     1       2.190   7.685  19.336  0.00  0.00    +0.000 A 
ATOM      4  N   UNL     1       2.232   8.160  18.084  0.00  0.00    +0.000 NA
ATOM      5  C   UNL     1       1.641   9.338  17.873  0.00  0.00    +0.000 A 
ATOM      6  N   UNL     1       0.998  10.076  18.790  0.00  0.00    +0.000 NA
ENDROOT
BRANCH   1  12
ATOM      7  C   UNL     1       0.211  11.849  20.998  0.00  0.00    +0.000 A 
ATOM      8  C   UNL     1      -0.521  12.570  21.959  0.00  0.00    +0.000 A 
ATOM      9  C   UNL     1      -1.161  11.917  23.008  0.00  0.00    +0.000 A 
ATOM     10  C   UNL     1      -1.086  10.536  23.105  0.00  0.00    +0.000 A 
ATOM     11  C   UNL     1      -0.395   9.811  22.132  0.00  0.00    +0.000 A 
ATOM     12  C   UNL     1       0.254  10.434  21.046  0.00  0.00    +0.000 A 
BRANCH   7  14
ATOM     13  C   UNL     1       2.022  13.243  20.379  0.00  0.00    +0.000 C 
ATOM     14  O   UNL     1       0.876  12.491  19.979  0.00  0.00    +0.000 OA
ENDBRANCH   7  14
ENDBRANCH   1  12
BRANCH   3  15
ATOM     15  N   UNL     1       2.786   6.443  19.651  0.00  0.00    +0.000 N 
ATOM     16  H   UNL     1       3.226   6.480  20.562  0.00  0.00    +0.000 HD
BRANCH  15  17
ATOM     17  C   UNL     1       3.416   5.549  18.762  0.00  0.00    +0.000 A 
ATOM     18  C   UNL     1       2.675   4.494  18.209  0.00  0.00    +0.000 A 
ATOM     19  C   UNL     1       3.240   3.645  17.260  0.00  0.00    +0.000 A 
ATOM     20  C   UNL     1       4.540   3.871  16.820  0.00  0.00    +0.000 A 
ATOM     21  C   UNL     1       5.299   4.934  17.331  0.00  0.00    +0.000 A 
ATOM     22  C   UNL     1       4.745   5.732  18.346  0.00  0.00    +0.000 A 
BRANCH  21  23
ATOM     23  P   UNL     1       6.763   5.366  16.465  0.00  0.00    +0.000 P 
ATOM     24  O   UNL     1       7.923   4.419  16.461  0.00  0.00    +0.000 OA
BRANCH  23  25
ATOM     25  O   UNL     1       6.279   5.546  14.943  0.00  0.00    +0.000 OA
ATOM     26  H   UNL     1       7.045   5.469  14.343  0.00  0.00    +0.000 HD
ENDBRANCH  23  25
BRANCH  23  27
ATOM     27  O   UNL     1       7.294   6.853  16.767  0.00  0.00    +0.000 OA
ATOM     28  H   UNL     1       8.227   6.841  17.056  0.00  0.00    +0.000 HD
ENDBRANCH  23  27
ENDBRANCH  21  23
ENDBRANCH  15  17
ENDBRANCH   3  15
TORSDOF 7
ENDMDL
MODEL 4
REMARK VINA RESULT:      -7.7      2.992      8.549
REMARK  Name = 
REMARK  8 active torsions:
REMARK  status: ('A' for Active; 'I' for Inactive)
REMARK    1  A    between atoms: C_1  and  O_2
REMARK    2  A    between atoms: O_2  and  C_3
REMARK    3  A    between atoms: C_8  and  C_9
REMARK    4  A    between atoms: C_11  and  N_12
REMARK    5  A    between atoms: N_12  and  C_13
REMARK    6  A    between atoms: C_17  and  P_18
REMARK    7  A    between atoms: P_18  and  O_20
REMARK    8  A    between atoms: P_18  and  O_21
REMARK                            x       y       z     vdW  Elec       q    Type
REMARK                         _______ _______ _______ _____ _____    ______ ____
ROOT
ATOM      1  C   UNL     1       4.257   4.395  18.442  0.00  0.00    +0.000 A 
ATOM      2  C   UNL     1       3.670   5.502  19.030  0.00  0.00    +0.000 A 
ATOM      3  C   UNL     1       2.790   5.292  20.079  0.00  0.00    +0.000 A 
ATOM      4  N   UNL     1       2.526   4.062  20.542  0.00  0.00    +0.000 NA
ATOM      5  C   UNL     1       3.157   3.050  19.943  0.00  0.00    +0.000 A 
ATOM      6  N   UNL     1       4.012   3.149  18.915  0.00  0.00    +0.000 NA
ENDROOT
BRANCH   1  12
ATOM      7  C   UNL     1       6.635   4.594  17.487  0.00  0.00    +0.000 A 
ATOM      8  C   UNL     1       7.484   4.598  16.365  0.00  0.00    +0.000 A 
ATOM      9  C   UNL     1       6.963   4.548  15.076  0.00  0.00    +0.000 A 
ATOM     10  C   UNL     1       5.590   4.482  14.891  0.00  0.00    +0.000 A 
ATOM     11  C   UNL     1       4.745   4.437  16.002  0.00  0.00    +0.000 A 
ATOM     12  C   UNL     1       5.234   4.471  17.324  0.00  0.00    +0.000 A 
BRANCH   7  14
ATOM     13  C   UNL     1       7.722   5.939  19.105  0.00  0.00    +0.000 C 
ATOM     14  O   UNL     1       7.142   4.680  18.763  0.00  0.00    +0.000 OA
ENDBRANCH   7  14
ENDBRANCH   1  12
BRANCH   3  15
ATOM     15  N   UNL     1       2.165   6.422  20.649  0.00  0.00    +0.000 N 
ATOM     16  H   UNL     1       1.444   6.140  21.302  0.00  0.00    +0.000 HD
BRANCH  15  17
ATOM     17  C   UNL     1       1.898   7.657  20.023  0.00  0.00    +0.000 A 
ATOM     18  C   UNL     1       2.093   7.782  18.640  0.00  0.00    +0.000 A 
ATOM     19  C   UNL     1       1.758   8.958  17.974  0.00  0.00    +0.000 A 
ATOM     20  C   UNL     1       1.178  10.007  18.679  0.00  0.00    +0.000 A 
ATOM     21  C   UNL     1       0.941   9.905  20.058  0.00  0.00    +0.000 A 
ATOM     22  C   UNL     1       1.360   8.745  20.731  0.00  0.00    +0.000 A 
BRANCH  21  23
ATOM     23  P   UNL     1      -0.116  11.103  20.784  0.00  0.00    +0.000 P 
ATOM     24  O   UNL     1       0.383  12.500  20.985  0.00  0.00    +0.000 OA
BRANCH  23  25
ATOM     25  O   UNL     1      -1.371  11.176  19.782  0.00  0.00    +0.000 OA
ATOM     26  H   UNL     1      -1.107  11.619  18.954  0.00  0.00    +0.000 HD
ENDBRANCH  23  25
BRANCH  23  27
ATOM     27  O   UNL     1      -0.855  10.606  22.122  0.00  0.00    +0.000 OA
ATOM     28  H   UNL     1      -1.438   9.844  21.939  0.00  0.00    +0.000 HD
ENDBRANCH  23  27
ENDBRANCH  21  23
ENDBRANCH  15  17
ENDBRANCH   3  15
TORSDOF 7
ENDMDL
MODEL 5
REMARK VINA RESULT:      -7.7      4.048      9.124
REMARK  Name = 
REMARK  8 active torsions:
REMARK  status: ('A' for Active; 'I' for Inactive)
REMARK    1  A    between atoms: C_1  and  O_2
REMARK    2  A    between atoms: O_2  and  C_3
REMARK    3  A    between atoms: C_8  and  C_9
REMARK    4  A    between atoms: C_11  and  N_12
REMARK    5  A    between atoms: N_12  and  C_13
REMARK    6  A    between atoms: C_17  and  P_18
REMARK    7  A    between atoms: P_18  and  O_20
REMARK    8  A    between atoms: P_18  and  O_21
REMARK                            x       y       z     vdW  Elec       q    Type
REMARK                         _______ _______ _______ _____ _____    ______ ____
ROOT
ATOM      1  C   UNL     1       2.451   7.306  18.584  0.00  0.00    +0.000 A 
ATOM      2  C   UNL     1       1.878   8.391  17.944  0.00  0.00    +0.000 A 
ATOM      3  C   UNL     1       1.163   9.295  18.712  0.00  0.00    +0.000 A 
ATOM      4  N   UNL     1       1.042   9.154  20.039  0.00  0.00    +0.000 NA
ATOM      5  C   UNL     1       1.651   8.100  20.585  0.00  0.00    +0.000 A 
ATOM      6  N   UNL     1       2.353   7.164  19.928  0.00  0.00    +0.000 NA
ENDROOT
BRANCH   1  12
ATOM      7  C   UNL     1       2.898   4.907  17.777  0.00  0.00    +0.000 A 
ATOM      8  C   UNL     1       3.706   4.014  17.049  0.00  0.00    +0.000 A 
ATOM      9  C   UNL     1       4.908   4.435  16.487  0.00  0.00    +0.000 A 
ATOM     10  C   UNL     1       5.312   5.754  16.635  0.00  0.00    +0.000 A 
ATOM     11  C   UNL     1       4.494   6.654  17.321  0.00  0.00    +0.000 A 
ATOM     12  C   UNL     1       3.263   6.270  17.893  0.00  0.00    +0.000 A 
BRANCH   7  14
ATOM     13  C   UNL     1       1.542   3.074  18.415  0.00  0.00    +0.000 C 
ATOM     14  O   UNL     1       1.727   4.489  18.365  0.00  0.00    +0.000 OA
ENDBRANCH   7  14
ENDBRANCH   1  12
BRANCH   3  15
ATOM     15  N   UNL     1       0.548  10.380  18.048  0.00  0.00    +0.000 N 
ATOM     16  H   UNL     1       1.161  11.186  18.038  0.00  0.00    +0.000 HD
BRANCH  15  17
ATOM     17  C   UNL     1      -0.821  10.719  18.054  0.00  0.00    +0.000 A 
ATOM     18  C   UNL     1      -1.728   9.926  17.336  0.00  0.00    +0.000 A 
ATOM     19  C   UNL     1      -3.097  10.179  17.390  0.00  0.00    +0.000 A 
ATOM     20  C   UNL     1      -3.576  11.201  18.202  0.00  0.00    +0.000 A 
ATOM     21  C   UNL     1      -2.699  11.995  18.956  0.00  0.00    +0.000 A 
ATOM     22  C   UNL     1      -1.316  11.781  18.828  0.00  0.00    +0.000 A 
BRANCH  21  23
ATOM     23  P   UNL     1      -3.400  12.994  20.217  0.00  0.00    +0.000 P 
ATOM     24  O   UNL     1      -3.443  12.482  21.624  0.00  0.00    +0.000 OA
BRANCH  23  25
ATOM     25  O   UNL     1      -2.496  14.323  20.212  0.00  0.00    +0.000 OA
ATOM     26  H   UNL     1      -3.070  15.112  20.194  0.00  0.00    +0.000 HD
ENDBRANCH  23  25
BRANCH  23  27
ATOM     27  O   UNL     1      -4.829  13.626  19.839  0.00  0.00    +0.000 OA
ATOM     28  H   UNL     1      -5.493  13.431  20.529  0.00  0.00    +0.000 HD
ENDBRANCH  23  27
ENDBRANCH  21  23
ENDBRANCH  15  17
ENDBRANCH   3  15
TORSDOF 7
ENDMDL
MODEL 6
REMARK VINA RESULT:      -7.7      0.925      1.087
REMARK  Name = 
REMARK  8 active torsions:
REMARK  status: ('A' for Active; 'I' for Inactive)
REMARK    1  A    between atoms: C_1  and  O_2
REMARK    2  A    between atoms: O_2  and  C_3
REMARK    3  A    between atoms: C_8  and  C_9
REMARK    4  A    between atoms: C_11  and  N_12
REMARK    5  A    between atoms: N_12  and  C_13
REMARK    6  A    between atoms: C_17  and  P_18
REMARK    7  A    between atoms: P_18  and  O_20
REMARK    8  A    between atoms: P_18  and  O_21
REMARK                            x       y       z     vdW  Elec       q    Type
REMARK                         _______ _______ _______ _____ _____    ______ ____
ROOT
ATOM      1  C   UNL     1       0.951   9.264  20.014  0.00  0.00    +0.000 A 
ATOM      2  C   UNL     1       1.621   8.102  20.352  0.00  0.00    +0.000 A 
ATOM      3  C   UNL     1       2.370   7.474  19.371  0.00  0.00    +0.000 A 
ATOM      4  N   UNL     1       2.477   7.979  18.133  0.00  0.00    +0.000 NA
ATOM      5  C   UNL     1       1.828   9.120  17.897  0.00  0.00    +0.000 A 
ATOM      6  N   UNL     1       1.068   9.794  18.772  0.00  0.00    +0.000 NA
ENDROOT
BRANCH   1  12
ATOM      7  C   UNL     1      -0.527  11.269  20.652  0.00  0.00    +0.000 A 
ATOM      8  C   UNL     1      -1.333  11.911  21.609  0.00  0.00    +0.000 A 
ATOM      9  C   UNL     1      -1.450  11.405  22.900  0.00  0.00    +0.000 A 
ATOM     10  C   UNL     1      -0.772  10.246  23.248  0.00  0.00    +0.000 A 
ATOM     11  C   UNL     1      -0.003   9.581  22.290  0.00  0.00    +0.000 A 
ATOM     12  C   UNL     1       0.129  10.054  20.968  0.00  0.00    +0.000 A 
BRANCH   7  14
ATOM     13  C   UNL     1      -1.585  12.231  18.765  0.00  0.00    +0.000 C 
ATOM     14  O   UNL     1      -0.379  11.783  19.384  0.00  0.00    +0.000 OA
ENDBRANCH   7  14
ENDBRANCH   1  12
BRANCH   3  15
ATOM     15  N   UNL     1       3.020   6.267  19.711  0.00  0.00    +0.000 N 
ATOM     16  H   UNL     1       3.631   6.403  20.507  0.00  0.00    +0.000 HD
BRANCH  15  17
ATOM     17  C   UNL     1       3.467   5.261  18.830  0.00  0.00    +0.000 A 
ATOM     18  C   UNL     1       2.611   4.196  18.513  0.00  0.00    +0.000 A 
ATOM     19  C   UNL     1       2.984   3.232  17.580  0.00  0.00    +0.000 A 
ATOM     20  C   UNL     1       4.202   3.349  16.919  0.00  0.00    +0.000 A 
ATOM     21  C   UNL     1       5.070   4.417  17.191  0.00  0.00    +0.000 A 
ATOM     22  C   UNL     1       4.716   5.336  18.193  0.00  0.00    +0.000 A 
BRANCH  21  23
ATOM     23  P   UNL     1       6.388   4.690  16.064  0.00  0.00    +0.000 P 
ATOM     24  O   UNL     1       6.559   6.043  15.444  0.00  0.00    +0.000 OA
BRANCH  23  25
ATOM     25  O   UNL     1       7.710   4.380  16.924  0.00  0.00    +0.000 OA
ATOM     26  H   UNL     1       7.710   3.445  17.203  0.00  0.00    +0.000 HD
ENDBRANCH  23  25
BRANCH  23  27
ATOM     27  O   UNL     1       6.525   3.564  14.925  0.00  0.00    +0.000 OA
ATOM     28  H   UNL     1       7.402   3.135  14.959  0.00  0.00    +0.000 HD
ENDBRANCH  23  27
ENDBRANCH  21  23
ENDBRANCH  15  17
ENDBRANCH   3  15
TORSDOF 7
ENDMDL
MODEL 7
REMARK VINA RESULT:      -7.7      4.383      9.060
REMARK  Name = 
REMARK  8 active torsions:
REMARK  status: ('A' for Active; 'I' for Inactive)
REMARK    1  A    between atoms: C_1  and  O_2
REMARK    2  A    between atoms: O_2  and  C_3
REMARK    3  A    between atoms: C_8  and  C_9
REMARK    4  A    between atoms: C_11  and  N_12
REMARK    5  A    between atoms: N_12  and  C_13
REMARK    6  A    between atoms: C_17  and  P_18
REMARK    7  A    between atoms: P_18  and  O_20
REMARK    8  A    between atoms: P_18  and  O_21
REMARK                            x       y       z     vdW  Elec       q    Type
REMARK                         _______ _______ _______ _____ _____    ______ ____
ROOT
ATOM      1  C   UNL     1       6.234   4.934  15.580  0.00  0.00    +0.000 A 
ATOM      2  C   UNL     1       5.184   5.693  16.066  0.00  0.00    +0.000 A 
ATOM      3  C   UNL     1       5.226   6.086  17.393  0.00  0.00    +0.000 A 
ATOM      4  N   UNL     1       6.257   5.774  18.190  0.00  0.00    +0.000 NA
ATOM      5  C   UNL     1       7.245   5.068  17.637  0.00  0.00    +0.000 A 
ATOM      6  N   UNL     1       7.292   4.629  16.371  0.00  0.00    +0.000 NA
ENDROOT
BRANCH   1  12
ATOM      7  C   UNL     1       7.374   4.808  13.280  0.00  0.00    +0.000 A 
ATOM      8  C   UNL     1       7.411   4.260  11.985  0.00  0.00    +0.000 A 
ATOM      9  C   UNL     1       6.397   3.420  11.536  0.00  0.00    +0.000 A 
ATOM     10  C   UNL     1       5.339   3.109  12.377  0.00  0.00    +0.000 A 
ATOM     11  C   UNL     1       5.317   3.618  13.678  0.00  0.00    +0.000 A 
ATOM     12  C   UNL     1       6.333   4.460  14.175  0.00  0.00    +0.000 A 
BRANCH   7  14
ATOM     13  C   UNL     1       9.165   6.240  12.690  0.00  0.00    +0.000 C 
ATOM     14  O   UNL     1       8.355   5.668  13.717  0.00  0.00    +0.000 OA
ENDBRANCH   7  14
ENDBRANCH   1  12
BRANCH   3  15
ATOM     15  N   UNL     1       4.133   6.828  17.894  0.00  0.00    +0.000 N 
ATOM     16  H   UNL     1       4.320   7.822  17.838  0.00  0.00    +0.000 HD
BRANCH  15  17
ATOM     17  C   UNL     1       3.283   6.479  18.964  0.00  0.00    +0.000 A 
ATOM     18  C   UNL     1       2.416   7.445  19.495  0.00  0.00    +0.000 A 
ATOM     19  C   UNL     1       1.502   7.113  20.492  0.00  0.00    +0.000 A 
ATOM     20  C   UNL     1       1.414   5.798  20.936  0.00  0.00    +0.000 A 
ATOM     21  C   UNL     1       2.247   4.801  20.406  0.00  0.00    +0.000 A 
ATOM     22  C   UNL     1       3.219   5.166  19.460  0.00  0.00    +0.000 A 
BRANCH  21  23
ATOM     23  P   UNL     1       1.820   3.133  20.743  0.00  0.00    +0.000 P 
ATOM     24  O   UNL     1       1.961   2.604  22.138  0.00  0.00    +0.000 OA
BRANCH  23  25
ATOM     25  O   UNL     1       0.266   3.037  20.344  0.00  0.00    +0.000 OA
ATOM     26  H   UNL     1      -0.284   3.069  21.149  0.00  0.00    +0.000 HD
ENDBRANCH  23  25
BRANCH  23  27
ATOM     27  O   UNL     1       2.440   2.070  19.710  0.00  0.00    +0.000 OA
ATOM     28  H   UNL     1       3.079   2.499  19.107  0.00  0.00    +0.000 HD
ENDBRANCH  23  27
ENDBRANCH  21  23
ENDBRANCH  15  17
ENDBRANCH   3  15
TORSDOF 7
ENDMDL
MODEL 8
REMARK VINA RESULT:      -7.6      1.755      2.294
REMARK  Name = 
REMARK  8 active torsions:
REMARK  status: ('A' for Active; 'I' for Inactive)
REMARK    1  A    between atoms: C_1  and  O_2
REMARK    2  A    between atoms: O_2  and  C_3
REMARK    3  A    between atoms: C_8  and  C_9
REMARK    4  A    between atoms: C_11  and  N_12
REMARK    5  A    between atoms: N_12  and  C_13
REMARK    6  A    between atoms: C_17  and  P_18
REMARK    7  A    between atoms: P_18  and  O_20
REMARK    8  A    between atoms: P_18  and  O_21
REMARK                            x       y       z     vdW  Elec       q    Type
REMARK                         _______ _______ _______ _____ _____    ______ ____
ROOT
ATOM      1  C   UNL     1       0.490   9.671  20.037  0.00  0.00    +0.000 A 
ATOM      2  C   UNL     1       1.263   9.257  18.967  0.00  0.00    +0.000 A 
ATOM      3  C   UNL     1       2.063   8.139  19.137  0.00  0.00    +0.000 A 
ATOM      4  N   UNL     1       2.080   7.451  20.288  0.00  0.00    +0.000 NA
ATOM      5  C   UNL     1       1.282   7.897  21.260  0.00  0.00    +0.000 A 
ATOM      6  N   UNL     1       0.483   8.972  21.198  0.00  0.00    +0.000 NA
ENDROOT
BRANCH   1  12
ATOM      7  C   UNL     1      -1.398  11.060  18.981  0.00  0.00    +0.000 A 
ATOM      8  C   UNL     1      -2.265  12.166  19.058  0.00  0.00    +0.000 A 
ATOM      9  C   UNL     1      -2.147  13.095  20.087  0.00  0.00    +0.000 A 
ATOM     10  C   UNL     1      -1.170  12.926  21.057  0.00  0.00    +0.000 A 
ATOM     11  C   UNL     1      -0.333  11.809  21.009  0.00  0.00    +0.000 A 
ATOM     12  C   UNL     1      -0.430  10.838  19.991  0.00  0.00    +0.000 A 
BRANCH   7  14
ATOM     13  C   UNL     1      -2.811   9.749  17.607  0.00  0.00    +0.000 C 
ATOM     14  O   UNL     1      -1.486  10.157  17.947  0.00  0.00    +0.000 OA
ENDBRANCH   7  14
ENDBRANCH   1  12
BRANCH   3  15
ATOM     15  N   UNL     1       2.880   7.743  18.055  0.00  0.00    +0.000 N 
ATOM     16  H   UNL     1       2.572   8.184  17.196  0.00  0.00    +0.000 HD
BRANCH  15  17
ATOM     17  C   UNL     1       3.476   6.481  17.852  0.00  0.00    +0.000 A 
ATOM     18  C   UNL     1       2.677   5.330  17.893  0.00  0.00    +0.000 A 
ATOM     19  C   UNL     1       3.214   4.076  17.610  0.00  0.00    +0.000 A 
ATOM     20  C   UNL     1       4.550   3.968  17.238  0.00  0.00    +0.000 A 
ATOM     21  C   UNL     1       5.371   5.103  17.159  0.00  0.00    +0.000 A 
ATOM     22  C   UNL     1       4.836   6.349  17.526  0.00  0.00    +0.000 A 
BRANCH  21  23
ATOM     23  P   UNL     1       6.909   4.927  16.334  0.00  0.00    +0.000 P 
ATOM     24  O   UNL     1       6.934   4.444  14.916  0.00  0.00    +0.000 OA
BRANCH  23  25
ATOM     25  O   UNL     1       7.536   6.407  16.352  0.00  0.00    +0.000 OA
ATOM     26  H   UNL     1       6.872   7.042  16.681  0.00  0.00    +0.000 HD
ENDBRANCH  23  25
BRANCH  23  27
ATOM     27  O   UNL     1       8.026   4.141  17.181  0.00  0.00    +0.000 OA
ATOM     28  H   UNL     1       8.885   4.142  16.715  0.00  0.00    +0.000 HD
ENDBRANCH  23  27
ENDBRANCH  21  23
ENDBRANCH  15  17
ENDBRANCH   3  15
TORSDOF 7
ENDMDL
MODEL 9
REMARK VINA RESULT:      -7.6      3.731      8.153
REMARK  Name = 
REMARK  8 active torsions:
REMARK  status: ('A' for Active; 'I' for Inactive)
REMARK    1  A    between atoms: C_1  and  O_2
REMARK    2  A    between atoms: O_2  and  C_3
REMARK    3  A    between atoms: C_8  and  C_9
REMARK    4  A    between atoms: C_11  and  N_12
REMARK    5  A    between atoms: N_12  and  C_13
REMARK    6  A    between atoms: C_17  and  P_18
REMARK    7  A    between atoms: P_18  and  O_20
REMARK    8  A    between atoms: P_18  and  O_21
REMARK                            x       y       z     vdW  Elec       q    Type
REMARK                         _______ _______ _______ _____ _____    ______ ____
ROOT
ATOM      1  C   UNL     1       2.890   5.797  18.750  0.00  0.00    +0.000 A 
ATOM      2  C   UNL     1       2.297   7.046  18.714  0.00  0.00    +0.000 A 
ATOM      3  C   UNL     1       2.874   8.017  17.911  0.00  0.00    +0.000 A 
ATOM      4  N   UNL     1       3.958   7.763  17.165  0.00  0.00    +0.000 NA
ATOM      5  C   UNL     1       4.450   6.524  17.230  0.00  0.00    +0.000 A 
ATOM      6  N   UNL     1       3.973   5.522  17.983  0.00  0.00    +0.000 NA
ENDROOT
BRANCH   1  12
ATOM      7  C   UNL     1       1.806   3.479  18.996  0.00  0.00    +0.000 A 
ATOM      8  C   UNL     1       1.395   2.427  19.834  0.00  0.00    +0.000 A 
ATOM      9  C   UNL     1       1.470   2.546  21.219  0.00  0.00    +0.000 A 
ATOM     10  C   UNL     1       1.967   3.712  21.782  0.00  0.00    +0.000 A 
ATOM     11  C   UNL     1       2.415   4.744  20.954  0.00  0.00    +0.000 A 
ATOM     12  C   UNL     1       2.368   4.656  19.547  0.00  0.00    +0.000 A 
BRANCH   7  14
ATOM     13  C   UNL     1       2.626   2.487  17.008  0.00  0.00    +0.000 C 
ATOM     14  O   UNL     1       1.701   3.381  17.627  0.00  0.00    +0.000 OA
ENDBRANCH   7  14
ENDBRANCH   1  12
BRANCH   3  15
ATOM     15  N   UNL     1       2.288   9.302  17.908  0.00  0.00    +0.000 N 
ATOM     16  H   UNL     1       3.002  10.020  17.908  0.00  0.00    +0.000 HD
BRANCH  15  17
ATOM     17  C   UNL     1       1.098   9.699  18.553  0.00  0.00    +0.000 A 
ATOM     18  C   UNL     1       1.137  10.059  19.907  0.00  0.00    +0.000 A 
ATOM     19  C   UNL     1       0.000  10.539  20.552  0.00  0.00    +0.000 A 
ATOM     20  C   UNL     1      -1.180  10.707  19.835  0.00  0.00    +0.000 A 
ATOM     21  C   UNL     1      -1.246  10.383  18.471  0.00  0.00    +0.000 A 
ATOM     22  C   UNL     1      -0.115   9.824  17.854  0.00  0.00    +0.000 A 
BRANCH  21  23
ATOM     23  P   UNL     1      -2.636  10.968  17.573  0.00  0.00    +0.000 P 
ATOM     24  O   UNL     1      -3.817  10.069  17.375  0.00  0.00    +0.000 OA
BRANCH  23  25
ATOM     25  O   UNL     1      -3.134  12.246  18.410  0.00  0.00    +0.000 OA
ATOM     26  H   UNL     1      -4.107  12.308  18.369  0.00  0.00    +0.000 HD
ENDBRANCH  23  25
BRANCH  23  27
ATOM     27  O   UNL     1      -2.269  11.675  16.177  0.00  0.00    +0.000 OA
ATOM     28  H   UNL     1      -1.688  12.448  16.317  0.00  0.00    +0.000 HD
ENDBRANCH  23  27
ENDBRANCH  21  23
ENDBRANCH  15  17
ENDBRANCH   3  15
TORSDOF 7
ENDMDL
