MODEL 1
REMARK VINA RESULT:      -6.8      0.000      0.000
REMARK  Name = 
REMARK  7 active torsions:
REMARK  status: ('A' for Active; 'I' for Inactive)
REMARK    1  A    between atoms: C_1  and  O_2
REMARK    2  A    between atoms: O_2  and  C_3
REMARK    3  A    between atoms: C_6  and  C_7
REMARK    4  A    between atoms: C_8  and  C_9
REMARK    5  A    between atoms: C_9  and  C_11
REMARK    6  A    between atoms: C_17  and  O_18
REMARK    7  A    between atoms: O_18  and  C_19
REMARK                            x       y       z     vdW  Elec       q    Type
REMARK                         _______ _______ _______ _____ _____    ______ ____
ROOT
ATOM      1  C   UNL     1      -0.705  11.236  22.694  0.00  0.00    +0.000 A 
ATOM      2  N   UNL     1      -0.169  10.225  23.392  0.00  0.00    +0.000 NA
ATOM      3  C   UNL     1       0.487   9.290  22.674  0.00  0.00    +0.000 A 
ATOM      4  C   UNL     1       0.630   9.334  21.306  0.00  0.00    +0.000 A 
ATOM      5  C   UNL     1       0.038  10.426  20.696  0.00  0.00    +0.000 A 
ATOM      6  N   UNL     1      -0.633  11.388  21.362  0.00  0.00    +0.000 NA
ENDROOT
BRANCH   1   8
ATOM      7  C   UNL     1      -1.106  13.511  23.043  0.00  0.00    +0.000 C 
ATOM      8  O   UNL     1      -1.361  12.176  23.458  0.00  0.00    +0.000 OA
ENDBRANCH   1   8
BRANCH   4   9
ATOM      9  C   UNL     1       1.338   8.317  20.594  0.00  0.00    +0.000 C 
ATOM     10  C   UNL     1       1.934   7.442  20.024  0.00  0.00    +0.000 C 
BRANCH  10  11
ATOM     11  C   UNL     1       2.657   6.360  19.394  0.00  0.00    +0.000 C 
ATOM     12  O   UNL     1       3.731   6.597  18.857  0.00  0.00    +0.000 OA
BRANCH  11  13
ATOM     13  C   UNL     1       2.078   4.990  19.422  0.00  0.00    +0.000 A 
ATOM     14  C   UNL     1       2.018   4.270  18.219  0.00  0.00    +0.000 A 
ATOM     15  C   UNL     1       1.494   2.975  18.195  0.00  0.00    +0.000 A 
ATOM     16  C   UNL     1       1.025   2.393  19.371  0.00  0.00    +0.000 A 
ATOM     17  C   UNL     1       1.074   3.103  20.569  0.00  0.00    +0.000 A 
ATOM     18  C   UNL     1       1.598   4.398  20.599  0.00  0.00    +0.000 A 
ENDBRANCH  11  13
ENDBRANCH  10  11
ENDBRANCH   4   9
BRANCH   5  19
ATOM     19  O   UNL     1       0.158  10.525  19.320  0.00  0.00    +0.000 OA
ATOM     20  C   UNL     1       1.076  11.526  18.892  0.00  0.00    +0.000 C 
ENDBRANCH   5  19
TORSDOF 5
ENDMDL
MODEL 2
REMARK VINA RESULT:      -6.7      0.767      1.320
REMARK  Name = 
REMARK  7 active torsions:
REMARK  status: ('A' for Active; 'I' for Inactive)
REMARK    1  A    between atoms: C_1  and  O_2
REMARK    2  A    between atoms: O_2  and  C_3
REMARK    3  A    between atoms: C_6  and  C_7
REMARK    4  A    between atoms: C_8  and  C_9
REMARK    5  A    between atoms: C_9  and  C_11
REMARK    6  A    between atoms: C_17  and  O_18
REMARK    7  A    between atoms: O_18  and  C_19
REMARK                            x       y       z     vdW  Elec       q    Type
REMARK                         _______ _______ _______ _____ _____    ______ ____
ROOT
ATOM      1  C   UNL     1      -0.558  11.050  22.353  0.00  0.00    +0.000 A 
ATOM      2  N   UNL     1       0.176  10.191  23.076  0.00  0.00    +0.000 NA
ATOM      3  C   UNL     1       0.836   9.242  22.380  0.00  0.00    +0.000 A 
ATOM      4  C   UNL     1       0.793   9.128  21.009  0.00  0.00    +0.000 A 
ATOM      5  C   UNL     1       0.007  10.072  20.372  0.00  0.00    +0.000 A 
ATOM      6  N   UNL     1      -0.677  11.040  21.017  0.00  0.00    +0.000 NA
ENDROOT
BRANCH   1   8
ATOM      7  C   UNL     1      -0.899  13.335  22.693  0.00  0.00    +0.000 C 
ATOM      8  O   UNL     1      -1.212  12.009  23.094  0.00  0.00    +0.000 OA
ENDBRANCH   1   8
BRANCH   4   9
ATOM      9  C   UNL     1       1.514   8.104  20.320  0.00  0.00    +0.000 C 
ATOM     10  C   UNL     1       2.111   7.257  19.710  0.00  0.00    +0.000 C 
BRANCH  10  11
ATOM     11  C   UNL     1       2.804   6.261  18.923  0.00  0.00    +0.000 C 
ATOM     12  O   UNL     1       3.800   6.592  18.293  0.00  0.00    +0.000 OA
BRANCH  11  13
ATOM     13  C   UNL     1       2.292   4.864  18.908  0.00  0.00    +0.000 A 
ATOM     14  C   UNL     1       1.595   4.401  20.035  0.00  0.00    +0.000 A 
ATOM     15  C   UNL     1       1.084   3.102  20.065  0.00  0.00    +0.000 A 
ATOM     16  C   UNL     1       1.268   2.257  18.974  0.00  0.00    +0.000 A 
ATOM     17  C   UNL     1       1.966   2.705  17.853  0.00  0.00    +0.000 A 
ATOM     18  C   UNL     1       2.478   4.004  17.817  0.00  0.00    +0.000 A 
ENDBRANCH  11  13
ENDBRANCH  10  11
ENDBRANCH   4   9
BRANCH   5  19
ATOM     19  O   UNL     1      -0.065  10.009  18.991  0.00  0.00    +0.000 OA
ATOM     20  C   UNL     1      -1.324  10.409  18.460  0.00  0.00    +0.000 C 
ENDBRANCH   5  19
TORSDOF 5
ENDMDL
MODEL 3
REMARK VINA RESULT:      -6.7      5.436      7.967
REMARK  Name = 
REMARK  7 active torsions:
REMARK  status: ('A' for Active; 'I' for Inactive)
REMARK    1  A    between atoms: C_1  and  O_2
REMARK    2  A    between atoms: O_2  and  C_3
REMARK    3  A    between atoms: C_6  and  C_7
REMARK    4  A    between atoms: C_8  and  C_9
REMARK    5  A    between atoms: C_9  and  C_11
REMARK    6  A    between atoms: C_17  and  O_18
REMARK    7  A    between atoms: O_18  and  C_19
REMARK                            x       y       z     vdW  Elec       q    Type
REMARK                         _______ _______ _______ _____ _____    ______ ____
ROOT
ATOM      1  C   UNL     1       1.938   3.024  19.876  0.00  0.00    +0.000 A 
ATOM      2  N   UNL     1       2.476   2.117  19.047  0.00  0.00    +0.000 NA
ATOM      3  C   UNL     1       3.413   2.577  18.192  0.00  0.00    +0.000 A 
ATOM      4  C   UNL     1       3.829   3.888  18.144  0.00  0.00    +0.000 A 
ATOM      5  C   UNL     1       3.205   4.729  19.048  0.00  0.00    +0.000 A 
ATOM      6  N   UNL     1       2.260   4.326  19.922  0.00  0.00    +0.000 NA
ENDROOT
BRANCH   1   8
ATOM      7  C   UNL     1       1.420   2.501  22.093  0.00  0.00    +0.000 C 
ATOM      8  O   UNL     1       0.990   2.520  20.739  0.00  0.00    +0.000 OA
ENDBRANCH   1   8
BRANCH   4   9
ATOM      9  C   UNL     1       4.829   4.322  17.219  0.00  0.00    +0.000 C 
ATOM     10  C   UNL     1       5.678   4.713  16.463  0.00  0.00    +0.000 C 
BRANCH  10  11
ATOM     11  C   UNL     1       6.709   5.234  15.592  0.00  0.00    +0.000 C 
ATOM     12  O   UNL     1       7.510   6.044  16.039  0.00  0.00    +0.000 OA
BRANCH  11  13
ATOM     13  C   UNL     1       6.769   4.765  14.181  0.00  0.00    +0.000 A 
ATOM     14  C   UNL     1       7.687   5.380  13.317  0.00  0.00    +0.000 A 
ATOM     15  C   UNL     1       7.791   4.968  11.986  0.00  0.00    +0.000 A 
ATOM     16  C   UNL     1       6.978   3.942  11.510  0.00  0.00    +0.000 A 
ATOM     17  C   UNL     1       6.057   3.330  12.360  0.00  0.00    +0.000 A 
ATOM     18  C   UNL     1       5.950   3.737  13.692  0.00  0.00    +0.000 A 
ENDBRANCH  11  13
ENDBRANCH  10  11
ENDBRANCH   4   9
BRANCH   5  19
ATOM     19  O   UNL     1       3.591   6.059  19.048  0.00  0.00    +0.000 OA
ATOM     20  C   UNL     1       2.625   6.941  18.486  0.00  0.00    +0.000 C 
ENDBRANCH   5  19
TORSDOF 5
ENDMDL
MODEL 4
REMARK VINA RESULT:      -6.6      5.160      7.506
REMARK  Name = 
REMARK  7 active torsions:
REMARK  status: ('A' for Active; 'I' for Inactive)
REMARK    1  A    between atoms: C_1  and  O_2
REMARK    2  A    between atoms: O_2  and  C_3
REMARK    3  A    between atoms: C_6  and  C_7
REMARK    4  A    between atoms: C_8  and  C_9
REMARK    5  A    between atoms: C_9  and  C_11
REMARK    6  A    between atoms: C_17  and  O_18
REMARK    7  A    between atoms: O_18  and  C_19
REMARK                            x       y       z     vdW  Elec       q    Type
REMARK                         _______ _______ _______ _____ _____    ______ ____
ROOT
ATOM      1  C   UNL     1       2.046   3.956  20.162  0.00  0.00    +0.000 A 
ATOM      2  N   UNL     1       2.766   2.960  19.625  0.00  0.00    +0.000 NA
ATOM      3  C   UNL     1       3.703   3.323  18.725  0.00  0.00    +0.000 A 
ATOM      4  C   UNL     1       3.946   4.626  18.355  0.00  0.00    +0.000 A 
ATOM      5  C   UNL     1       3.144   5.566  18.978  0.00  0.00    +0.000 A 
ATOM      6  N   UNL     1       2.190   5.260  19.882  0.00  0.00    +0.000 NA
ENDROOT
BRANCH   1   8
ATOM      7  C   UNL     1       1.544   2.470  21.894  0.00  0.00    +0.000 C 
ATOM      8  O   UNL     1       1.104   3.550  21.082  0.00  0.00    +0.000 OA
ENDBRANCH   1   8
BRANCH   4   9
ATOM      9  C   UNL     1       4.954   4.956  17.397  0.00  0.00    +0.000 C 
ATOM     10  C   UNL     1       5.797   5.204  16.576  0.00  0.00    +0.000 C 
BRANCH  10  11
ATOM     11  C   UNL     1       6.804   5.442  15.566  0.00  0.00    +0.000 C 
ATOM     12  O   UNL     1       7.753   6.168  15.834  0.00  0.00    +0.000 OA
BRANCH  11  13
ATOM     13  C   UNL     1       6.663   4.793  14.235  0.00  0.00    +0.000 A 
ATOM     14  C   UNL     1       5.588   3.913  14.036  0.00  0.00    +0.000 A 
ATOM     15  C   UNL     1       5.405   3.288  12.801  0.00  0.00    +0.000 A 
ATOM     16  C   UNL     1       6.295   3.534  11.758  0.00  0.00    +0.000 A 
ATOM     17  C   UNL     1       7.371   4.400  11.948  0.00  0.00    +0.000 A 
ATOM     18  C   UNL     1       7.558   5.030  13.182  0.00  0.00    +0.000 A 
ENDBRANCH  11  13
ENDBRANCH  10  11
ENDBRANCH   4   9
BRANCH   5  19
ATOM     19  O   UNL     1       3.351   6.894  18.649  0.00  0.00    +0.000 OA
ATOM     20  C   UNL     1       2.193   7.711  18.785  0.00  0.00    +0.000 C 
ENDBRANCH   5  19
TORSDOF 5
ENDMDL
MODEL 5
REMARK VINA RESULT:      -6.6      5.343      8.157
REMARK  Name = 
REMARK  7 active torsions:
REMARK  status: ('A' for Active; 'I' for Inactive)
REMARK    1  A    between atoms: C_1  and  O_2
REMARK    2  A    between atoms: O_2  and  C_3
REMARK    3  A    between atoms: C_6  and  C_7
REMARK    4  A    between atoms: C_8  and  C_9
REMARK    5  A    between atoms: C_9  and  C_11
REMARK    6  A    between atoms: C_17  and  O_18
REMARK    7  A    between atoms: O_18  and  C_19
REMARK                            x       y       z     vdW  Elec       q    Type
REMARK                         _______ _______ _______ _____ _____    ______ ____
ROOT
ATOM      1  C   UNL     1       7.300   5.653  14.732  0.00  0.00    +0.000 A 
ATOM      2  N   UNL     1       6.049   5.294  14.410  0.00  0.00    +0.000 NA
ATOM      3  C   UNL     1       5.125   5.426  15.385  0.00  0.00    +0.000 A 
ATOM      4  C   UNL     1       5.403   5.903  16.645  0.00  0.00    +0.000 A 
ATOM      5  C   UNL     1       6.726   6.245  16.858  0.00  0.00    +0.000 A 
ATOM      6  N   UNL     1       7.692   6.131  15.923  0.00  0.00    +0.000 NA
ENDROOT
BRANCH   1   8
ATOM      7  C   UNL     1       7.640   5.036  12.504  0.00  0.00    +0.000 C 
ATOM      8  O   UNL     1       8.216   5.512  13.713  0.00  0.00    +0.000 OA
ENDBRANCH   1   8
BRANCH   4   9
ATOM      9  C   UNL     1       4.384   6.026  17.640  0.00  0.00    +0.000 C 
ATOM     10  C   UNL     1       3.541   6.101  18.494  0.00  0.00    +0.000 C 
BRANCH  10  11
ATOM     11  C   UNL     1       2.548   6.137  19.545  0.00  0.00    +0.000 C 
ATOM     12  O   UNL     1       2.111   7.221  19.911  0.00  0.00    +0.000 OA
BRANCH  11  13
ATOM     13  C   UNL     1       2.081   4.858  20.144  0.00  0.00    +0.000 A 
ATOM     14  C   UNL     1       1.235   4.039  19.383  0.00  0.00    +0.000 A 
ATOM     15  C   UNL     1       0.779   2.822  19.896  0.00  0.00    +0.000 A 
ATOM     16  C   UNL     1       1.162   2.419  21.173  0.00  0.00    +0.000 A 
ATOM     17  C   UNL     1       1.997   3.230  21.940  0.00  0.00    +0.000 A 
ATOM     18  C   UNL     1       2.457   4.447  21.431  0.00  0.00    +0.000 A 
ENDBRANCH  11  13
ENDBRANCH  10  11
ENDBRANCH   4   9
BRANCH   5  19
ATOM     19  O   UNL     1       7.061   6.740  18.107  0.00  0.00    +0.000 OA
ATOM     20  C   UNL     1       7.771   5.814  18.923  0.00  0.00    +0.000 C 
ENDBRANCH   5  19
TORSDOF 5
ENDMDL
MODEL 6
REMARK VINA RESULT:      -6.6      1.360      1.797
REMARK  Name = 
REMARK  7 active torsions:
REMARK  status: ('A' for Active; 'I' for Inactive)
REMARK    1  A    between atoms: C_1  and  O_2
REMARK    2  A    between atoms: O_2  and  C_3
REMARK    3  A    between atoms: C_6  and  C_7
REMARK    4  A    between atoms: C_8  and  C_9
REMARK    5  A    between atoms: C_9  and  C_11
REMARK    6  A    between atoms: C_17  and  O_18
REMARK    7  A    between atoms: O_18  and  C_19
REMARK                            x       y       z     vdW  Elec       q    Type
REMARK                         _______ _______ _______ _____ _____    ______ ____
ROOT
ATOM      1  C   UNL     1      -0.065  10.568  22.325  0.00  0.00    +0.000 A 
ATOM      2  N   UNL     1       0.668   9.557  22.814  0.00  0.00    +0.000 NA
ATOM      3  C   UNL     1       1.280   8.773  21.902  0.00  0.00    +0.000 A 
ATOM      4  C   UNL     1       1.191   8.966  20.542  0.00  0.00    +0.000 A 
ATOM      5  C   UNL     1       0.411  10.042  20.158  0.00  0.00    +0.000 A 
ATOM      6  N   UNL     1      -0.226  10.856  21.024  0.00  0.00    +0.000 NA
ENDROOT
BRANCH   1   8
ATOM      7  C   UNL     1      -1.998  11.725  22.943  0.00  0.00    +0.000 C 
ATOM      8  O   UNL     1      -0.670  11.352  23.282  0.00  0.00    +0.000 OA
ENDBRANCH   1   8
BRANCH   4   9
ATOM      9  C   UNL     1       1.863   8.106  19.619  0.00  0.00    +0.000 C 
ATOM     10  C   UNL     1       2.458   7.395  18.854  0.00  0.00    +0.000 C 
BRANCH  10  11
ATOM     11  C   UNL     1       3.228   6.569  17.950  0.00  0.00    +0.000 C 
ATOM     12  O   UNL     1       4.064   7.098  17.229  0.00  0.00    +0.000 OA
BRANCH  11  13
ATOM     13  C   UNL     1       2.989   5.101  17.929  0.00  0.00    +0.000 A 
ATOM     14  C   UNL     1       1.701   4.634  18.234  0.00  0.00    +0.000 A 
ATOM     15  C   UNL     1       1.421   3.266  18.216  0.00  0.00    +0.000 A 
ATOM     16  C   UNL     1       2.426   2.355  17.897  0.00  0.00    +0.000 A 
ATOM     17  C   UNL     1       3.711   2.809  17.600  0.00  0.00    +0.000 A 
ATOM     18  C   UNL     1       3.995   4.177  17.615  0.00  0.00    +0.000 A 
ENDBRANCH  11  13
ENDBRANCH  10  11
ENDBRANCH   4   9
BRANCH   5  19
ATOM     19  O   UNL     1       0.294  10.287  18.800  0.00  0.00    +0.000 OA
ATOM     20  C   UNL     1      -1.047  10.266  18.323  0.00  0.00    +0.000 C 
ENDBRANCH   5  19
TORSDOF 5
ENDMDL
MODEL 7
REMARK VINA RESULT:      -6.6      5.795      8.341
REMARK  Name = 
REMARK  7 active torsions:
REMARK  status: ('A' for Active; 'I' for Inactive)
REMARK    1  A    between atoms: C_1  and  O_2
REMARK    2  A    between atoms: O_2  and  C_3
REMARK    3  A    between atoms: C_6  and  C_7
REMARK    4  A    between atoms: C_8  and  C_9
REMARK    5  A    between atoms: C_9  and  C_11
REMARK    6  A    between atoms: C_17  and  O_18
REMARK    7  A    between atoms: O_18  and  C_19
REMARK                            x       y       z     vdW  Elec       q    Type
REMARK                         _______ _______ _______ _____ _____    ______ ____
ROOT
ATOM      1  C   UNL     1       3.189   4.414  19.749  0.00  0.00    +0.000 A 
ATOM      2  N   UNL     1       2.514   4.467  18.591  0.00  0.00    +0.000 NA
ATOM      3  C   UNL     1       3.263   4.499  17.469  0.00  0.00    +0.000 A 
ATOM      4  C   UNL     1       4.639   4.474  17.465  0.00  0.00    +0.000 A 
ATOM      5  C   UNL     1       5.223   4.416  18.717  0.00  0.00    +0.000 A 
ATOM      6  N   UNL     1       4.524   4.385  19.872  0.00  0.00    +0.000 NA
ENDROOT
BRANCH   1   8
ATOM      7  C   UNL     1       1.154   3.715  20.659  0.00  0.00    +0.000 C 
ATOM      8  O   UNL     1       2.394   4.375  20.873  0.00  0.00    +0.000 OA
ENDBRANCH   1   8
BRANCH   4   9
ATOM      9  C   UNL     1       5.384   4.508  16.245  0.00  0.00    +0.000 C 
ATOM     10  C   UNL     1       5.982   4.539  15.202  0.00  0.00    +0.000 C 
BRANCH  10  11
ATOM     11  C   UNL     1       6.644   4.576  13.917  0.00  0.00    +0.000 C 
ATOM     12  O   UNL     1       7.585   5.343  13.757  0.00  0.00    +0.000 OA
BRANCH  11  13
ATOM     13  C   UNL     1       6.169   3.676  12.832  0.00  0.00    +0.000 A 
ATOM     14  C   UNL     1       4.816   3.737  12.465  0.00  0.00    +0.000 A 
ATOM     15  C   UNL     1       4.323   2.922  11.444  0.00  0.00    +0.000 A 
ATOM     16  C   UNL     1       5.177   2.039  10.785  0.00  0.00    +0.000 A 
ATOM     17  C   UNL     1       6.521   1.966  11.148  0.00  0.00    +0.000 A 
ATOM     18  C   UNL     1       7.020   2.781  12.168  0.00  0.00    +0.000 A 
ENDBRANCH  11  13
ENDBRANCH  10  11
ENDBRANCH   4   9
BRANCH   5  19
ATOM     19  O   UNL     1       6.605   4.380  18.772  0.00  0.00    +0.000 OA
ATOM     20  C   UNL     1       7.200   5.608  19.177  0.00  0.00    +0.000 C 
ENDBRANCH   5  19
TORSDOF 5
ENDMDL
MODEL 8
REMARK VINA RESULT:      -6.6      5.370      8.243
REMARK  Name = 
REMARK  7 active torsions:
REMARK  status: ('A' for Active; 'I' for Inactive)
REMARK    1  A    between atoms: C_1  and  O_2
REMARK    2  A    between atoms: O_2  and  C_3
REMARK    3  A    between atoms: C_6  and  C_7
REMARK    4  A    between atoms: C_8  and  C_9
REMARK    5  A    between atoms: C_9  and  C_11
REMARK    6  A    between atoms: C_17  and  O_18
REMARK    7  A    between atoms: O_18  and  C_19
REMARK                            x       y       z     vdW  Elec       q    Type
REMARK                         _______ _______ _______ _____ _____    ______ ____
ROOT
ATOM      1  C   UNL     1       7.349   5.607  14.700  0.00  0.00    +0.000 A 
ATOM      2  N   UNL     1       6.100   5.231  14.384  0.00  0.00    +0.000 NA
ATOM      3  C   UNL     1       5.174   5.376  15.354  0.00  0.00    +0.000 A 
ATOM      4  C   UNL     1       5.446   5.882  16.605  0.00  0.00    +0.000 A 
ATOM      5  C   UNL     1       6.766   6.238  16.813  0.00  0.00    +0.000 A 
ATOM      6  N   UNL     1       7.735   6.112  15.882  0.00  0.00    +0.000 NA
ENDROOT
BRANCH   1   8
ATOM      7  C   UNL     1       7.669   5.185  12.425  0.00  0.00    +0.000 C 
ATOM      8  O   UNL     1       8.267   5.452  13.685  0.00  0.00    +0.000 OA
ENDBRANCH   1   8
BRANCH   4   9
ATOM      9  C   UNL     1       4.425   6.017  17.596  0.00  0.00    +0.000 C 
ATOM     10  C   UNL     1       3.572   6.097  18.439  0.00  0.00    +0.000 C 
BRANCH  10  11
ATOM     11  C   UNL     1       2.554   6.133  19.466  0.00  0.00    +0.000 C 
ATOM     12  O   UNL     1       2.117   7.217  19.831  0.00  0.00    +0.000 OA
BRANCH  11  13
ATOM     13  C   UNL     1       2.061   4.853  20.042  0.00  0.00    +0.000 A 
ATOM     14  C   UNL     1       2.492   4.495  21.329  0.00  0.00    +0.000 A 
ATOM     15  C   UNL     1       2.049   3.309  21.919  0.00  0.00    +0.000 A 
ATOM     16  C   UNL     1       1.177   2.472  21.227  0.00  0.00    +0.000 A 
ATOM     17  C   UNL     1       0.750   2.814  19.945  0.00  0.00    +0.000 A 
ATOM     18  C   UNL     1       1.188   4.001  19.351  0.00  0.00    +0.000 A 
ENDBRANCH  11  13
ENDBRANCH  10  11
ENDBRANCH   4   9
BRANCH   5  19
ATOM     19  O   UNL     1       7.095   6.761  18.052  0.00  0.00    +0.000 OA
ATOM     20  C   UNL     1       7.796   5.852  18.894  0.00  0.00    +0.000 C 
ENDBRANCH   5  19
TORSDOF 5
ENDMDL
MODEL 9
REMARK VINA RESULT:      -6.5      6.609      8.664
REMARK  Name = 
REMARK  7 active torsions:
REMARK  status: ('A' for Active; 'I' for Inactive)
REMARK    1  A    between atoms: C_1  and  O_2
REMARK    2  A    between atoms: O_2  and  C_3
REMARK    3  A    between atoms: C_6  and  C_7
REMARK    4  A    between atoms: C_8  and  C_9
REMARK    5  A    between atoms: C_9  and  C_11
REMARK    6  A    between atoms: C_17  and  O_18
REMARK    7  A    between atoms: O_18  and  C_19
REMARK                            x       y       z     vdW  Elec       q    Type
REMARK                         _______ _______ _______ _____ _____    ______ ____
ROOT
ATOM      1  C   UNL     1       7.531   5.311  14.416  0.00  0.00    +0.000 A 
ATOM      2  N   UNL     1       6.553   4.692  13.740  0.00  0.00    +0.000 NA
ATOM      3  C   UNL     1       5.446   4.384  14.448  0.00  0.00    +0.000 A 
ATOM      4  C   UNL     1       5.284   4.676  15.783  0.00  0.00    +0.000 A 
ATOM      5  C   UNL     1       6.358   5.318  16.371  0.00  0.00    +0.000 A 
ATOM      6  N   UNL     1       7.490   5.647  15.714  0.00  0.00    +0.000 NA
ENDROOT
BRANCH   1   8
ATOM      7  C   UNL     1       8.354   5.781  12.281  0.00  0.00    +0.000 C 
ATOM      8  O   UNL     1       8.643   5.617  13.662  0.00  0.00    +0.000 OA
ENDBRANCH   1   8
BRANCH   4   9
ATOM      9  C   UNL     1       4.088   4.329  16.485  0.00  0.00    +0.000 C 
ATOM     10  C   UNL     1       3.089   4.063  17.098  0.00  0.00    +0.000 C 
BRANCH  10  11
ATOM     11  C   UNL     1       1.904   3.786  17.880  0.00  0.00    +0.000 C 
ATOM     12  O   UNL     1       0.804   3.936  17.363  0.00  0.00    +0.000 OA
BRANCH  11  13
ATOM     13  C   UNL     1       2.056   3.321  19.285  0.00  0.00    +0.000 A 
ATOM     14  C   UNL     1       3.309   2.841  19.693  0.00  0.00    +0.000 A 
ATOM     15  C   UNL     1       3.507   2.403  21.004  0.00  0.00    +0.000 A 
ATOM     16  C   UNL     1       2.454   2.439  21.915  0.00  0.00    +0.000 A 
ATOM     17  C   UNL     1       1.202   2.907  21.517  0.00  0.00    +0.000 A 
ATOM     18  C   UNL     1       1.000   3.348  20.207  0.00  0.00    +0.000 A 
ENDBRANCH  11  13
ENDBRANCH  10  11
ENDBRANCH   4   9
BRANCH   5  19
ATOM     19  O   UNL     1       6.246   5.644  17.712  0.00  0.00    +0.000 OA
ATOM     20  C   UNL     1       7.359   6.369  18.226  0.00  0.00    +0.000 C 
ENDBRANCH   5  19
TORSDOF 5
ENDMDL
