MODEL 1
REMARK VINA RESULT:      -7.4      0.000      0.000
REMARK  Name = 
REMARK  6 active torsions:
REMARK  status: ('A' for Active; 'I' for Inactive)
REMARK    1  A    between atoms: C_1  and  C_2
REMARK    2  A    between atoms: C_2  and  C_3
REMARK    3  A    between atoms: C_2  and  O_4
REMARK    4  A    between atoms: C_2  and  C_5
REMARK    5  A    between atoms: C_5  and  N_6
REMARK    6  A    between atoms: C_10  and  C_12
REMARK                            x       y       z     vdW  Elec       q    Type
REMARK                         _______ _______ _______ _____ _____    ______ ____
ROOT
ATOM      1  N   UNL     1       4.489   4.676  17.265  0.00  0.00    +0.000 NA
ATOM      2  C   UNL     1       3.425   4.019  18.069  0.00  0.00    +0.000 C 
ATOM      3  C   UNL     1       3.203   4.633  19.467  0.00  0.00    +0.000 C 
ATOM      4  N   UNL     1       2.952   6.075  19.352  0.00  0.00    +0.000 N 
ATOM      5  C   UNL     1       1.952   6.646  20.137  0.00  0.00    +0.000 C 
ATOM      6  O   UNL     1       1.366   5.989  21.000  0.00  0.00    +0.000 OA
ATOM      7  C   UNL     1       3.975   6.790  18.582  0.00  0.00    +0.000 C 
ATOM      8  C   UNL     1       4.176   6.128  17.201  0.00  0.00    +0.000 C 
ENDROOT
BRANCH   5   9
ATOM      9  C   UNL     1       1.578   8.044  19.906  0.00  0.00    +0.000 A 
ATOM     10  C   UNL     1       1.665   8.755  18.718  0.00  0.00    +0.000 A 
ATOM     11  N   UNL     1       1.252  10.039  18.942  0.00  0.00    +0.000 N 
ATOM     12  C   UNL     1       0.746  10.155  20.212  0.00  0.00    +0.000 A 
ATOM     13  C   UNL     1       0.131  11.247  20.836  0.00  0.00    +0.000 A 
ATOM     14  C   UNL     1      -0.329  11.064  22.142  0.00  0.00    +0.000 A 
ATOM     15 CL   UNL     1      -1.134  12.364  22.934  0.00  0.00    +0.000 Cl
ATOM     16  C   UNL     1      -0.164   9.855  22.809  0.00  0.00    +0.000 A 
ATOM     17  C   UNL     1       0.474   8.781  22.173  0.00  0.00    +0.000 A 
ATOM     18  C   UNL     1       0.931   8.923  20.843  0.00  0.00    +0.000 A 
ATOM     19  H   UNL     1       1.262  10.783  18.256  0.00  0.00    +0.000 HD
ENDBRANCH   5   9
BRANCH   1  20
ATOM     20  C   UNL     1       5.853   4.482  17.819  0.00  0.00    +0.000 C 
BRANCH  20  22
ATOM     21  C   UNL     1       7.426   6.307  17.116  0.00  0.00    +0.000 C 
ATOM     22  C   UNL     1       7.074   4.827  16.920  0.00  0.00    +0.000 C 
ATOM     23  C   UNL     1       6.794   4.539  15.445  0.00  0.00    +0.000 C 
BRANCH  22  24
ATOM     24  O   UNL     1       8.223   4.089  17.353  0.00  0.00    +0.000 OA
ATOM     25  H   UNL     1       8.982   4.374  16.815  0.00  0.00    +0.000 HD
ENDBRANCH  22  24
ENDBRANCH  20  22
ENDBRANCH   1  20
TORSDOF 4
ENDMDL
MODEL 2
REMARK VINA RESULT:      -7.0      5.210      8.560
REMARK  Name = 
REMARK  6 active torsions:
REMARK  status: ('A' for Active; 'I' for Inactive)
REMARK    1  A    between atoms: C_1  and  C_2
REMARK    2  A    between atoms: C_2  and  C_3
REMARK    3  A    between atoms: C_2  and  O_4
REMARK    4  A    between atoms: C_2  and  C_5
REMARK    5  A    between atoms: C_5  and  N_6
REMARK    6  A    between atoms: C_10  and  C_12
REMARK                            x       y       z     vdW  Elec       q    Type
REMARK                         _______ _______ _______ _____ _____    ______ ____
ROOT
ATOM      1  N   UNL     1       2.363   2.940  18.325  0.00  0.00    +0.000 NA
ATOM      2  C   UNL     1       1.842   4.258  17.876  0.00  0.00    +0.000 C 
ATOM      3  C   UNL     1       2.850   5.421  17.992  0.00  0.00    +0.000 C 
ATOM      4  N   UNL     1       4.092   5.086  17.286  0.00  0.00    +0.000 N 
ATOM      5  C   UNL     1       4.707   6.066  16.510  0.00  0.00    +0.000 C 
ATOM      6  O   UNL     1       4.294   7.227  16.504  0.00  0.00    +0.000 OA
ATOM      7  C   UNL     1       4.670   3.800  17.692  0.00  0.00    +0.000 C 
ATOM      8  C   UNL     1       3.621   2.673  17.579  0.00  0.00    +0.000 C 
ENDROOT
BRANCH   5   9
ATOM      9  C   UNL     1       5.847   5.694  15.667  0.00  0.00    +0.000 A 
ATOM     10  C   UNL     1       7.184   5.997  15.874  0.00  0.00    +0.000 A 
ATOM     11  N   UNL     1       7.917   5.497  14.833  0.00  0.00    +0.000 N 
ATOM     12  C   UNL     1       7.116   4.734  14.021  0.00  0.00    +0.000 A 
ATOM     13  C   UNL     1       7.451   3.961  12.903  0.00  0.00    +0.000 A 
ATOM     14  C   UNL     1       6.423   3.247  12.285  0.00  0.00    +0.000 A 
ATOM     15 CL   UNL     1       6.795   2.244  10.935  0.00  0.00    +0.000 Cl
ATOM     16  C   UNL     1       5.112   3.317  12.742  0.00  0.00    +0.000 A 
ATOM     17  C   UNL     1       4.794   4.114  13.850  0.00  0.00    +0.000 A 
ATOM     18  C   UNL     1       5.814   4.832  14.515  0.00  0.00    +0.000 A 
ATOM     19  H   UNL     1       8.913   5.620  14.709  0.00  0.00    +0.000 HD
ENDBRANCH   5   9
BRANCH   1  20
ATOM     20  C   UNL     1       2.622   2.872  19.785  0.00  0.00    +0.000 C 
BRANCH  20  22
ATOM     21  C   UNL     1       1.538   4.728  21.080  0.00  0.00    +0.000 C 
ATOM     22  C   UNL     1       1.466   3.229  20.761  0.00  0.00    +0.000 C 
ATOM     23  C   UNL     1       1.536   2.409  22.049  0.00  0.00    +0.000 C 
BRANCH  22  24
ATOM     24  O   UNL     1       0.203   3.023  20.119  0.00  0.00    +0.000 OA
ATOM     25  H   UNL     1      -0.082   3.872  19.739  0.00  0.00    +0.000 HD
ENDBRANCH  22  24
ENDBRANCH  20  22
ENDBRANCH   1  20
TORSDOF 4
ENDMDL
MODEL 3
REMARK VINA RESULT:      -7.0      3.628      8.471
REMARK  Name = 
REMARK  6 active torsions:
REMARK  status: ('A' for Active; 'I' for Inactive)
REMARK    1  A    between atoms: C_1  and  C_2
REMARK    2  A    between atoms: C_2  and  C_3
REMARK    3  A    between atoms: C_2  and  O_4
REMARK    4  A    between atoms: C_2  and  C_5
REMARK    5  A    between atoms: C_5  and  N_6
REMARK    6  A    between atoms: C_10  and  C_12
REMARK                            x       y       z     vdW  Elec       q    Type
REMARK                         _______ _______ _______ _____ _____    ______ ____
ROOT
ATOM      1  N   UNL     1      -0.794  10.378  21.174  0.00  0.00    +0.000 NA
ATOM      2  C   UNL     1      -0.948  10.311  19.697  0.00  0.00    +0.000 C 
ATOM      3  C   UNL     1       0.380  10.296  18.912  0.00  0.00    +0.000 C 
ATOM      4  N   UNL     1       1.240   9.209  19.394  0.00  0.00    +0.000 N 
ATOM      5  C   UNL     1       1.939   8.443  18.462  0.00  0.00    +0.000 C 
ATOM      6  O   UNL     1       1.937   8.738  17.266  0.00  0.00    +0.000 OA
ATOM      7  C   UNL     1       1.447   9.224  20.846  0.00  0.00    +0.000 C 
ATOM      8  C   UNL     1       0.093   9.258  21.586  0.00  0.00    +0.000 C 
ENDROOT
BRANCH   5   9
ATOM      9  C   UNL     1       2.660   7.252  18.919  0.00  0.00    +0.000 A 
ATOM     10  C   UNL     1       2.238   6.315  19.850  0.00  0.00    +0.000 A 
ATOM     11  N   UNL     1       3.225   5.384  20.017  0.00  0.00    +0.000 N 
ATOM     12  C   UNL     1       4.227   5.594  19.104  0.00  0.00    +0.000 A 
ATOM     13  C   UNL     1       5.379   4.839  18.848  0.00  0.00    +0.000 A 
ATOM     14  C   UNL     1       6.215   5.275  17.818  0.00  0.00    +0.000 A 
ATOM     15 CL   UNL     1       7.618   4.353  17.434  0.00  0.00    +0.000 Cl
ATOM     16  C   UNL     1       5.934   6.426  17.090  0.00  0.00    +0.000 A 
ATOM     17  C   UNL     1       4.787   7.178  17.378  0.00  0.00    +0.000 A 
ATOM     18  C   UNL     1       3.905   6.754  18.398  0.00  0.00    +0.000 A 
ATOM     19  H   UNL     1       3.197   4.617  20.676  0.00  0.00    +0.000 HD
ENDBRANCH   5   9
BRANCH   1  20
ATOM     20  C   UNL     1      -0.232  11.665  21.653  0.00  0.00    +0.000 C 
BRANCH  20  22
ATOM     21  C   UNL     1      -2.247  11.859  23.137  0.00  0.00    +0.000 C 
ATOM     22  C   UNL     1      -1.176  12.660  22.385  0.00  0.00    +0.000 C 
ATOM     23  C   UNL     1      -1.833  13.641  21.413  0.00  0.00    +0.000 C 
BRANCH  22  24
ATOM     24  O   UNL     1      -0.447  13.379  23.387  0.00  0.00    +0.000 OA
ATOM     25  H   UNL     1       0.500  13.205  23.249  0.00  0.00    +0.000 HD
ENDBRANCH  22  24
ENDBRANCH  20  22
ENDBRANCH   1  20
TORSDOF 4
ENDMDL
MODEL 4
REMARK VINA RESULT:      -7.0      2.294      3.457
REMARK  Name = 
REMARK  6 active torsions:
REMARK  status: ('A' for Active; 'I' for Inactive)
REMARK    1  A    between atoms: C_1  and  C_2
REMARK    2  A    between atoms: C_2  and  C_3
REMARK    3  A    between atoms: C_2  and  O_4
REMARK    4  A    between atoms: C_2  and  C_5
REMARK    5  A    between atoms: C_5  and  N_6
REMARK    6  A    between atoms: C_10  and  C_12
REMARK                            x       y       z     vdW  Elec       q    Type
REMARK                         _______ _______ _______ _____ _____    ______ ____
ROOT
ATOM      1  N   UNL     1       4.385   4.747  18.940  0.00  0.00    +0.000 NA
ATOM      2  C   UNL     1       4.802   5.893  18.090  0.00  0.00    +0.000 C 
ATOM      3  C   UNL     1       3.637   6.677  17.451  0.00  0.00    +0.000 C 
ATOM      4  N   UNL     1       2.694   7.115  18.487  0.00  0.00    +0.000 N 
ATOM      5  C   UNL     1       2.167   8.403  18.413  0.00  0.00    +0.000 C 
ATOM      6  O   UNL     1       2.387   9.127  17.440  0.00  0.00    +0.000 OA
ATOM      7  C   UNL     1       2.228   6.029  19.355  0.00  0.00    +0.000 C 
ATOM      8  C   UNL     1       3.427   5.262  19.954  0.00  0.00    +0.000 C 
ENDROOT
BRANCH   5   9
ATOM      9  C   UNL     1       1.364   8.908  19.530  0.00  0.00    +0.000 A 
ATOM     10  C   UNL     1       1.486   8.582  20.872  0.00  0.00    +0.000 A 
ATOM     11  N   UNL     1       0.518   9.242  21.577  0.00  0.00    +0.000 N 
ATOM     12  C   UNL     1      -0.143  10.120  20.756  0.00  0.00    +0.000 A 
ATOM     13  C   UNL     1      -1.134  11.061  21.061  0.00  0.00    +0.000 A 
ATOM     14  C   UNL     1      -1.605  11.858  20.016  0.00  0.00    +0.000 A 
ATOM     15 CL   UNL     1      -2.791  13.062  20.353  0.00  0.00    +0.000 Cl
ATOM     16  C   UNL     1      -1.131  11.711  18.718  0.00  0.00    +0.000 A 
ATOM     17  C   UNL     1      -0.154  10.749  18.430  0.00  0.00    +0.000 A 
ATOM     18  C   UNL     1       0.363   9.940  19.467  0.00  0.00    +0.000 A 
ATOM     19  H   UNL     1       0.350   9.144  22.569  0.00  0.00    +0.000 HD
ENDBRANCH   5   9
BRANCH   1  20
ATOM     20  C   UNL     1       3.758   3.641  18.175  0.00  0.00    +0.000 C 
BRANCH  20  22
ATOM     21  C   UNL     1       2.143   1.995  19.166  0.00  0.00    +0.000 C 
ATOM     22  C   UNL     1       3.624   2.250  18.858  0.00  0.00    +0.000 C 
ATOM     23  C   UNL     1       4.455   2.162  20.138  0.00  0.00    +0.000 C 
BRANCH  22  24
ATOM     24  O   UNL     1       4.020   1.218  17.947  0.00  0.00    +0.000 OA
ATOM     25  H   UNL     1       4.268   0.436  18.469  0.00  0.00    +0.000 HD
ENDBRANCH  22  24
ENDBRANCH  20  22
ENDBRANCH   1  20
TORSDOF 4
ENDMDL
MODEL 5
REMARK VINA RESULT:      -6.8      4.517      8.849
REMARK  Name = 
REMARK  6 active torsions:
REMARK  status: ('A' for Active; 'I' for Inactive)
REMARK    1  A    between atoms: C_1  and  C_2
REMARK    2  A    between atoms: C_2  and  C_3
REMARK    3  A    between atoms: C_2  and  O_4
REMARK    4  A    between atoms: C_2  and  C_5
REMARK    5  A    between atoms: C_5  and  N_6
REMARK    6  A    between atoms: C_10  and  C_12
REMARK                            x       y       z     vdW  Elec       q    Type
REMARK                         _______ _______ _______ _____ _____    ______ ____
ROOT
ATOM      1  N   UNL     1      -2.992  11.888  18.120  0.00  0.00    +0.000 NA
ATOM      2  C   UNL     1      -2.148  12.539  19.157  0.00  0.00    +0.000 C 
ATOM      3  C   UNL     1      -1.495  11.563  20.158  0.00  0.00    +0.000 C 
ATOM      4  N   UNL     1      -0.734  10.535  19.439  0.00  0.00    +0.000 N 
ATOM      5  C   UNL     1       0.516  10.162  19.928  0.00  0.00    +0.000 C 
ATOM      6  O   UNL     1       0.933  10.591  21.005  0.00  0.00    +0.000 OA
ATOM      7  C   UNL     1      -1.513   9.841  18.408  0.00  0.00    +0.000 C 
ATOM      8  C   UNL     1      -2.163  10.857  17.444  0.00  0.00    +0.000 C 
ENDROOT
BRANCH   5   9
ATOM      9  C   UNL     1       1.355   9.266  19.126  0.00  0.00    +0.000 A 
ATOM     10  C   UNL     1       2.013   9.562  17.942  0.00  0.00    +0.000 A 
ATOM     11  N   UNL     1       2.652   8.437  17.499  0.00  0.00    +0.000 N 
ATOM     12  C   UNL     1       2.562   7.445  18.442  0.00  0.00    +0.000 A 
ATOM     13  C   UNL     1       3.139   6.170  18.460  0.00  0.00    +0.000 A 
ATOM     14  C   UNL     1       2.905   5.375  19.584  0.00  0.00    +0.000 A 
ATOM     15 CL   UNL     1       3.634   3.816  19.671  0.00  0.00    +0.000 Cl
ATOM     16  C   UNL     1       2.110   5.817  20.635  0.00  0.00    +0.000 A 
ATOM     17  C   UNL     1       1.524   7.089  20.588  0.00  0.00    +0.000 A 
ATOM     18  C   UNL     1       1.759   7.931  19.476  0.00  0.00    +0.000 A 
ATOM     19  H   UNL     1       3.166   8.362  16.631  0.00  0.00    +0.000 HD
ENDBRANCH   5   9
BRANCH   1  20
ATOM     20  C   UNL     1      -4.223  11.264  18.665  0.00  0.00    +0.000 C 
BRANCH  20  22
ATOM     21  C   UNL     1      -5.766  12.881  19.807  0.00  0.00    +0.000 C 
ATOM     22  C   UNL     1      -5.566  12.038  18.541  0.00  0.00    +0.000 C 
ATOM     23  C   UNL     1      -6.751  11.092  18.340  0.00  0.00    +0.000 C 
BRANCH  22  24
ATOM     24  O   UNL     1      -5.495  12.969  17.455  0.00  0.00    +0.000 OA
ATOM     25  H   UNL     1      -5.954  13.782  17.727  0.00  0.00    +0.000 HD
ENDBRANCH  22  24
ENDBRANCH  20  22
ENDBRANCH   1  20
TORSDOF 4
ENDMDL
MODEL 6
REMARK VINA RESULT:      -6.7      2.653      3.758
REMARK  Name = 
REMARK  6 active torsions:
REMARK  status: ('A' for Active; 'I' for Inactive)
REMARK    1  A    between atoms: C_1  and  C_2
REMARK    2  A    between atoms: C_2  and  C_3
REMARK    3  A    between atoms: C_2  and  O_4
REMARK    4  A    between atoms: C_2  and  C_5
REMARK    5  A    between atoms: C_5  and  N_6
REMARK    6  A    between atoms: C_10  and  C_12
REMARK                            x       y       z     vdW  Elec       q    Type
REMARK                         _______ _______ _______ _____ _____    ______ ____
ROOT
ATOM      1  N   UNL     1       3.455   5.193  19.830  0.00  0.00    +0.000 NA
ATOM      2  C   UNL     1       4.227   6.150  18.995  0.00  0.00    +0.000 C 
ATOM      3  C   UNL     1       3.385   6.922  17.957  0.00  0.00    +0.000 C 
ATOM      4  N   UNL     1       2.263   7.598  18.619  0.00  0.00    +0.000 N 
ATOM      5  C   UNL     1       1.944   8.899  18.236  0.00  0.00    +0.000 C 
ATOM      6  O   UNL     1       2.506   9.439  17.281  0.00  0.00    +0.000 OA
ATOM      7  C   UNL     1       1.448   6.706  19.450  0.00  0.00    +0.000 C 
ATOM      8  C   UNL     1       2.335   5.942  20.457  0.00  0.00    +0.000 C 
ENDROOT
BRANCH   5   9
ATOM      9  C   UNL     1       0.942   9.642  19.006  0.00  0.00    +0.000 A 
ATOM     10  C   UNL     1       1.085  10.187  20.273  0.00  0.00    +0.000 A 
ATOM     11  N   UNL     1      -0.099  10.762  20.642  0.00  0.00    +0.000 N 
ATOM     12  C   UNL     1      -0.977  10.748  19.588  0.00  0.00    +0.000 A 
ATOM     13  C   UNL     1      -2.257  11.303  19.479  0.00  0.00    +0.000 A 
ATOM     14  C   UNL     1      -2.914  11.166  18.255  0.00  0.00    +0.000 A 
ATOM     15 CL   UNL     1      -4.473  11.874  18.059  0.00  0.00    +0.000 Cl
ATOM     16  C   UNL     1      -2.335  10.484  17.191  0.00  0.00    +0.000 A 
ATOM     17  C   UNL     1      -1.061   9.917  17.328  0.00  0.00    +0.000 A 
ATOM     18  C   UNL     1      -0.356  10.056  18.545  0.00  0.00    +0.000 A 
ATOM     19  H   UNL     1      -0.285  11.188  21.540  0.00  0.00    +0.000 HD
ENDBRANCH   5   9
BRANCH   1  20
ATOM     20  C   UNL     1       2.921   4.039  19.066  0.00  0.00    +0.000 C 
BRANCH  20  22
ATOM     21  C   UNL     1       4.355   3.400  17.108  0.00  0.00    +0.000 C 
ATOM     22  C   UNL     1       3.923   2.983  18.519  0.00  0.00    +0.000 C 
ATOM     23  C   UNL     1       3.314   1.580  18.495  0.00  0.00    +0.000 C 
BRANCH  22  24
ATOM     24  O   UNL     1       5.115   2.984  19.313  0.00  0.00    +0.000 OA
ATOM     25  H   UNL     1       5.328   2.061  19.534  0.00  0.00    +0.000 HD
ENDBRANCH  22  24
ENDBRANCH  20  22
ENDBRANCH   1  20
TORSDOF 4
ENDMDL
MODEL 7
REMARK VINA RESULT:      -6.7      3.129      4.302
REMARK  Name = 
REMARK  6 active torsions:
REMARK  status: ('A' for Active; 'I' for Inactive)
REMARK    1  A    between atoms: C_1  and  C_2
REMARK    2  A    between atoms: C_2  and  C_3
REMARK    3  A    between atoms: C_2  and  O_4
REMARK    4  A    between atoms: C_2  and  C_5
REMARK    5  A    between atoms: C_5  and  N_6
REMARK    6  A    between atoms: C_10  and  C_12
REMARK                            x       y       z     vdW  Elec       q    Type
REMARK                         _______ _______ _______ _____ _____    ______ ____
ROOT
ATOM      1  N   UNL     1       3.133   5.308  20.043  0.00  0.00    +0.000 NA
ATOM      2  C   UNL     1       3.959   6.153  19.141  0.00  0.00    +0.000 C 
ATOM      3  C   UNL     1       3.162   6.903  18.053  0.00  0.00    +0.000 C 
ATOM      4  N   UNL     1       2.089   7.695  18.668  0.00  0.00    +0.000 N 
ATOM      5  C   UNL     1       1.852   8.984  18.195  0.00  0.00    +0.000 C 
ATOM      6  O   UNL     1       2.442   9.418  17.204  0.00  0.00    +0.000 OA
ATOM      7  C   UNL     1       1.224   6.917  19.561  0.00  0.00    +0.000 C 
ATOM      8  C   UNL     1       2.066   6.170  20.618  0.00  0.00    +0.000 C 
ENDROOT
BRANCH   5   9
ATOM      9  C   UNL     1       0.904   9.841  18.913  0.00  0.00    +0.000 A 
ATOM     10  C   UNL     1       1.142  10.589  20.056  0.00  0.00    +0.000 A 
ATOM     11  N   UNL     1      -0.018  11.214  20.424  0.00  0.00    +0.000 N 
ATOM     12  C   UNL     1      -0.978  11.023  19.462  0.00  0.00    +0.000 A 
ATOM     13  C   UNL     1      -2.272  11.550  19.371  0.00  0.00    +0.000 A 
ATOM     14  C   UNL     1      -3.025  11.210  18.245  0.00  0.00    +0.000 A 
ATOM     15 CL   UNL     1      -4.605  11.873  18.065  0.00  0.00    +0.000 Cl
ATOM     16  C   UNL     1      -2.523  10.363  17.263  0.00  0.00    +0.000 A 
ATOM     17  C   UNL     1      -1.234   9.829  17.385  0.00  0.00    +0.000 A 
ATOM     18  C   UNL     1      -0.434  10.170  18.500  0.00  0.00    +0.000 A 
ATOM     19  H   UNL     1      -0.136  11.782  21.252  0.00  0.00    +0.000 HD
ENDBRANCH   5   9
BRANCH   1  20
ATOM     20  C   UNL     1       2.521   4.140  19.363  0.00  0.00    +0.000 C 
BRANCH  20  22
ATOM     21  C   UNL     1       2.369   2.645  21.373  0.00  0.00    +0.000 C 
ATOM     22  C   UNL     1       2.827   2.717  19.911  0.00  0.00    +0.000 C 
ATOM     23  C   UNL     1       4.314   2.375  19.803  0.00  0.00    +0.000 C 
BRANCH  22  24
ATOM     24  O   UNL     1       2.049   1.744  19.205  0.00  0.00    +0.000 OA
ATOM     25  H   UNL     1       1.544   2.207  18.516  0.00  0.00    +0.000 HD
ENDBRANCH  22  24
ENDBRANCH  20  22
ENDBRANCH   1  20
TORSDOF 4
ENDMDL
MODEL 8
REMARK VINA RESULT:      -6.7      4.470      8.636
REMARK  Name = 
REMARK  6 active torsions:
REMARK  status: ('A' for Active; 'I' for Inactive)
REMARK    1  A    between atoms: C_1  and  C_2
REMARK    2  A    between atoms: C_2  and  C_3
REMARK    3  A    between atoms: C_2  and  O_4
REMARK    4  A    between atoms: C_2  and  C_5
REMARK    5  A    between atoms: C_5  and  N_6
REMARK    6  A    between atoms: C_10  and  C_12
REMARK                            x       y       z     vdW  Elec       q    Type
REMARK                         _______ _______ _______ _____ _____    ______ ____
ROOT
ATOM      1  N   UNL     1      -2.310  11.628  17.730  0.00  0.00    +0.000 NA
ATOM      2  C   UNL     1      -1.202  12.523  18.155  0.00  0.00    +0.000 C 
ATOM      3  C   UNL     1      -0.737  12.323  19.613  0.00  0.00    +0.000 C 
ATOM      4  N   UNL     1      -0.386  10.916  19.843  0.00  0.00    +0.000 N 
ATOM      5  C   UNL     1       0.757  10.623  20.584  0.00  0.00    +0.000 C 
ATOM      6  O   UNL     1       1.402  11.513  21.141  0.00  0.00    +0.000 OA
ATOM      7  C   UNL     1      -1.445   9.977  19.458  0.00  0.00    +0.000 C 
ATOM      8  C   UNL     1      -1.890  10.228  18.001  0.00  0.00    +0.000 C 
ENDROOT
BRANCH   5   9
ATOM      9  C   UNL     1       1.209   9.231  20.673  0.00  0.00    +0.000 A 
ATOM     10  C   UNL     1       0.971   8.331  21.701  0.00  0.00    +0.000 A 
ATOM     11  N   UNL     1       1.602   7.153  21.410  0.00  0.00    +0.000 N 
ATOM     12  C   UNL     1       2.121   7.200  20.141  0.00  0.00    +0.000 A 
ATOM     13  C   UNL     1       2.760   6.201  19.396  0.00  0.00    +0.000 A 
ATOM     14  C   UNL     1       3.156   6.524  18.097  0.00  0.00    +0.000 A 
ATOM     15 CL   UNL     1       3.903   5.314  17.125  0.00  0.00    +0.000 Cl
ATOM     16  C   UNL     1       2.947   7.793  17.567  0.00  0.00    +0.000 A 
ATOM     17  C   UNL     1       2.325   8.784  18.337  0.00  0.00    +0.000 A 
ATOM     18  C   UNL     1       1.890   8.486  19.648  0.00  0.00    +0.000 A 
ATOM     19  H   UNL     1       1.633   6.344  22.015  0.00  0.00    +0.000 HD
ENDBRANCH   5   9
BRANCH   1  20
ATOM     20  C   UNL     1      -3.594  11.909  18.419  0.00  0.00    +0.000 C 
BRANCH  20  22
ATOM     21  C   UNL     1      -5.840  10.791  18.345  0.00  0.00    +0.000 C 
ATOM     22  C   UNL     1      -4.916  11.771  17.611  0.00  0.00    +0.000 C 
ATOM     23  C   UNL     1      -4.661  11.292  16.182  0.00  0.00    +0.000 C 
BRANCH  22  24
ATOM     24  O   UNL     1      -5.609  13.025  17.590  0.00  0.00    +0.000 OA
ATOM     25  H   UNL     1      -5.140  13.635  18.185  0.00  0.00    +0.000 HD
ENDBRANCH  22  24
ENDBRANCH  20  22
ENDBRANCH   1  20
TORSDOF 4
ENDMDL
MODEL 9
REMARK VINA RESULT:      -6.7      3.848      8.327
REMARK  Name = 
REMARK  6 active torsions:
REMARK  status: ('A' for Active; 'I' for Inactive)
REMARK    1  A    between atoms: C_1  and  C_2
REMARK    2  A    between atoms: C_2  and  C_3
REMARK    3  A    between atoms: C_2  and  O_4
REMARK    4  A    between atoms: C_2  and  C_5
REMARK    5  A    between atoms: C_5  and  N_6
REMARK    6  A    between atoms: C_10  and  C_12
REMARK                            x       y       z     vdW  Elec       q    Type
REMARK                         _______ _______ _______ _____ _____    ______ ____
ROOT
ATOM      1  N   UNL     1      -0.652  10.814  20.148  0.00  0.00    +0.000 NA
ATOM      2  C   UNL     1      -0.235  10.617  18.735  0.00  0.00    +0.000 C 
ATOM      3  C   UNL     1       1.227  10.160  18.553  0.00  0.00    +0.000 C 
ATOM      4  N   UNL     1       1.480   8.949  19.343  0.00  0.00    +0.000 N 
ATOM      5  C   UNL     1       2.231   7.923  18.774  0.00  0.00    +0.000 C 
ATOM      6  O   UNL     1       2.777   8.064  17.679  0.00  0.00    +0.000 OA
ATOM      7  C   UNL     1       1.105   9.080  20.755  0.00  0.00    +0.000 C 
ATOM      8  C   UNL     1      -0.358   9.558  20.885  0.00  0.00    +0.000 C 
ENDROOT
BRANCH   5   9
ATOM      9  C   UNL     1       2.343   6.646  19.485  0.00  0.00    +0.000 A 
ATOM     10  C   UNL     1       1.945   6.366  20.784  0.00  0.00    +0.000 A 
ATOM     11  N   UNL     1       2.264   5.068  21.073  0.00  0.00    +0.000 N 
ATOM     12  C   UNL     1       2.721   4.435  19.944  0.00  0.00    +0.000 A 
ATOM     13  C   UNL     1       3.070   3.093  19.747  0.00  0.00    +0.000 A 
ATOM     14  C   UNL     1       3.471   2.716  18.464  0.00  0.00    +0.000 A 
ATOM     15 CL   UNL     1       3.864   1.066  18.162  0.00  0.00    +0.000 Cl
ATOM     16  C   UNL     1       3.546   3.637  17.425  0.00  0.00    +0.000 A 
ATOM     17  C   UNL     1       3.213   4.980  17.649  0.00  0.00    +0.000 A 
ATOM     18  C   UNL     1       2.780   5.393  18.930  0.00  0.00    +0.000 A 
ATOM     19  H   UNL     1       2.130   4.620  21.969  0.00  0.00    +0.000 HD
ENDBRANCH   5   9
BRANCH   1  20
ATOM     20  C   UNL     1       0.027  11.955  20.811  0.00  0.00    +0.000 C 
BRANCH  20  22
ATOM     21  C   UNL     1      -2.224  12.754  21.584  0.00  0.00    +0.000 C 
ATOM     22  C   UNL     1      -0.731  12.719  21.934  0.00  0.00    +0.000 C 
ATOM     23  C   UNL     1      -0.195  14.139  22.117  0.00  0.00    +0.000 C 
BRANCH  22  24
ATOM     24  O   UNL     1      -0.633  11.998  23.168  0.00  0.00    +0.000 OA
ATOM     25  H   UNL     1      -0.813  12.620  23.893  0.00  0.00    +0.000 HD
ENDBRANCH  22  24
ENDBRANCH  20  22
ENDBRANCH   1  20
TORSDOF 4
ENDMDL
