MODEL 1
REMARK VINA RESULT:      -8.6      0.000      0.000
REMARK  Name = 
REMARK  9 active torsions:
REMARK  status: ('A' for Active; 'I' for Inactive)
REMARK    1  A    between atoms: C_2  and  C_3
REMARK    2  A    between atoms: C_3  and  C_4
REMARK    3  A    between atoms: C_6  and  C_7
REMARK    4  A    between atoms: C_7  and  N_8
REMARK    5  A    between atoms: N_8  and  C_9
REMARK    6  A    between atoms: C_9  and  C_10
REMARK    7  A    between atoms: C_17  and  O_18
REMARK    8  A    between atoms: C_19  and  O_20
REMARK    9  A    between atoms: N_21  and  C_22
REMARK                            x       y       z     vdW  Elec       q    Type
REMARK                         _______ _______ _______ _____ _____    ______ ____
ROOT
ATOM      1  C   UNL     1       7.825   6.965  17.416  0.00  0.00    +0.000 C 
ATOM      2  O   UNL     1       7.287   6.492  16.163  0.00  0.00    +0.000 OA
ATOM      3  C   UNL     1       6.703   5.180  16.374  0.00  0.00    +0.000 C 
ATOM      4  C   UNL     1       7.065   4.754  17.793  0.00  0.00    +0.000 C 
ATOM      5  C   UNL     1       7.221   6.082  18.506  0.00  0.00    +0.000 C 
ENDROOT
BRANCH   4   6
ATOM      6  O   UNL     1       8.336   4.076  17.815  0.00  0.00    +0.000 OA
ATOM      7  H   UNL     1       9.031   4.722  18.039  0.00  0.00    +0.000 HD
ENDBRANCH   4   6
BRANCH   5   8
ATOM      8  O   UNL     1       8.064   5.991  19.644  0.00  0.00    +0.000 OA
ATOM      9  H   UNL     1       8.952   5.751  19.310  0.00  0.00    +0.000 HD
ENDBRANCH   5   8
BRANCH   1  10
ATOM     10  C   UNL     1       7.467   8.422  17.653  0.00  0.00    +0.000 C 
BRANCH  10  12
ATOM     11  O   UNL     1       9.063   8.777  19.357  0.00  0.00    +0.000 OA
ATOM     12  C   UNL     1       8.509   9.254  18.368  0.00  0.00    +0.000 C 
ATOM     13  N   UNL     1       8.669  10.544  17.898  0.00  0.00    +0.000 N 
ATOM     14  H   UNL     1       8.015  10.861  17.189  0.00  0.00    +0.000 HD
BRANCH  13  15
ATOM     15  C   UNL     1       9.631  11.475  18.351  0.00  0.00    +0.000 A 
ATOM     16  C   UNL     1       9.453  12.230  19.511  0.00  0.00    +0.000 A 
ATOM     17  C   UNL     1      10.435  13.117  19.948  0.00  0.00    +0.000 A 
ATOM     18  C   UNL     1      11.619  13.259  19.223  0.00  0.00    +0.000 A 
ATOM     19  C   UNL     1      11.807  12.517  18.063  0.00  0.00    +0.000 A 
ATOM     20  C   UNL     1      10.820  11.623  17.626  0.00  0.00    +0.000 A 
ENDBRANCH  13  15
ENDBRANCH  10  12
ENDBRANCH   1  10
BRANCH   3  21
ATOM     21  C   UNL     1       5.189   5.284  16.107  0.00  0.00    +0.000 C 
BRANCH  21  22
ATOM     22  N   UNL     1       4.373   4.482  17.036  0.00  0.00    +0.000 NA
ATOM     23  H   UNL     1       4.973   4.137  17.786  0.00  0.00    +0.000 HD
BRANCH  22  24
ATOM     24  C   UNL     1       3.283   5.254  17.636  0.00  0.00    +0.000 C 
BRANCH  24  25
ATOM     25  C   UNL     1       2.643   4.514  18.784  0.00  0.00    +0.000 A 
ATOM     26  C   UNL     1       2.854   4.934  20.109  0.00  0.00    +0.000 A 
ATOM     27  C   UNL     1       2.234   4.267  21.166  0.00  0.00    +0.000 A 
ATOM     28  C   UNL     1       1.404   3.185  20.899  0.00  0.00    +0.000 A 
ATOM     29  F   UNL     1       0.802   2.553  21.914  0.00  0.00    +0.000 F 
ATOM     30  C   UNL     1       1.184   2.753  19.596  0.00  0.00    +0.000 A 
ATOM     31  C   UNL     1       1.805   3.416  18.538  0.00  0.00    +0.000 A 
ENDBRANCH  24  25
ENDBRANCH  22  24
ENDBRANCH  21  22
ENDBRANCH   3  21
TORSDOF 9
ENDMDL
MODEL 2
REMARK VINA RESULT:      -8.2      0.414      1.001
REMARK  Name = 
REMARK  9 active torsions:
REMARK  status: ('A' for Active; 'I' for Inactive)
REMARK    1  A    between atoms: C_2  and  C_3
REMARK    2  A    between atoms: C_3  and  C_4
REMARK    3  A    between atoms: C_6  and  C_7
REMARK    4  A    between atoms: C_7  and  N_8
REMARK    5  A    between atoms: N_8  and  C_9
REMARK    6  A    between atoms: C_9  and  C_10
REMARK    7  A    between atoms: C_17  and  O_18
REMARK    8  A    between atoms: C_19  and  O_20
REMARK    9  A    between atoms: N_21  and  C_22
REMARK                            x       y       z     vdW  Elec       q    Type
REMARK                         _______ _______ _______ _____ _____    ______ ____
ROOT
ATOM      1  C   UNL     1       7.737   6.964  17.371  0.00  0.00    +0.000 C 
ATOM      2  O   UNL     1       7.015   6.476  16.220  0.00  0.00    +0.000 OA
ATOM      3  C   UNL     1       6.456   5.176  16.539  0.00  0.00    +0.000 C 
ATOM      4  C   UNL     1       7.021   4.769  17.896  0.00  0.00    +0.000 C 
ATOM      5  C   UNL     1       7.294   6.106  18.554  0.00  0.00    +0.000 C 
ENDROOT
BRANCH   4   6
ATOM      6  O   UNL     1       8.275   4.076  17.741  0.00  0.00    +0.000 OA
ATOM      7  H   UNL     1       8.322   3.714  16.836  0.00  0.00    +0.000 HD
ENDBRANCH   4   6
BRANCH   5   8
ATOM      8  O   UNL     1       8.296   6.024  19.555  0.00  0.00    +0.000 OA
ATOM      9  H   UNL     1       8.441   5.070  19.722  0.00  0.00    +0.000 HD
ENDBRANCH   5   8
BRANCH   1  10
ATOM     10  C   UNL     1       7.431   8.428  17.632  0.00  0.00    +0.000 C 
BRANCH  10  12
ATOM     11  O   UNL     1       9.044   8.672  19.341  0.00  0.00    +0.000 OA
ATOM     12  C   UNL     1       8.495   9.205  18.378  0.00  0.00    +0.000 C 
ATOM     13  N   UNL     1       8.678  10.512  17.967  0.00  0.00    +0.000 N 
ATOM     14  H   UNL     1       8.027  10.874  17.278  0.00  0.00    +0.000 HD
BRANCH  13  15
ATOM     15  C   UNL     1       9.662  11.402  18.456  0.00  0.00    +0.000 A 
ATOM     16  C   UNL     1       9.649  11.884  19.766  0.00  0.00    +0.000 A 
ATOM     17  C   UNL     1      10.651  12.735  20.226  0.00  0.00    +0.000 A 
ATOM     18  C   UNL     1      11.689  13.117  19.375  0.00  0.00    +0.000 A 
ATOM     19  C   UNL     1      11.711  12.647  18.067  0.00  0.00    +0.000 A 
ATOM     20  C   UNL     1      10.705  11.789  17.605  0.00  0.00    +0.000 A 
ENDBRANCH  13  15
ENDBRANCH  10  12
ENDBRANCH   1  10
BRANCH   3  21
ATOM     21  C   UNL     1       4.921   5.292  16.497  0.00  0.00    +0.000 C 
BRANCH  21  22
ATOM     22  N   UNL     1       4.228   4.127  17.077  0.00  0.00    +0.000 NA
ATOM     23  H   UNL     1       4.610   3.946  18.006  0.00  0.00    +0.000 HD
BRANCH  22  24
ATOM     24  C   UNL     1       2.785   4.338  17.204  0.00  0.00    +0.000 C 
BRANCH  24  25
ATOM     25  C   UNL     1       2.276   3.900  18.556  0.00  0.00    +0.000 A 
ATOM     26  C   UNL     1       1.242   2.953  18.655  0.00  0.00    +0.000 A 
ATOM     27  C   UNL     1       0.796   2.527  19.906  0.00  0.00    +0.000 A 
ATOM     28  C   UNL     1       1.384   3.045  21.054  0.00  0.00    +0.000 A 
ATOM     29  F   UNL     1       0.961   2.627  22.255  0.00  0.00    +0.000 F 
ATOM     30  C   UNL     1       2.405   3.984  20.977  0.00  0.00    +0.000 A 
ATOM     31  C   UNL     1       2.851   4.413  19.728  0.00  0.00    +0.000 A 
ENDBRANCH  24  25
ENDBRANCH  22  24
ENDBRANCH  21  22
ENDBRANCH   3  21
TORSDOF 9
ENDMDL
MODEL 3
REMARK VINA RESULT:      -8.2      4.343      7.535
REMARK  Name = 
REMARK  9 active torsions:
REMARK  status: ('A' for Active; 'I' for Inactive)
REMARK    1  A    between atoms: C_2  and  C_3
REMARK    2  A    between atoms: C_3  and  C_4
REMARK    3  A    between atoms: C_6  and  C_7
REMARK    4  A    between atoms: C_7  and  N_8
REMARK    5  A    between atoms: N_8  and  C_9
REMARK    6  A    between atoms: C_9  and  C_10
REMARK    7  A    between atoms: C_17  and  O_18
REMARK    8  A    between atoms: C_19  and  O_20
REMARK    9  A    between atoms: N_21  and  C_22
REMARK                            x       y       z     vdW  Elec       q    Type
REMARK                         _______ _______ _______ _____ _____    ______ ____
ROOT
ATOM      1  C   UNL     1       3.116   2.560  20.524  0.00  0.00    +0.000 C 
ATOM      2  O   UNL     1       4.393   3.153  20.204  0.00  0.00    +0.000 OA
ATOM      3  C   UNL     1       4.668   2.931  18.796  0.00  0.00    +0.000 C 
ATOM      4  C   UNL     1       3.584   1.994  18.273  0.00  0.00    +0.000 C 
ATOM      5  C   UNL     1       2.417   2.294  19.193  0.00  0.00    +0.000 C 
ENDROOT
BRANCH   4   6
ATOM      6  O   UNL     1       3.964   0.617  18.457  0.00  0.00    +0.000 OA
ATOM      7  H   UNL     1       4.781   0.448  17.952  0.00  0.00    +0.000 HD
ENDBRANCH   4   6
BRANCH   5   8
ATOM      8  O   UNL     1       1.503   1.213  19.280  0.00  0.00    +0.000 OA
ATOM      9  H   UNL     1       1.550   0.743  18.422  0.00  0.00    +0.000 HD
ENDBRANCH   5   8
BRANCH   1  10
ATOM     10  C   UNL     1       2.280   3.489  21.387  0.00  0.00    +0.000 C 
BRANCH  10  12
ATOM     11  O   UNL     1       0.481   4.614  20.348  0.00  0.00    +0.000 OA
ATOM     12  C   UNL     1       1.664   4.677  20.679  0.00  0.00    +0.000 C 
ATOM     13  N   UNL     1       2.535   5.703  20.367  0.00  0.00    +0.000 N 
ATOM     14  H   UNL     1       3.522   5.540  20.541  0.00  0.00    +0.000 HD
BRANCH  13  15
ATOM     15  C   UNL     1       2.180   6.940  19.781  0.00  0.00    +0.000 A 
ATOM     16  C   UNL     1       1.563   7.961  20.506  0.00  0.00    +0.000 A 
ATOM     17  C   UNL     1       1.255   9.180  19.907  0.00  0.00    +0.000 A 
ATOM     18  C   UNL     1       1.566   9.396  18.563  0.00  0.00    +0.000 A 
ATOM     19  C   UNL     1       2.177   8.386  17.829  0.00  0.00    +0.000 A 
ATOM     20  C   UNL     1       2.489   7.161  18.433  0.00  0.00    +0.000 A 
ENDBRANCH  13  15
ENDBRANCH  10  12
ENDBRANCH   1  10
BRANCH   3  21
ATOM     21  C   UNL     1       4.717   4.302  18.097  0.00  0.00    +0.000 C 
BRANCH  21  22
ATOM     22  N   UNL     1       4.890   4.210  16.636  0.00  0.00    +0.000 NA
ATOM     23  H   UNL     1       4.303   4.918  16.191  0.00  0.00    +0.000 HD
BRANCH  22  24
ATOM     24  C   UNL     1       6.275   4.431  16.218  0.00  0.00    +0.000 C 
BRANCH  24  25
ATOM     25  C   UNL     1       6.933   5.524  17.024  0.00  0.00    +0.000 A 
ATOM     26  C   UNL     1       7.583   5.224  18.234  0.00  0.00    +0.000 A 
ATOM     27  C   UNL     1       8.218   6.231  18.960  0.00  0.00    +0.000 A 
ATOM     28  C   UNL     1       8.205   7.534  18.477  0.00  0.00    +0.000 A 
ATOM     29  F   UNL     1       8.824   8.499  19.170  0.00  0.00    +0.000 F 
ATOM     30  C   UNL     1       7.566   7.852  17.284  0.00  0.00    +0.000 A 
ATOM     31  C   UNL     1       6.928   6.846  16.558  0.00  0.00    +0.000 A 
ENDBRANCH  24  25
ENDBRANCH  22  24
ENDBRANCH  21  22
ENDBRANCH   3  21
TORSDOF 9
ENDMDL
MODEL 4
REMARK VINA RESULT:      -8.1      5.621      7.936
REMARK  Name = 
REMARK  9 active torsions:
REMARK  status: ('A' for Active; 'I' for Inactive)
REMARK    1  A    between atoms: C_2  and  C_3
REMARK    2  A    between atoms: C_3  and  C_4
REMARK    3  A    between atoms: C_6  and  C_7
REMARK    4  A    between atoms: C_7  and  N_8
REMARK    5  A    between atoms: N_8  and  C_9
REMARK    6  A    between atoms: C_9  and  C_10
REMARK    7  A    between atoms: C_17  and  O_18
REMARK    8  A    between atoms: C_19  and  O_20
REMARK    9  A    between atoms: N_21  and  C_22
REMARK                            x       y       z     vdW  Elec       q    Type
REMARK                         _______ _______ _______ _____ _____    ______ ____
ROOT
ATOM      1  C   UNL     1       3.389   2.994  20.087  0.00  0.00    +0.000 C 
ATOM      2  O   UNL     1       4.445   3.804  19.529  0.00  0.00    +0.000 OA
ATOM      3  C   UNL     1       4.463   3.618  18.091  0.00  0.00    +0.000 C 
ATOM      4  C   UNL     1       3.483   2.493  17.775  0.00  0.00    +0.000 C 
ATOM      5  C   UNL     1       2.494   2.587  18.919  0.00  0.00    +0.000 C 
ENDROOT
BRANCH   4   6
ATOM      6  O   UNL     1       4.135   1.210  17.844  0.00  0.00    +0.000 OA
ATOM      7  H   UNL     1       4.223   0.955  18.781  0.00  0.00    +0.000 HD
ENDBRANCH   4   6
BRANCH   5   8
ATOM      8  O   UNL     1       1.827   1.358  19.163  0.00  0.00    +0.000 OA
ATOM      9  H   UNL     1       2.362   0.664  18.727  0.00  0.00    +0.000 HD
ENDBRANCH   5   8
BRANCH   1  10
ATOM     10  C   UNL     1       2.592   3.766  21.124  0.00  0.00    +0.000 C 
BRANCH  10  12
ATOM     11  O   UNL     1       0.622   4.864  20.423  0.00  0.00    +0.000 OA
ATOM     12  C   UNL     1       1.832   4.971  20.615  0.00  0.00    +0.000 C 
ATOM     13  N   UNL     1       2.604   6.074  20.301  0.00  0.00    +0.000 N 
ATOM     14  H   UNL     1       3.612   5.958  20.339  0.00  0.00    +0.000 HD
BRANCH  13  15
ATOM     15  C   UNL     1       2.115   7.334  19.885  0.00  0.00    +0.000 A 
ATOM     16  C   UNL     1       2.300   7.817  18.589  0.00  0.00    +0.000 A 
ATOM     17  C   UNL     1       1.778   9.050  18.202  0.00  0.00    +0.000 A 
ATOM     18  C   UNL     1       1.056   9.820  19.115  0.00  0.00    +0.000 A 
ATOM     19  C   UNL     1       0.868   9.352  20.410  0.00  0.00    +0.000 A 
ATOM     20  C   UNL     1       1.392   8.112  20.798  0.00  0.00    +0.000 A 
ENDBRANCH  13  15
ENDBRANCH  10  12
ENDBRANCH   1  10
BRANCH   3  21
ATOM     21  C   UNL     1       4.120   4.966  17.430  0.00  0.00    +0.000 C 
BRANCH  21  22
ATOM     22  N   UNL     1       5.282   5.629  16.811  0.00  0.00    +0.000 NA
ATOM     23  H   UNL     1       5.625   6.352  17.445  0.00  0.00    +0.000 HD
BRANCH  22  24
ATOM     24  C   UNL     1       6.379   4.699  16.537  0.00  0.00    +0.000 C 
BRANCH  24  25
ATOM     25  C   UNL     1       6.640   4.566  15.057  0.00  0.00    +0.000 A 
ATOM     26  C   UNL     1       5.858   3.702  14.270  0.00  0.00    +0.000 A 
ATOM     27  C   UNL     1       6.081   3.606  12.897  0.00  0.00    +0.000 A 
ATOM     28  C   UNL     1       7.080   4.373  12.311  0.00  0.00    +0.000 A 
ATOM     29  F   UNL     1       7.286   4.287  10.990  0.00  0.00    +0.000 F 
ATOM     30  C   UNL     1       7.866   5.231  13.071  0.00  0.00    +0.000 A 
ATOM     31  C   UNL     1       7.647   5.327  14.445  0.00  0.00    +0.000 A 
ENDBRANCH  24  25
ENDBRANCH  22  24
ENDBRANCH  21  22
ENDBRANCH   3  21
TORSDOF 9
ENDMDL
MODEL 5
REMARK VINA RESULT:      -7.9      1.009      1.574
REMARK  Name = 
REMARK  9 active torsions:
REMARK  status: ('A' for Active; 'I' for Inactive)
REMARK    1  A    between atoms: C_2  and  C_3
REMARK    2  A    between atoms: C_3  and  C_4
REMARK    3  A    between atoms: C_6  and  C_7
REMARK    4  A    between atoms: C_7  and  N_8
REMARK    5  A    between atoms: N_8  and  C_9
REMARK    6  A    between atoms: C_9  and  C_10
REMARK    7  A    between atoms: C_17  and  O_18
REMARK    8  A    between atoms: C_19  and  O_20
REMARK    9  A    between atoms: N_21  and  C_22
REMARK                            x       y       z     vdW  Elec       q    Type
REMARK                         _______ _______ _______ _____ _____    ______ ____
ROOT
ATOM      1  C   UNL     1       7.777   6.921  17.437  0.00  0.00    +0.000 C 
ATOM      2  O   UNL     1       7.179   6.358  16.250  0.00  0.00    +0.000 OA
ATOM      3  C   UNL     1       6.716   5.017  16.555  0.00  0.00    +0.000 C 
ATOM      4  C   UNL     1       7.223   4.677  17.953  0.00  0.00    +0.000 C 
ATOM      5  C   UNL     1       7.332   6.042  18.603  0.00  0.00    +0.000 C 
ENDROOT
BRANCH   4   6
ATOM      6  O   UNL     1       8.540   4.097  17.893  0.00  0.00    +0.000 OA
ATOM      7  H   UNL     1       8.868   3.972  18.803  0.00  0.00    +0.000 HD
ENDBRANCH   4   6
BRANCH   5   8
ATOM      8  O   UNL     1       8.268   6.060  19.670  0.00  0.00    +0.000 OA
ATOM      9  H   UNL     1       9.155   5.999  19.259  0.00  0.00    +0.000 HD
ENDBRANCH   5   8
BRANCH   1  10
ATOM     10  C   UNL     1       7.327   8.356  17.652  0.00  0.00    +0.000 C 
BRANCH  10  12
ATOM     11  O   UNL     1       9.112   8.932  19.088  0.00  0.00    +0.000 OA
ATOM     12  C   UNL     1       8.379   9.310  18.175  0.00  0.00    +0.000 C 
ATOM     13  N   UNL     1       8.348  10.584  17.641  0.00  0.00    +0.000 N 
ATOM     14  H   UNL     1       7.572  10.808  17.026  0.00  0.00    +0.000 HD
BRANCH  13  15
ATOM     15  C   UNL     1       9.274  11.617  17.913  0.00  0.00    +0.000 A 
ATOM     16  C   UNL     1      10.653  11.406  17.909  0.00  0.00    +0.000 A 
ATOM     17  C   UNL     1      11.540  12.454  18.150  0.00  0.00    +0.000 A 
ATOM     18  C   UNL     1      11.052  13.738  18.399  0.00  0.00    +0.000 A 
ATOM     19  C   UNL     1       9.680  13.960  18.410  0.00  0.00    +0.000 A 
ATOM     20  C   UNL     1       8.789  12.907  18.165  0.00  0.00    +0.000 A 
ENDBRANCH  13  15
ENDBRANCH  10  12
ENDBRANCH   1  10
BRANCH   3  21
ATOM     21  C   UNL     1       5.183   4.996  16.410  0.00  0.00    +0.000 C 
BRANCH  21  22
ATOM     22  N   UNL     1       4.571   6.336  16.462  0.00  0.00    +0.000 NA
ATOM     23  H   UNL     1       3.844   6.394  15.747  0.00  0.00    +0.000 HD
BRANCH  22  24
ATOM     24  C   UNL     1       3.963   6.627  17.762  0.00  0.00    +0.000 C 
BRANCH  24  25
ATOM     25  C   UNL     1       3.265   5.417  18.333  0.00  0.00    +0.000 A 
ATOM     26  C   UNL     1       2.077   4.939  17.753  0.00  0.00    +0.000 A 
ATOM     27  C   UNL     1       1.452   3.802  18.263  0.00  0.00    +0.000 A 
ATOM     28  C   UNL     1       2.015   3.142  19.349  0.00  0.00    +0.000 A 
ATOM     29  F   UNL     1       1.419   2.043  19.831  0.00  0.00    +0.000 F 
ATOM     30  C   UNL     1       3.188   3.599  19.938  0.00  0.00    +0.000 A 
ATOM     31  C   UNL     1       3.813   4.737  19.431  0.00  0.00    +0.000 A 
ENDBRANCH  24  25
ENDBRANCH  22  24
ENDBRANCH  21  22
ENDBRANCH   3  21
TORSDOF 9
ENDMDL
MODEL 6
REMARK VINA RESULT:      -7.9      0.795      1.327
REMARK  Name = 
REMARK  9 active torsions:
REMARK  status: ('A' for Active; 'I' for Inactive)
REMARK    1  A    between atoms: C_2  and  C_3
REMARK    2  A    between atoms: C_3  and  C_4
REMARK    3  A    between atoms: C_6  and  C_7
REMARK    4  A    between atoms: C_7  and  N_8
REMARK    5  A    between atoms: N_8  and  C_9
REMARK    6  A    between atoms: C_9  and  C_10
REMARK    7  A    between atoms: C_17  and  O_18
REMARK    8  A    between atoms: C_19  and  O_20
REMARK    9  A    between atoms: N_21  and  C_22
REMARK                            x       y       z     vdW  Elec       q    Type
REMARK                         _______ _______ _______ _____ _____    ______ ____
ROOT
ATOM      1  C   UNL     1       7.757   6.920  17.351  0.00  0.00    +0.000 C 
ATOM      2  O   UNL     1       7.057   6.399  16.201  0.00  0.00    +0.000 OA
ATOM      3  C   UNL     1       6.517   5.095  16.538  0.00  0.00    +0.000 C 
ATOM      4  C   UNL     1       7.073   4.722  17.908  0.00  0.00    +0.000 C 
ATOM      5  C   UNL     1       7.315   6.076  18.544  0.00  0.00    +0.000 C 
ENDROOT
BRANCH   4   6
ATOM      6  O   UNL     1       8.341   4.049  17.780  0.00  0.00    +0.000 OA
ATOM      7  H   UNL     1       8.529   3.578  18.613  0.00  0.00    +0.000 HD
ENDBRANCH   4   6
BRANCH   5   8
ATOM      8  O   UNL     1       8.306   6.030  19.559  0.00  0.00    +0.000 OA
ATOM      9  H   UNL     1       8.906   5.292  19.324  0.00  0.00    +0.000 HD
ENDBRANCH   5   8
BRANCH   1  10
ATOM     10  C   UNL     1       7.423   8.383  17.582  0.00  0.00    +0.000 C 
BRANCH  10  12
ATOM     11  O   UNL     1       9.028   8.704  19.285  0.00  0.00    +0.000 OA
ATOM     12  C   UNL     1       8.474   9.198  18.304  0.00  0.00    +0.000 C 
ATOM     13  N   UNL     1       8.642  10.493  17.850  0.00  0.00    +0.000 N 
ATOM     14  H   UNL     1       7.987  10.824  17.148  0.00  0.00    +0.000 HD
BRANCH  13  15
ATOM     15  C   UNL     1       9.612  11.411  18.312  0.00  0.00    +0.000 A 
ATOM     16  C   UNL     1      10.759  11.720  17.578  0.00  0.00    +0.000 A 
ATOM     17  C   UNL     1      11.680  12.654  18.047  0.00  0.00    +0.000 A 
ATOM     18  C   UNL     1      11.462  13.298  19.266  0.00  0.00    +0.000 A 
ATOM     19  C   UNL     1      10.327  12.997  20.008  0.00  0.00    +0.000 A 
ATOM     20  C   UNL     1       9.400  12.059  19.535  0.00  0.00    +0.000 A 
ENDBRANCH  13  15
ENDBRANCH  10  12
ENDBRANCH   1  10
BRANCH   3  21
ATOM     21  C   UNL     1       4.980   5.184  16.476  0.00  0.00    +0.000 C 
BRANCH  21  22
ATOM     22  N   UNL     1       4.473   6.568  16.466  0.00  0.00    +0.000 NA
ATOM     23  H   UNL     1       3.810   6.669  15.696  0.00  0.00    +0.000 HD
BRANCH  22  24
ATOM     24  C   UNL     1       3.792   6.926  17.711  0.00  0.00    +0.000 C 
BRANCH  24  25
ATOM     25  C   UNL     1       3.163   5.721  18.368  0.00  0.00    +0.000 A 
ATOM     26  C   UNL     1       3.636   5.259  19.609  0.00  0.00    +0.000 A 
ATOM     27  C   UNL     1       3.032   4.165  20.229  0.00  0.00    +0.000 A 
ATOM     28  C   UNL     1       1.956   3.538  19.612  0.00  0.00    +0.000 A 
ATOM     29  F   UNL     1       1.370   2.495  20.214  0.00  0.00    +0.000 F 
ATOM     30  C   UNL     1       1.475   3.979  18.385  0.00  0.00    +0.000 A 
ATOM     31  C   UNL     1       2.079   5.071  17.762  0.00  0.00    +0.000 A 
ENDBRANCH  24  25
ENDBRANCH  22  24
ENDBRANCH  21  22
ENDBRANCH   3  21
TORSDOF 9
ENDMDL
MODEL 7
REMARK VINA RESULT:      -7.9      5.650      7.939
REMARK  Name = 
REMARK  9 active torsions:
REMARK  status: ('A' for Active; 'I' for Inactive)
REMARK    1  A    between atoms: C_2  and  C_3
REMARK    2  A    between atoms: C_3  and  C_4
REMARK    3  A    between atoms: C_6  and  C_7
REMARK    4  A    between atoms: C_7  and  N_8
REMARK    5  A    between atoms: N_8  and  C_9
REMARK    6  A    between atoms: C_9  and  C_10
REMARK    7  A    between atoms: C_17  and  O_18
REMARK    8  A    between atoms: C_19  and  O_20
REMARK    9  A    between atoms: N_21  and  C_22
REMARK                            x       y       z     vdW  Elec       q    Type
REMARK                         _______ _______ _______ _____ _____    ______ ____
ROOT
ATOM      1  C   UNL     1       3.369   2.825  20.046  0.00  0.00    +0.000 C 
ATOM      2  O   UNL     1       4.520   3.631  19.714  0.00  0.00    +0.000 OA
ATOM      3  C   UNL     1       4.673   3.650  18.271  0.00  0.00    +0.000 C 
ATOM      4  C   UNL     1       3.668   2.653  17.704  0.00  0.00    +0.000 C 
ATOM      5  C   UNL     1       2.576   2.652  18.753  0.00  0.00    +0.000 C 
ENDROOT
BRANCH   4   6
ATOM      6  O   UNL     1       4.238   1.331  17.642  0.00  0.00    +0.000 OA
ATOM      7  H   UNL     1       4.241   1.035  16.713  0.00  0.00    +0.000 HD
ENDBRANCH   4   6
BRANCH   5   8
ATOM      8  O   UNL     1       1.820   1.451  18.750  0.00  0.00    +0.000 OA
ATOM      9  H   UNL     1       1.444   1.360  19.650  0.00  0.00    +0.000 HD
ENDBRANCH   5   8
BRANCH   1  10
ATOM     10  C   UNL     1       2.516   3.496  21.108  0.00  0.00    +0.000 C 
BRANCH  10  12
ATOM     11  O   UNL     1       0.541   4.592  20.416  0.00  0.00    +0.000 OA
ATOM     12  C   UNL     1       1.740   4.717  20.663  0.00  0.00    +0.000 C 
ATOM     13  N   UNL     1       2.489   5.861  20.464  0.00  0.00    +0.000 N 
ATOM     14  H   UNL     1       3.498   5.769  20.532  0.00  0.00    +0.000 HD
BRANCH  13  15
ATOM     15  C   UNL     1       1.978   7.135  20.126  0.00  0.00    +0.000 A 
ATOM     16  C   UNL     1       1.252   7.913  21.029  0.00  0.00    +0.000 A 
ATOM     17  C   UNL     1       0.790   9.179  20.675  0.00  0.00    +0.000 A 
ATOM     18  C   UNL     1       1.053   9.687  19.402  0.00  0.00    +0.000 A 
ATOM     19  C   UNL     1       1.771   8.921  18.492  0.00  0.00    +0.000 A 
ATOM     20  C   UNL     1       2.237   7.649  18.849  0.00  0.00    +0.000 A 
ENDBRANCH  13  15
ENDBRANCH  10  12
ENDBRANCH   1  10
BRANCH   3  21
ATOM     21  C   UNL     1       4.474   5.099  17.789  0.00  0.00    +0.000 C 
BRANCH  21  22
ATOM     22  N   UNL     1       4.653   5.263  16.335  0.00  0.00    +0.000 NA
ATOM     23  H   UNL     1       4.074   6.042  16.018  0.00  0.00    +0.000 HD
BRANCH  22  24
ATOM     24  C   UNL     1       6.042   5.542  15.967  0.00  0.00    +0.000 C 
BRANCH  24  25
ATOM     25  C   UNL     1       6.384   4.976  14.611  0.00  0.00    +0.000 A 
ATOM     26  C   UNL     1       7.540   5.400  13.933  0.00  0.00    +0.000 A 
ATOM     27  C   UNL     1       7.871   4.851  12.694  0.00  0.00    +0.000 A 
ATOM     28  C   UNL     1       7.050   3.878  12.137  0.00  0.00    +0.000 A 
ATOM     29  F   UNL     1       7.375   3.344  10.952  0.00  0.00    +0.000 F 
ATOM     30  C   UNL     1       5.902   3.447  12.790  0.00  0.00    +0.000 A 
ATOM     31  C   UNL     1       5.568   3.996  14.028  0.00  0.00    +0.000 A 
ENDBRANCH  24  25
ENDBRANCH  22  24
ENDBRANCH  21  22
ENDBRANCH   3  21
TORSDOF 9
ENDMDL
MODEL 8
REMARK VINA RESULT:      -7.9      2.236      2.884
REMARK  Name = 
REMARK  9 active torsions:
REMARK  status: ('A' for Active; 'I' for Inactive)
REMARK    1  A    between atoms: C_2  and  C_3
REMARK    2  A    between atoms: C_3  and  C_4
REMARK    3  A    between atoms: C_6  and  C_7
REMARK    4  A    between atoms: C_7  and  N_8
REMARK    5  A    between atoms: N_8  and  C_9
REMARK    6  A    between atoms: C_9  and  C_10
REMARK    7  A    between atoms: C_17  and  O_18
REMARK    8  A    between atoms: C_19  and  O_20
REMARK    9  A    between atoms: N_21  and  C_22
REMARK                            x       y       z     vdW  Elec       q    Type
REMARK                         _______ _______ _______ _____ _____    ______ ____
ROOT
ATOM      1  C   UNL     1       7.782   6.949  17.405  0.00  0.00    +0.000 C 
ATOM      2  O   UNL     1       7.193   6.440  16.190  0.00  0.00    +0.000 OA
ATOM      3  C   UNL     1       6.658   5.117  16.451  0.00  0.00    +0.000 C 
ATOM      4  C   UNL     1       7.106   4.725  17.855  0.00  0.00    +0.000 C 
ATOM      5  C   UNL     1       7.261   6.068  18.539  0.00  0.00    +0.000 C 
ENDROOT
BRANCH   4   6
ATOM      6  O   UNL     1       8.396   4.083  17.820  0.00  0.00    +0.000 OA
ATOM      7  H   UNL     1       8.716   4.076  16.900  0.00  0.00    +0.000 HD
ENDBRANCH   4   6
BRANCH   5   8
ATOM      8  O   UNL     1       8.164   6.020  19.632  0.00  0.00    +0.000 OA
ATOM      9  H   UNL     1       7.688   5.577  20.363  0.00  0.00    +0.000 HD
ENDBRANCH   5   8
BRANCH   1  10
ATOM     10  C   UNL     1       7.395   8.399  17.638  0.00  0.00    +0.000 C 
BRANCH  10  12
ATOM     11  O   UNL     1       9.096   8.823  19.221  0.00  0.00    +0.000 OA
ATOM     12  C   UNL     1       8.453   9.274  18.275  0.00  0.00    +0.000 C 
ATOM     13  N   UNL     1       8.526  10.568  17.794  0.00  0.00    +0.000 N 
ATOM     14  H   UNL     1       7.809  10.857  17.135  0.00  0.00    +0.000 HD
BRANCH  13  15
ATOM     15  C   UNL     1       9.480  11.539  18.176  0.00  0.00    +0.000 A 
ATOM     16  C   UNL     1      10.803  11.502  17.731  0.00  0.00    +0.000 A 
ATOM     17  C   UNL     1      11.711  12.493  18.100  0.00  0.00    +0.000 A 
ATOM     18  C   UNL     1      11.302  13.543  18.924  0.00  0.00    +0.000 A 
ATOM     19  C   UNL     1       9.989  13.588  19.377  0.00  0.00    +0.000 A 
ATOM     20  C   UNL     1       9.076  12.594  19.004  0.00  0.00    +0.000 A 
ENDBRANCH  13  15
ENDBRANCH  10  12
ENDBRANCH   1  10
BRANCH   3  21
ATOM     21  C   UNL     1       5.131   5.174  16.262  0.00  0.00    +0.000 C 
BRANCH  21  22
ATOM     22  N   UNL     1       4.491   6.288  16.984  0.00  0.00    +0.000 NA
ATOM     23  H   UNL     1       4.164   6.976  16.304  0.00  0.00    +0.000 HD
BRANCH  22  24
ATOM     24  C   UNL     1       3.347   5.854  17.787  0.00  0.00    +0.000 C 
BRANCH  24  25
ATOM     25  C   UNL     1       2.652   7.022  18.443  0.00  0.00    +0.000 A 
ATOM     26  C   UNL     1       2.321   8.166  17.696  0.00  0.00    +0.000 A 
ATOM     27  C   UNL     1       1.650   9.230  18.298  0.00  0.00    +0.000 A 
ATOM     28  C   UNL     1       1.309   9.150  19.642  0.00  0.00    +0.000 A 
ATOM     29  F   UNL     1       0.655  10.169  20.216  0.00  0.00    +0.000 F 
ATOM     30  C   UNL     1       1.629   8.029  20.399  0.00  0.00    +0.000 A 
ATOM     31  C   UNL     1       2.302   6.965  19.800  0.00  0.00    +0.000 A 
ENDBRANCH  24  25
ENDBRANCH  22  24
ENDBRANCH  21  22
ENDBRANCH   3  21
TORSDOF 9
ENDMDL
MODEL 9
REMARK VINA RESULT:      -7.8      2.983      3.803
REMARK  Name = 
REMARK  9 active torsions:
REMARK  status: ('A' for Active; 'I' for Inactive)
REMARK    1  A    between atoms: C_2  and  C_3
REMARK    2  A    between atoms: C_3  and  C_4
REMARK    3  A    between atoms: C_6  and  C_7
REMARK    4  A    between atoms: C_7  and  N_8
REMARK    5  A    between atoms: N_8  and  C_9
REMARK    6  A    between atoms: C_9  and  C_10
REMARK    7  A    between atoms: C_17  and  O_18
REMARK    8  A    between atoms: C_19  and  O_20
REMARK    9  A    between atoms: N_21  and  C_22
REMARK                            x       y       z     vdW  Elec       q    Type
REMARK                         _______ _______ _______ _____ _____    ______ ____
ROOT
ATOM      1  C   UNL     1       6.741   6.274  17.195  0.00  0.00    +0.000 C 
ATOM      2  O   UNL     1       5.375   6.490  17.606  0.00  0.00    +0.000 OA
ATOM      3  C   UNL     1       4.620   5.273  17.370  0.00  0.00    +0.000 C 
ATOM      4  C   UNL     1       5.536   4.323  16.605  0.00  0.00    +0.000 C 
ATOM      5  C   UNL     1       6.915   4.764  17.051  0.00  0.00    +0.000 C 
ENDROOT
BRANCH   4   6
ATOM      6  O   UNL     1       5.427   4.541  15.185  0.00  0.00    +0.000 OA
ATOM      7  H   UNL     1       5.047   3.743  14.774  0.00  0.00    +0.000 HD
ENDBRANCH   4   6
BRANCH   5   8
ATOM      8  O   UNL     1       7.922   4.432  16.108  0.00  0.00    +0.000 OA
ATOM      9  H   UNL     1       8.707   4.967  16.344  0.00  0.00    +0.000 HD
ENDBRANCH   5   8
BRANCH   1  10
ATOM     10  C   UNL     1       7.718   6.827  18.218  0.00  0.00    +0.000 C 
BRANCH  10  12
ATOM     11  O   UNL     1       7.560   8.933  17.160  0.00  0.00    +0.000 OA
ATOM     12  C   UNL     1       8.032   8.303  18.106  0.00  0.00    +0.000 C 
ATOM     13  N   UNL     1       8.928   8.795  19.035  0.00  0.00    +0.000 N 
ATOM     14  H   UNL     1       9.377   8.119  19.646  0.00  0.00    +0.000 HD
BRANCH  13  15
ATOM     15  C   UNL     1       9.312  10.148  19.178  0.00  0.00    +0.000 A 
ATOM     16  C   UNL     1       9.637  10.953  18.085  0.00  0.00    +0.000 A 
ATOM     17  C   UNL     1       9.980  12.292  18.257  0.00  0.00    +0.000 A 
ATOM     18  C   UNL     1      10.000  12.848  19.537  0.00  0.00    +0.000 A 
ATOM     19  C   UNL     1       9.682  12.057  20.635  0.00  0.00    +0.000 A 
ATOM     20  C   UNL     1       9.335  10.711  20.461  0.00  0.00    +0.000 A 
ENDBRANCH  13  15
ENDBRANCH  10  12
ENDBRANCH   1  10
BRANCH   3  21
ATOM     21  C   UNL     1       4.141   4.737  18.733  0.00  0.00    +0.000 C 
BRANCH  21  22
ATOM     22  N   UNL     1       3.899   5.797  19.728  0.00  0.00    +0.000 NA
ATOM     23  H   UNL     1       4.290   6.673  19.376  0.00  0.00    +0.000 HD
BRANCH  22  24
ATOM     24  C   UNL     1       2.475   6.002  19.996  0.00  0.00    +0.000 C 
BRANCH  24  25
ATOM     25  C   UNL     1       2.033   7.396  19.623  0.00  0.00    +0.000 A 
ATOM     26  C   UNL     1       2.239   7.884  18.322  0.00  0.00    +0.000 A 
ATOM     27  C   UNL     1       1.800   9.161  17.971  0.00  0.00    +0.000 A 
ATOM     28  C   UNL     1       1.154   9.945  18.918  0.00  0.00    +0.000 A 
ATOM     29  F   UNL     1       0.724  11.167  18.577  0.00  0.00    +0.000 F 
ATOM     30  C   UNL     1       0.942   9.482  20.211  0.00  0.00    +0.000 A 
ATOM     31  C   UNL     1       1.382   8.207  20.565  0.00  0.00    +0.000 A 
ENDBRANCH  24  25
ENDBRANCH  22  24
ENDBRANCH  21  22
ENDBRANCH   3  21
TORSDOF 9
ENDMDL
