MODEL 1
REMARK VINA RESULT:      -7.2      0.000      0.000
REMARK  Name = 
REMARK  4 active torsions:
REMARK  status: ('A' for Active; 'I' for Inactive)
REMARK    1  A    between atoms: N_2  and  C_4
REMARK    2  A    between atoms: C_6  and  N_7
REMARK    3  A    between atoms: C_10  and  C_11
REMARK    4  A    between atoms: C_15  and  N_16
REMARK                            x       y       z     vdW  Elec       q    Type
REMARK                         _______ _______ _______ _____ _____    ______ ____
ROOT
ATOM      1  C   UNL     1       6.269   6.085  17.470  0.00  0.00    +0.000 A 
ATOM      2  C   UNL     1       4.977   6.606  17.447  0.00  0.00    +0.000 A 
ATOM      3  C   UNL     1       3.990   5.971  18.224  0.00  0.00    +0.000 A 
ATOM      4  C   UNL     1       4.252   4.819  19.006  0.00  0.00    +0.000 A 
ATOM      5  C   UNL     1       5.576   4.328  18.967  0.00  0.00    +0.000 A 
ATOM      6  C   UNL     1       6.575   4.966  18.228  0.00  0.00    +0.000 A 
ATOM      7  F   UNL     1       7.821   4.480  18.281  0.00  0.00    +0.000 F 
ENDROOT
BRANCH   4   8
ATOM      8  C   UNL     1       3.225   4.091  19.787  0.00  0.00    +0.000 A 
ATOM      9  C   UNL     1       2.666   4.495  21.059  0.00  0.00    +0.000 A 
ATOM     10  C   UNL     1       1.717   3.621  21.549  0.00  0.00    +0.000 A 
ATOM     11  S   UNL     1       1.440   2.322  20.483  0.00  0.00    +0.000 S 
ATOM     12  C   UNL     1       2.599   2.916  19.391  0.00  0.00    +0.000 A 
BRANCH  12  13
ATOM     13  N   UNL     1       2.808   2.131  18.212  0.00  0.00    +0.000 N 
ATOM     14  O   UNL     1       3.639   1.219  18.296  0.00  0.00    +0.000 OA
ATOM     15  O   UNL     1       2.197   2.475  17.193  0.00  0.00    +0.000 OA
ENDBRANCH  12  13
ENDBRANCH   4   8
BRANCH   1  17
ATOM     16  O   UNL     1       7.689   6.077  15.682  0.00  0.00    +0.000 OA
ATOM     17  N   UNL     1       7.305   6.702  16.677  0.00  0.00    +0.000 N 
ATOM     18  O   UNL     1       7.766   7.775  17.083  0.00  0.00    +0.000 OA
ENDBRANCH   1  17
BRANCH   3  19
ATOM     19  N   UNL     1       2.671   6.573  18.172  0.00  0.00    +0.000 N 
ATOM     20  O   UNL     1       1.774   5.895  17.656  0.00  0.00    +0.000 OA
ATOM     21  O   UNL     1       2.552   7.717  18.624  0.00  0.00    +0.000 OA
ENDBRANCH   3  19
TORSDOF 4
ENDMDL
MODEL 2
REMARK VINA RESULT:      -7.1      0.762      1.006
REMARK  Name = 
REMARK  4 active torsions:
REMARK  status: ('A' for Active; 'I' for Inactive)
REMARK    1  A    between atoms: N_2  and  C_4
REMARK    2  A    between atoms: C_6  and  N_7
REMARK    3  A    between atoms: C_10  and  C_11
REMARK    4  A    between atoms: C_15  and  N_16
REMARK                            x       y       z     vdW  Elec       q    Type
REMARK                         _______ _______ _______ _____ _____    ______ ____
ROOT
ATOM      1  C   UNL     1       6.187   6.111  17.532  0.00  0.00    +0.000 A 
ATOM      2  C   UNL     1       4.984   6.790  17.710  0.00  0.00    +0.000 A 
ATOM      3  C   UNL     1       3.972   6.164  18.462  0.00  0.00    +0.000 A 
ATOM      4  C   UNL     1       4.121   4.872  19.024  0.00  0.00    +0.000 A 
ATOM      5  C   UNL     1       5.356   4.229  18.787  0.00  0.00    +0.000 A 
ATOM      6  C   UNL     1       6.383   4.851  18.072  0.00  0.00    +0.000 A 
ATOM      7  F   UNL     1       7.549   4.206  17.934  0.00  0.00    +0.000 F 
ENDROOT
BRANCH   4   8
ATOM      8  C   UNL     1       3.057   4.160  19.769  0.00  0.00    +0.000 A 
ATOM      9  C   UNL     1       2.898   4.112  21.206  0.00  0.00    +0.000 A 
ATOM     10  C   UNL     1       1.806   3.377  21.619  0.00  0.00    +0.000 A 
ATOM     11  S   UNL     1       0.922   2.761  20.300  0.00  0.00    +0.000 S 
ATOM     12  C   UNL     1       2.008   3.455  19.192  0.00  0.00    +0.000 A 
BRANCH  12  13
ATOM     13  N   UNL     1       1.729   3.215  17.809  0.00  0.00    +0.000 N 
ATOM     14  O   UNL     1       2.256   2.217  17.304  0.00  0.00    +0.000 OA
ATOM     15  O   UNL     1       1.048   4.063  17.219  0.00  0.00    +0.000 OA
ENDBRANCH  12  13
ENDBRANCH   4   8
BRANCH   1  17
ATOM     16  O   UNL     1       7.604   6.110  15.742  0.00  0.00    +0.000 OA
ATOM     17  N   UNL     1       7.243   6.717  16.757  0.00  0.00    +0.000 N 
ATOM     18  O   UNL     1       7.743   7.759  17.196  0.00  0.00    +0.000 OA
ENDBRANCH   1  17
BRANCH   3  19
ATOM     19  N   UNL     1       2.751   6.930  18.626  0.00  0.00    +0.000 N 
ATOM     20  O   UNL     1       2.470   7.284  19.777  0.00  0.00    +0.000 OA
ATOM     21  O   UNL     1       2.079   7.149  17.611  0.00  0.00    +0.000 OA
ENDBRANCH   3  19
TORSDOF 4
ENDMDL
MODEL 3
REMARK VINA RESULT:      -6.9      2.810      4.295
REMARK  Name = 
REMARK  4 active torsions:
REMARK  status: ('A' for Active; 'I' for Inactive)
REMARK    1  A    between atoms: N_2  and  C_4
REMARK    2  A    between atoms: C_6  and  N_7
REMARK    3  A    between atoms: C_10  and  C_11
REMARK    4  A    between atoms: C_15  and  N_16
REMARK                            x       y       z     vdW  Elec       q    Type
REMARK                         _______ _______ _______ _____ _____    ______ ____
ROOT
ATOM      1  C   UNL     1       6.784   4.743  14.234  0.00  0.00    +0.000 A 
ATOM      2  C   UNL     1       7.432   5.081  15.419  0.00  0.00    +0.000 A 
ATOM      3  C   UNL     1       6.724   4.940  16.628  0.00  0.00    +0.000 A 
ATOM      4  C   UNL     1       5.382   4.489  16.683  0.00  0.00    +0.000 A 
ATOM      5  C   UNL     1       4.776   4.184  15.444  0.00  0.00    +0.000 A 
ATOM      6  C   UNL     1       5.475   4.287  14.239  0.00  0.00    +0.000 A 
ATOM      7  F   UNL     1       4.857   3.927  13.107  0.00  0.00    +0.000 F 
ENDROOT
BRANCH   4   8
ATOM      8  C   UNL     1       4.589   4.386  17.930  0.00  0.00    +0.000 A 
ATOM      9  C   UNL     1       4.576   3.269  18.851  0.00  0.00    +0.000 A 
ATOM     10  C   UNL     1       3.745   3.456  19.936  0.00  0.00    +0.000 A 
ATOM     11  S   UNL     1       2.994   4.984  19.904  0.00  0.00    +0.000 S 
ATOM     12  C   UNL     1       3.759   5.376  18.438  0.00  0.00    +0.000 A 
BRANCH  12  13
ATOM     13  N   UNL     1       3.443   6.662  17.892  0.00  0.00    +0.000 N 
ATOM     14  O   UNL     1       4.390   7.322  17.450  0.00  0.00    +0.000 OA
ATOM     15  O   UNL     1       2.266   7.033  17.977  0.00  0.00    +0.000 OA
ENDBRANCH  12  13
ENDBRANCH   4   8
BRANCH   1  17
ATOM     16  O   UNL     1       8.248   5.844  12.871  0.00  0.00    +0.000 OA
ATOM     17  N   UNL     1       7.473   4.885  12.974  0.00  0.00    +0.000 N 
ATOM     18  O   UNL     1       7.196   4.078  12.080  0.00  0.00    +0.000 OA
ENDBRANCH   1  17
BRANCH   3  19
ATOM     19  N   UNL     1       7.460   5.292  17.827  0.00  0.00    +0.000 N 
ATOM     20  O   UNL     1       8.012   4.364  18.430  0.00  0.00    +0.000 OA
ATOM     21  O   UNL     1       7.461   6.482  18.163  0.00  0.00    +0.000 OA
ENDBRANCH   3  19
TORSDOF 4
ENDMDL
MODEL 4
REMARK VINA RESULT:      -6.9      2.622      3.508
REMARK  Name = 
REMARK  4 active torsions:
REMARK  status: ('A' for Active; 'I' for Inactive)
REMARK    1  A    between atoms: N_2  and  C_4
REMARK    2  A    between atoms: C_6  and  N_7
REMARK    3  A    between atoms: C_10  and  C_11
REMARK    4  A    between atoms: C_15  and  N_16
REMARK                            x       y       z     vdW  Elec       q    Type
REMARK                         _______ _______ _______ _____ _____    ______ ____
ROOT
ATOM      1  C   UNL     1       6.608   4.877  14.833  0.00  0.00    +0.000 A 
ATOM      2  C   UNL     1       7.169   5.282  16.042  0.00  0.00    +0.000 A 
ATOM      3  C   UNL     1       6.343   5.308  17.182  0.00  0.00    +0.000 A 
ATOM      4  C   UNL     1       4.971   4.960  17.144  0.00  0.00    +0.000 A 
ATOM      5  C   UNL     1       4.459   4.580  15.883  0.00  0.00    +0.000 A 
ATOM      6  C   UNL     1       5.272   4.517  14.749  0.00  0.00    +0.000 A 
ATOM      7  F   UNL     1       4.734   4.094  13.598  0.00  0.00    +0.000 F 
ENDROOT
BRANCH   4   8
ATOM      8  C   UNL     1       4.061   5.033  18.311  0.00  0.00    +0.000 A 
ATOM      9  C   UNL     1       3.350   6.206  18.774  0.00  0.00    +0.000 A 
ATOM     10  C   UNL     1       2.565   5.974  19.885  0.00  0.00    +0.000 A 
ATOM     11  S   UNL     1       2.625   4.344  20.375  0.00  0.00    +0.000 S 
ATOM     12  C   UNL     1       3.711   3.963  19.124  0.00  0.00    +0.000 A 
BRANCH  12  13
ATOM     13  N   UNL     1       4.150   2.602  19.070  0.00  0.00    +0.000 N 
ATOM     14  O   UNL     1       4.992   2.260  19.908  0.00  0.00    +0.000 OA
ATOM     15  O   UNL     1       3.708   1.906  18.148  0.00  0.00    +0.000 OA
ENDBRANCH  12  13
ENDBRANCH   4   8
BRANCH   1  17
ATOM     16  O   UNL     1       8.323   5.689  13.564  0.00  0.00    +0.000 OA
ATOM     17  N   UNL     1       7.419   4.849  13.640  0.00  0.00    +0.000 N 
ATOM     18  O   UNL     1       7.115   4.029  12.766  0.00  0.00    +0.000 OA
ENDBRANCH   1  17
BRANCH   3  19
ATOM     19  N   UNL     1       6.992   5.721  18.412  0.00  0.00    +0.000 N 
ATOM     20  O   UNL     1       7.476   6.859  18.426  0.00  0.00    +0.000 OA
ATOM     21  O   UNL     1       7.028   4.901  19.337  0.00  0.00    +0.000 OA
ENDBRANCH   3  19
TORSDOF 4
ENDMDL
MODEL 5
REMARK VINA RESULT:      -6.8      2.793      4.284
REMARK  Name = 
REMARK  4 active torsions:
REMARK  status: ('A' for Active; 'I' for Inactive)
REMARK    1  A    between atoms: N_2  and  C_4
REMARK    2  A    between atoms: C_6  and  N_7
REMARK    3  A    between atoms: C_10  and  C_11
REMARK    4  A    between atoms: C_15  and  N_16
REMARK                            x       y       z     vdW  Elec       q    Type
REMARK                         _______ _______ _______ _____ _____    ______ ____
ROOT
ATOM      1  C   UNL     1       6.803   4.770  14.264  0.00  0.00    +0.000 A 
ATOM      2  C   UNL     1       7.446   5.106  15.452  0.00  0.00    +0.000 A 
ATOM      3  C   UNL     1       6.739   4.947  16.660  0.00  0.00    +0.000 A 
ATOM      4  C   UNL     1       5.402   4.480  16.709  0.00  0.00    +0.000 A 
ATOM      5  C   UNL     1       4.801   4.177  15.468  0.00  0.00    +0.000 A 
ATOM      6  C   UNL     1       5.500   4.298  14.264  0.00  0.00    +0.000 A 
ATOM      7  F   UNL     1       4.887   3.940  13.129  0.00  0.00    +0.000 F 
ENDROOT
BRANCH   4   8
ATOM      8  C   UNL     1       4.609   4.357  17.955  0.00  0.00    +0.000 A 
ATOM      9  C   UNL     1       4.599   3.227  18.860  0.00  0.00    +0.000 A 
ATOM     10  C   UNL     1       3.768   3.397  19.948  0.00  0.00    +0.000 A 
ATOM     11  S   UNL     1       3.013   4.924  19.937  0.00  0.00    +0.000 S 
ATOM     12  C   UNL     1       3.776   5.338  18.476  0.00  0.00    +0.000 A 
BRANCH  12  13
ATOM     13  N   UNL     1       3.457   6.630  17.949  0.00  0.00    +0.000 N 
ATOM     14  O   UNL     1       2.271   6.974  18.009  0.00  0.00    +0.000 OA
ATOM     15  O   UNL     1       4.377   7.260  17.412  0.00  0.00    +0.000 OA
ENDBRANCH  12  13
ENDBRANCH   4   8
BRANCH   1  17
ATOM     16  O   UNL     1       7.246   4.094  12.128  0.00  0.00    +0.000 OA
ATOM     17  N   UNL     1       7.492   4.930  13.006  0.00  0.00    +0.000 N 
ATOM     18  O   UNL     1       8.312   5.851  12.922  0.00  0.00    +0.000 OA
ENDBRANCH   1  17
BRANCH   3  19
ATOM     19  N   UNL     1       7.469   5.298  17.862  0.00  0.00    +0.000 N 
ATOM     20  O   UNL     1       7.489   6.497  18.167  0.00  0.00    +0.000 OA
ATOM     21  O   UNL     1       8.029   4.381  18.474  0.00  0.00    +0.000 OA
ENDBRANCH   3  19
TORSDOF 4
ENDMDL
MODEL 6
REMARK VINA RESULT:      -6.8      0.898      1.188
REMARK  Name = 
REMARK  4 active torsions:
REMARK  status: ('A' for Active; 'I' for Inactive)
REMARK    1  A    between atoms: N_2  and  C_4
REMARK    2  A    between atoms: C_6  and  N_7
REMARK    3  A    between atoms: C_10  and  C_11
REMARK    4  A    between atoms: C_15  and  N_16
REMARK                            x       y       z     vdW  Elec       q    Type
REMARK                         _______ _______ _______ _____ _____    ______ ____
ROOT
ATOM      1  C   UNL     1       6.275   6.336  17.699  0.00  0.00    +0.000 A 
ATOM      2  C   UNL     1       4.925   6.543  17.423  0.00  0.00    +0.000 A 
ATOM      3  C   UNL     1       3.974   5.884  18.226  0.00  0.00    +0.000 A 
ATOM      4  C   UNL     1       4.334   5.010  19.281  0.00  0.00    +0.000 A 
ATOM      5  C   UNL     1       5.718   4.827  19.494  0.00  0.00    +0.000 A 
ATOM      6  C   UNL     1       6.674   5.500  18.729  0.00  0.00    +0.000 A 
ATOM      7  F   UNL     1       7.969   5.323  19.022  0.00  0.00    +0.000 F 
ENDROOT
BRANCH   4   8
ATOM      8  C   UNL     1       3.361   4.256  20.105  0.00  0.00    +0.000 A 
ATOM      9  C   UNL     1       2.296   4.817  20.908  0.00  0.00    +0.000 A 
ATOM     10  C   UNL     1       1.539   3.869  21.564  0.00  0.00    +0.000 A 
ATOM     11  S   UNL     1       2.055   2.286  21.206  0.00  0.00    +0.000 S 
ATOM     12  C   UNL     1       3.294   2.872  20.201  0.00  0.00    +0.000 A 
BRANCH  12  13
ATOM     13  N   UNL     1       4.129   1.880  19.595  0.00  0.00    +0.000 N 
ATOM     14  O   UNL     1       3.744   1.421  18.513  0.00  0.00    +0.000 OA
ATOM     15  O   UNL     1       5.121   1.513  20.236  0.00  0.00    +0.000 OA
ENDBRANCH  12  13
ENDBRANCH   4   8
BRANCH   1  17
ATOM     16  O   UNL     1       7.766   6.319  15.970  0.00  0.00    +0.000 OA
ATOM     17  N   UNL     1       7.278   6.986  16.891  0.00  0.00    +0.000 N 
ATOM     18  O   UNL     1       7.614   8.131  17.214  0.00  0.00    +0.000 OA
ENDBRANCH   1  17
BRANCH   3  19
ATOM     19  N   UNL     1       2.587   6.154  17.898  0.00  0.00    +0.000 N 
ATOM     20  O   UNL     1       1.906   5.187  17.536  0.00  0.00    +0.000 OA
ATOM     21  O   UNL     1       2.201   7.326  17.987  0.00  0.00    +0.000 OA
ENDBRANCH   3  19
TORSDOF 4
ENDMDL
MODEL 7
REMARK VINA RESULT:      -6.7      2.650      3.391
REMARK  Name = 
REMARK  4 active torsions:
REMARK  status: ('A' for Active; 'I' for Inactive)
REMARK    1  A    between atoms: N_2  and  C_4
REMARK    2  A    between atoms: C_6  and  N_7
REMARK    3  A    between atoms: C_10  and  C_11
REMARK    4  A    between atoms: C_15  and  N_16
REMARK                            x       y       z     vdW  Elec       q    Type
REMARK                         _______ _______ _______ _____ _____    ______ ____
ROOT
ATOM      1  C   UNL     1       6.496   4.725  15.192  0.00  0.00    +0.000 A 
ATOM      2  C   UNL     1       7.053   4.953  16.449  0.00  0.00    +0.000 A 
ATOM      3  C   UNL     1       6.211   4.872  17.574  0.00  0.00    +0.000 A 
ATOM      4  C   UNL     1       4.826   4.590  17.477  0.00  0.00    +0.000 A 
ATOM      5  C   UNL     1       4.320   4.391  16.173  0.00  0.00    +0.000 A 
ATOM      6  C   UNL     1       5.149   4.434  15.049  0.00  0.00    +0.000 A 
ATOM      7  F   UNL     1       4.614   4.180  13.849  0.00  0.00    +0.000 F 
ENDROOT
BRANCH   4   8
ATOM      8  C   UNL     1       3.900   4.557  18.633  0.00  0.00    +0.000 A 
ATOM      9  C   UNL     1       3.069   5.645  19.101  0.00  0.00    +0.000 A 
ATOM     10  C   UNL     1       2.299   5.322  20.199  0.00  0.00    +0.000 A 
ATOM     11  S   UNL     1       2.518   3.700  20.672  0.00  0.00    +0.000 S 
ATOM     12  C   UNL     1       3.651   3.447  19.430  0.00  0.00    +0.000 A 
BRANCH  12  13
ATOM     13  N   UNL     1       4.226   2.138  19.366  0.00  0.00    +0.000 N 
ATOM     14  O   UNL     1       3.762   1.372  18.514  0.00  0.00    +0.000 OA
ATOM     15  O   UNL     1       5.084   1.860  20.213  0.00  0.00    +0.000 OA
ENDBRANCH  12  13
ENDBRANCH   4   8
BRANCH   1  17
ATOM     16  O   UNL     1       8.204   5.681  14.017  0.00  0.00    +0.000 OA
ATOM     17  N   UNL     1       7.326   4.810  14.015  0.00  0.00    +0.000 N 
ATOM     18  O   UNL     1       7.061   4.049  13.077  0.00  0.00    +0.000 OA
ENDBRANCH   1  17
BRANCH   3  19
ATOM     19  N   UNL     1       6.854   5.103  18.853  0.00  0.00    +0.000 N 
ATOM     20  O   UNL     1       6.180   5.679  19.715  0.00  0.00    +0.000 OA
ATOM     21  O   UNL     1       8.026   4.726  18.974  0.00  0.00    +0.000 OA
ENDBRANCH   3  19
TORSDOF 4
ENDMDL
MODEL 8
REMARK VINA RESULT:      -6.6      3.156      5.842
REMARK  Name = 
REMARK  4 active torsions:
REMARK  status: ('A' for Active; 'I' for Inactive)
REMARK    1  A    between atoms: N_2  and  C_4
REMARK    2  A    between atoms: C_6  and  N_7
REMARK    3  A    between atoms: C_10  and  C_11
REMARK    4  A    between atoms: C_15  and  N_16
REMARK                            x       y       z     vdW  Elec       q    Type
REMARK                         _______ _______ _______ _____ _____    ______ ____
ROOT
ATOM      1  C   UNL     1       2.504   6.798  19.566  0.00  0.00    +0.000 A 
ATOM      2  C   UNL     1       3.076   5.540  19.745  0.00  0.00    +0.000 A 
ATOM      3  C   UNL     1       3.966   5.069  18.761  0.00  0.00    +0.000 A 
ATOM      4  C   UNL     1       4.285   5.810  17.596  0.00  0.00    +0.000 A 
ATOM      5  C   UNL     1       3.654   7.066  17.465  0.00  0.00    +0.000 A 
ATOM      6  C   UNL     1       2.794   7.563  18.448  0.00  0.00    +0.000 A 
ATOM      7  F   UNL     1       2.275   8.787  18.287  0.00  0.00    +0.000 F 
ENDROOT
BRANCH   4   8
ATOM      8  C   UNL     1       5.169   5.319  16.514  0.00  0.00    +0.000 A 
ATOM      9  C   UNL     1       4.782   4.479  15.401  0.00  0.00    +0.000 A 
ATOM     10  C   UNL     1       5.820   4.186  14.541  0.00  0.00    +0.000 A 
ATOM     11  S   UNL     1       7.271   4.941  15.017  0.00  0.00    +0.000 S 
ATOM     12  C   UNL     1       6.516   5.630  16.375  0.00  0.00    +0.000 A 
BRANCH  12  13
ATOM     13  N   UNL     1       7.354   6.426  17.219  0.00  0.00    +0.000 N 
ATOM     14  O   UNL     1       7.754   5.893  18.260  0.00  0.00    +0.000 OA
ATOM     15  O   UNL     1       7.545   7.599  16.876  0.00  0.00    +0.000 OA
ENDBRANCH  12  13
ENDBRANCH   4   8
BRANCH   1  17
ATOM     16  O   UNL     1       1.733   8.486  20.896  0.00  0.00    +0.000 OA
ATOM     17  N   UNL     1       1.578   7.309  20.547  0.00  0.00    +0.000 N 
ATOM     18  O   UNL     1       0.742   6.522  21.004  0.00  0.00    +0.000 OA
ENDBRANCH   1  17
BRANCH   3  19
ATOM     19  N   UNL     1       4.541   3.761  19.014  0.00  0.00    +0.000 N 
ATOM     20  O   UNL     1       5.644   3.741  19.573  0.00  0.00    +0.000 OA
ATOM     21  O   UNL     1       3.897   2.776  18.635  0.00  0.00    +0.000 OA
ENDBRANCH   3  19
TORSDOF 4
ENDMDL
MODEL 9
REMARK VINA RESULT:      -6.6      2.691      3.791
REMARK  Name = 
REMARK  4 active torsions:
REMARK  status: ('A' for Active; 'I' for Inactive)
REMARK    1  A    between atoms: N_2  and  C_4
REMARK    2  A    between atoms: C_6  and  N_7
REMARK    3  A    between atoms: C_10  and  C_11
REMARK    4  A    between atoms: C_15  and  N_16
REMARK                            x       y       z     vdW  Elec       q    Type
REMARK                         _______ _______ _______ _____ _____    ______ ____
ROOT
ATOM      1  C   UNL     1       6.670   4.733  14.322  0.00  0.00    +0.000 A 
ATOM      2  C   UNL     1       7.313   5.074  15.509  0.00  0.00    +0.000 A 
ATOM      3  C   UNL     1       6.570   5.028  16.705  0.00  0.00    +0.000 A 
ATOM      4  C   UNL     1       5.200   4.670  16.743  0.00  0.00    +0.000 A 
ATOM      5  C   UNL     1       4.602   4.357  15.502  0.00  0.00    +0.000 A 
ATOM      6  C   UNL     1       5.334   4.366  14.311  0.00  0.00    +0.000 A 
ATOM      7  F   UNL     1       4.719   4.003  13.179  0.00  0.00    +0.000 F 
ENDROOT
BRANCH   4   8
ATOM      8  C   UNL     1       4.374   4.669  17.973  0.00  0.00    +0.000 A 
ATOM      9  C   UNL     1       4.266   5.743  18.937  0.00  0.00    +0.000 A 
ATOM     10  C   UNL     1       3.412   5.463  19.984  0.00  0.00    +0.000 A 
ATOM     11  S   UNL     1       2.687   3.931  19.819  0.00  0.00    +0.000 S 
ATOM     12  C   UNL     1       3.530   3.641  18.372  0.00  0.00    +0.000 A 
BRANCH  12  13
ATOM     13  N   UNL     1       3.290   2.373  17.752  0.00  0.00    +0.000 N 
ATOM     14  O   UNL     1       2.248   2.268  17.096  0.00  0.00    +0.000 OA
ATOM     15  O   UNL     1       4.104   1.471  17.986  0.00  0.00    +0.000 OA
ENDBRANCH  12  13
ENDBRANCH   4   8
BRANCH   1  17
ATOM     16  O   UNL     1       8.209   5.702  12.941  0.00  0.00    +0.000 OA
ATOM     17  N   UNL     1       7.396   4.779  13.076  0.00  0.00    +0.000 N 
ATOM     18  O   UNL     1       7.110   3.934  12.220  0.00  0.00    +0.000 OA
ENDBRANCH   1  17
BRANCH   3  19
ATOM     19  N   UNL     1       7.301   5.378  17.908  0.00  0.00    +0.000 N 
ATOM     20  O   UNL     1       7.463   6.584  18.125  0.00  0.00    +0.000 OA
ATOM     21  O   UNL     1       7.720   4.448  18.606  0.00  0.00    +0.000 OA
ENDBRANCH   3  19
TORSDOF 4
ENDMDL
