MODEL 1
REMARK VINA RESULT:      -5.5      0.000      0.000
REMARK  Name = 
REMARK  3 active torsions:
REMARK  status: ('A' for Active; 'I' for Inactive)
REMARK    1  A    between atoms: O_1  and  C_2
REMARK    2  A    between atoms: C_2  and  C_3
REMARK    3  A    between atoms: C_5  and  C_6
REMARK                            x       y       z     vdW  Elec       q    Type
REMARK                         _______ _______ _______ _____ _____    ______ ____
ROOT
ATOM      1  C   UNL     1       2.028   7.839  18.122  0.00  0.00    +0.000 C 
ATOM      2  C   UNL     1       3.359   7.246  17.758  0.00  0.00    +0.000 C 
ATOM      3  C   UNL     1       2.680   6.822  19.039  0.00  0.00    +0.000 C 
ENDROOT
BRANCH   3   4
ATOM      4  C   UNL     1       2.096   5.432  19.159  0.00  0.00    +0.000 A 
ATOM      5  C   UNL     1       2.041   4.563  18.057  0.00  0.00    +0.000 A 
ATOM      6  C   UNL     1       1.504   3.277  18.167  0.00  0.00    +0.000 A 
ATOM      7  C   UNL     1       1.012   2.831  19.388  0.00  0.00    +0.000 A 
ATOM      8  C   UNL     1       1.066   3.664  20.500  0.00  0.00    +0.000 A 
ATOM      9  C   UNL     1       1.605   4.952  20.385  0.00  0.00    +0.000 A 
ENDBRANCH   3   4
BRANCH   1  10
ATOM     10  C   UNL     1       1.930   9.277  18.499  0.00  0.00    +0.000 C 
BRANCH  10  11
ATOM     11  O   UNL     1       1.980  10.053  17.311  0.00  0.00    +0.000 OA
ATOM     12  H   UNL     1       2.914  10.126  17.057  0.00  0.00    +0.000 HD
ENDBRANCH  10  11
ENDBRANCH   1  10
TORSDOF 3
ENDMDL
MODEL 2
REMARK VINA RESULT:      -5.5      3.102      5.146
REMARK  Name = 
REMARK  3 active torsions:
REMARK  status: ('A' for Active; 'I' for Inactive)
REMARK    1  A    between atoms: O_1  and  C_2
REMARK    2  A    between atoms: C_2  and  C_3
REMARK    3  A    between atoms: C_5  and  C_6
REMARK                            x       y       z     vdW  Elec       q    Type
REMARK                         _______ _______ _______ _____ _____    ______ ____
ROOT
ATOM      1  C   UNL     1       2.081   2.945  19.870  0.00  0.00    +0.000 C 
ATOM      2  C   UNL     1       1.587   2.327  18.593  0.00  0.00    +0.000 C 
ATOM      3  C   UNL     1       1.759   3.826  18.679  0.00  0.00    +0.000 C 
ENDROOT
BRANCH   3   4
ATOM      4  C   UNL     1       2.877   4.502  17.917  0.00  0.00    +0.000 A 
ATOM      5  C   UNL     1       3.119   5.880  18.040  0.00  0.00    +0.000 A 
ATOM      6  C   UNL     1       4.154   6.505  17.338  0.00  0.00    +0.000 A 
ATOM      7  C   UNL     1       4.974   5.761  16.498  0.00  0.00    +0.000 A 
ATOM      8  C   UNL     1       4.767   4.392  16.368  0.00  0.00    +0.000 A 
ATOM      9  C   UNL     1       3.729   3.770  17.073  0.00  0.00    +0.000 A 
ENDBRANCH   3   4
BRANCH   1  10
ATOM     10  C   UNL     1       1.220   2.935  21.086  0.00  0.00    +0.000 C 
BRANCH  10  11
ATOM     11  O   UNL     1       2.062   2.993  22.229  0.00  0.00    +0.000 OA
ATOM     12  H   UNL     1       1.559   3.438  22.930  0.00  0.00    +0.000 HD
ENDBRANCH  10  11
ENDBRANCH   1  10
TORSDOF 3
ENDMDL
MODEL 3
REMARK VINA RESULT:      -5.4      3.248      4.055
REMARK  Name = 
REMARK  3 active torsions:
REMARK  status: ('A' for Active; 'I' for Inactive)
REMARK    1  A    between atoms: O_1  and  C_2
REMARK    2  A    between atoms: C_2  and  C_3
REMARK    3  A    between atoms: C_5  and  C_6
REMARK                            x       y       z     vdW  Elec       q    Type
REMARK                         _______ _______ _______ _____ _____    ______ ____
ROOT
ATOM      1  C   UNL     1       5.793   4.890  17.285  0.00  0.00    +0.000 C 
ATOM      2  C   UNL     1       4.816   5.674  16.455  0.00  0.00    +0.000 C 
ATOM      3  C   UNL     1       4.659   4.176  16.575  0.00  0.00    +0.000 C 
ENDROOT
BRANCH   3   4
ATOM      4  C   UNL     1       3.513   3.600  17.376  0.00  0.00    +0.000 A 
ATOM      5  C   UNL     1       3.568   2.299  17.903  0.00  0.00    +0.000 A 
ATOM      6  C   UNL     1       2.510   1.766  18.646  0.00  0.00    +0.000 A 
ATOM      7  C   UNL     1       1.372   2.529  18.881  0.00  0.00    +0.000 A 
ATOM      8  C   UNL     1       1.295   3.825  18.384  0.00  0.00    +0.000 A 
ATOM      9  C   UNL     1       2.357   4.354  17.640  0.00  0.00    +0.000 A 
ENDBRANCH   3   4
BRANCH   1  10
ATOM     10  C   UNL     1       7.206   4.745  16.835  0.00  0.00    +0.000 C 
BRANCH  10  11
ATOM     11  O   UNL     1       7.553   5.896  16.078  0.00  0.00    +0.000 OA
ATOM     12  H   UNL     1       7.773   5.592  15.182  0.00  0.00    +0.000 HD
ENDBRANCH  10  11
ENDBRANCH   1  10
TORSDOF 3
ENDMDL
MODEL 4
REMARK VINA RESULT:      -5.4      0.207      1.463
REMARK  Name = 
REMARK  3 active torsions:
REMARK  status: ('A' for Active; 'I' for Inactive)
REMARK    1  A    between atoms: O_1  and  C_2
REMARK    2  A    between atoms: C_2  and  C_3
REMARK    3  A    between atoms: C_5  and  C_6
REMARK                            x       y       z     vdW  Elec       q    Type
REMARK                         _______ _______ _______ _____ _____    ______ ____
ROOT
ATOM      1  C   UNL     1       1.906   8.016  18.103  0.00  0.00    +0.000 C 
ATOM      2  C   UNL     1       3.269   7.483  17.763  0.00  0.00    +0.000 C 
ATOM      3  C   UNL     1       2.593   7.041  19.041  0.00  0.00    +0.000 C 
ENDROOT
BRANCH   3   4
ATOM      4  C   UNL     1       2.074   5.626  19.168  0.00  0.00    +0.000 A 
ATOM      5  C   UNL     1       1.612   5.123  20.396  0.00  0.00    +0.000 A 
ATOM      6  C   UNL     1       1.130   3.816  20.514  0.00  0.00    +0.000 A 
ATOM      7  C   UNL     1       1.097   2.983  19.402  0.00  0.00    +0.000 A 
ATOM      8  C   UNL     1       1.535   3.459  18.171  0.00  0.00    +0.000 A 
ATOM      9  C   UNL     1       2.017   4.768  18.057  0.00  0.00    +0.000 A 
ENDBRANCH   3   4
BRANCH   1  10
ATOM     10  C   UNL     1       1.735   9.451  18.464  0.00  0.00    +0.000 C 
BRANCH  10  11
ATOM     11  O   UNL     1       2.002  10.235  17.310  0.00  0.00    +0.000 OA
ATOM     12  H   UNL     1       2.687  10.879  17.555  0.00  0.00    +0.000 HD
ENDBRANCH  10  11
ENDBRANCH   1  10
TORSDOF 3
ENDMDL
MODEL 5
REMARK VINA RESULT:      -5.4      3.404      4.166
REMARK  Name = 
REMARK  3 active torsions:
REMARK  status: ('A' for Active; 'I' for Inactive)
REMARK    1  A    between atoms: O_1  and  C_2
REMARK    2  A    between atoms: C_2  and  C_3
REMARK    3  A    between atoms: C_5  and  C_6
REMARK                            x       y       z     vdW  Elec       q    Type
REMARK                         _______ _______ _______ _____ _____    ______ ____
ROOT
ATOM      1  C   UNL     1       5.778   5.192  17.641  0.00  0.00    +0.000 C 
ATOM      2  C   UNL     1       4.793   6.105  16.970  0.00  0.00    +0.000 C 
ATOM      3  C   UNL     1       4.666   4.610  16.791  0.00  0.00    +0.000 C 
ENDROOT
BRANCH   3   4
ATOM      4  C   UNL     1       3.525   3.866  17.448  0.00  0.00    +0.000 A 
ATOM      5  C   UNL     1       2.304   4.500  17.730  0.00  0.00    +0.000 A 
ATOM      6  C   UNL     1       1.247   3.813  18.336  0.00  0.00    +0.000 A 
ATOM      7  C   UNL     1       1.391   2.471  18.670  0.00  0.00    +0.000 A 
ATOM      8  C   UNL     1       2.585   1.815  18.391  0.00  0.00    +0.000 A 
ATOM      9  C   UNL     1       3.640   2.507  17.785  0.00  0.00    +0.000 A 
ENDBRANCH   3   4
BRANCH   1  10
ATOM     10  C   UNL     1       7.198   5.165  17.190  0.00  0.00    +0.000 C 
BRANCH  10  11
ATOM     11  O   UNL     1       7.899   4.216  17.981  0.00  0.00    +0.000 OA
ATOM     12  H   UNL     1       8.683   3.947  17.476  0.00  0.00    +0.000 HD
ENDBRANCH  10  11
ENDBRANCH   1  10
TORSDOF 3
ENDMDL
MODEL 6
REMARK VINA RESULT:      -5.4      3.378      4.128
REMARK  Name = 
REMARK  3 active torsions:
REMARK  status: ('A' for Active; 'I' for Inactive)
REMARK    1  A    between atoms: O_1  and  C_2
REMARK    2  A    between atoms: C_2  and  C_3
REMARK    3  A    between atoms: C_5  and  C_6
REMARK                            x       y       z     vdW  Elec       q    Type
REMARK                         _______ _______ _______ _____ _____    ______ ____
ROOT
ATOM      1  C   UNL     1       6.069   5.632  18.645  0.00  0.00    +0.000 C 
ATOM      2  C   UNL     1       5.510   6.369  17.462  0.00  0.00    +0.000 C 
ATOM      3  C   UNL     1       5.412   4.862  17.516  0.00  0.00    +0.000 C 
ENDROOT
BRANCH   3   4
ATOM      4  C   UNL     1       4.070   4.201  17.734  0.00  0.00    +0.000 A 
ATOM      5  C   UNL     1       2.880   4.948  17.755  0.00  0.00    +0.000 A 
ATOM      6  C   UNL     1       1.638   4.338  17.955  0.00  0.00    +0.000 A 
ATOM      7  C   UNL     1       1.560   2.962  18.135  0.00  0.00    +0.000 A 
ATOM      8  C   UNL     1       2.720   2.195  18.106  0.00  0.00    +0.000 A 
ATOM      9  C   UNL     1       3.962   2.811  17.906  0.00  0.00    +0.000 A 
ENDBRANCH   3   4
BRANCH   1  10
ATOM     10  C   UNL     1       7.541   5.583  18.867  0.00  0.00    +0.000 C 
BRANCH  10  11
ATOM     11  O   UNL     1       7.778   5.483  20.265  0.00  0.00    +0.000 OA
ATOM     12  H   UNL     1       8.736   5.569  20.398  0.00  0.00    +0.000 HD
ENDBRANCH  10  11
ENDBRANCH   1  10
TORSDOF 3
ENDMDL
MODEL 7
REMARK VINA RESULT:      -5.4      3.135      3.679
REMARK  Name = 
REMARK  3 active torsions:
REMARK  status: ('A' for Active; 'I' for Inactive)
REMARK    1  A    between atoms: O_1  and  C_2
REMARK    2  A    between atoms: C_2  and  C_3
REMARK    3  A    between atoms: C_5  and  C_6
REMARK                            x       y       z     vdW  Elec       q    Type
REMARK                         _______ _______ _______ _____ _____    ______ ____
ROOT
ATOM      1  C   UNL     1       4.871   4.457  17.232  0.00  0.00    +0.000 C 
ATOM      2  C   UNL     1       4.737   5.767  17.955  0.00  0.00    +0.000 C 
ATOM      3  C   UNL     1       3.498   5.065  17.448  0.00  0.00    +0.000 C 
ENDROOT
BRANCH   3   4
ATOM      4  C   UNL     1       2.538   4.429  18.428  0.00  0.00    +0.000 A 
ATOM      5  C   UNL     1       1.816   3.270  18.098  0.00  0.00    +0.000 A 
ATOM      6  C   UNL     1       0.930   2.679  19.004  0.00  0.00    +0.000 A 
ATOM      7  C   UNL     1       0.750   3.237  20.264  0.00  0.00    +0.000 A 
ATOM      8  C   UNL     1       1.462   4.376  20.623  0.00  0.00    +0.000 A 
ATOM      9  C   UNL     1       2.348   4.964  19.713  0.00  0.00    +0.000 A 
ENDBRANCH   3   4
BRANCH   1  10
ATOM     10  C   UNL     1       5.498   4.411  15.881  0.00  0.00    +0.000 C 
BRANCH  10  11
ATOM     11  O   UNL     1       6.078   3.126  15.703  0.00  0.00    +0.000 OA
ATOM     12  H   UNL     1       6.337   2.807  16.583  0.00  0.00    +0.000 HD
ENDBRANCH  10  11
ENDBRANCH   1  10
TORSDOF 3
ENDMDL
MODEL 8
REMARK VINA RESULT:      -5.4      3.202      4.045
REMARK  Name = 
REMARK  3 active torsions:
REMARK  status: ('A' for Active; 'I' for Inactive)
REMARK    1  A    between atoms: O_1  and  C_2
REMARK    2  A    between atoms: C_2  and  C_3
REMARK    3  A    between atoms: C_5  and  C_6
REMARK                            x       y       z     vdW  Elec       q    Type
REMARK                         _______ _______ _______ _____ _____    ______ ____
ROOT
ATOM      1  C   UNL     1       5.581   4.549  17.388  0.00  0.00    +0.000 C 
ATOM      2  C   UNL     1       5.296   5.964  17.803  0.00  0.00    +0.000 C 
ATOM      3  C   UNL     1       4.179   5.110  17.249  0.00  0.00    +0.000 C 
ENDROOT
BRANCH   3   4
ATOM      4  C   UNL     1       3.079   4.623  18.164  0.00  0.00    +0.000 A 
ATOM      5  C   UNL     1       2.854   5.214  19.418  0.00  0.00    +0.000 A 
ATOM      6  C   UNL     1       1.835   4.766  20.264  0.00  0.00    +0.000 A 
ATOM      7  C   UNL     1       1.014   3.715  19.870  0.00  0.00    +0.000 A 
ATOM      8  C   UNL     1       1.205   3.120  18.627  0.00  0.00    +0.000 A 
ATOM      9  C   UNL     1       2.227   3.572  17.783  0.00  0.00    +0.000 A 
ENDBRANCH   3   4
BRANCH   1  10
ATOM     10  C   UNL     1       6.433   4.278  16.195  0.00  0.00    +0.000 C 
BRANCH  10  11
ATOM     11  O   UNL     1       7.791   4.469  16.566  0.00  0.00    +0.000 OA
ATOM     12  H   UNL     1       8.160   3.591  16.754  0.00  0.00    +0.000 HD
ENDBRANCH  10  11
ENDBRANCH   1  10
TORSDOF 3
ENDMDL
MODEL 9
REMARK VINA RESULT:      -5.4      3.198      5.106
REMARK  Name = 
REMARK  3 active torsions:
REMARK  status: ('A' for Active; 'I' for Inactive)
REMARK    1  A    between atoms: O_1  and  C_2
REMARK    2  A    between atoms: C_2  and  C_3
REMARK    3  A    between atoms: C_5  and  C_6
REMARK                            x       y       z     vdW  Elec       q    Type
REMARK                         _______ _______ _______ _____ _____    ______ ____
ROOT
ATOM      1  C   UNL     1       2.207   3.096  19.886  0.00  0.00    +0.000 C 
ATOM      2  C   UNL     1       2.068   2.220  18.674  0.00  0.00    +0.000 C 
ATOM      3  C   UNL     1       1.928   3.718  18.532  0.00  0.00    +0.000 C 
ENDROOT
BRANCH   3   4
ATOM      4  C   UNL     1       3.007   4.513  17.831  0.00  0.00    +0.000 A 
ATOM      5  C   UNL     1       3.923   3.897  16.962  0.00  0.00    +0.000 A 
ATOM      6  C   UNL     1       4.920   4.630  16.312  0.00  0.00    +0.000 A 
ATOM      7  C   UNL     1       5.018   6.002  16.515  0.00  0.00    +0.000 A 
ATOM      8  C   UNL     1       4.116   6.641  17.359  0.00  0.00    +0.000 A 
ATOM      9  C   UNL     1       3.120   5.902  18.009  0.00  0.00    +0.000 A 
ENDBRANCH   3   4
BRANCH   1  10
ATOM     10  C   UNL     1       1.169   3.062  20.955  0.00  0.00    +0.000 C 
BRANCH  10  11
ATOM     11  O   UNL     1       1.735   2.451  22.106  0.00  0.00    +0.000 OA
ATOM     12  H   UNL     1       2.000   3.166  22.706  0.00  0.00    +0.000 HD
ENDBRANCH  10  11
ENDBRANCH   1  10
TORSDOF 3
ENDMDL
