MODEL 1
REMARK VINA RESULT:      -8.0      0.000      0.000
REMARK  Name = 
REMARK  9 active torsions:
REMARK  status: ('A' for Active; 'I' for Inactive)
REMARK    1  A    between atoms: C_1  and  C_2
REMARK    2  A    between atoms: C_2  and  C_7
REMARK    3  A    between atoms: C_3  and  C_4
REMARK    4  A    between atoms: C_4  and  O_6
REMARK    5  A    between atoms: C_10  and  N_11
REMARK    6  A    between atoms: C_17  and  N_18
REMARK    7  A    between atoms: C_20  and  C_21
REMARK    8  A    between atoms: C_21  and  N_22
REMARK    9  A    between atoms: N_22  and  C_23
REMARK                            x       y       z     vdW  Elec       q    Type
REMARK                         _______ _______ _______ _____ _____    ______ ____
ROOT
ATOM      1  C   UNL     1       1.432   7.290  20.482  0.00  0.00    +0.000 A 
ATOM      2  C   UNL     1       0.658   6.180  20.795  0.00  0.00    +0.000 A 
ATOM      3  C   UNL     1       1.104   4.887  20.465  0.00  0.00    +0.000 A 
ATOM      4  C   UNL     1       2.331   4.622  19.808  0.00  0.00    +0.000 A 
ATOM      5  C   UNL     1       3.091   5.777  19.483  0.00  0.00    +0.000 A 
ATOM      6  C   UNL     1       2.649   7.079  19.837  0.00  0.00    +0.000 A 
ENDROOT
BRANCH   4   7
ATOM      7  N   UNL     1       2.728   3.300  19.675  0.00  0.00    +0.000 N 
ATOM      8  C   UNL     1       3.449   2.554  20.731  0.00  0.00    +0.000 C 
ATOM      9  C   UNL     1       4.628   1.770  20.117  0.00  0.00    +0.000 C 
ATOM     10  O   UNL     1       4.219   0.927  19.026  0.00  0.00    +0.000 OA
ATOM     11  C   UNL     1       3.598   1.714  18.003  0.00  0.00    +0.000 C 
ATOM     12  C   UNL     1       2.357   2.435  18.539  0.00  0.00    +0.000 C 
ENDBRANCH   4   7
BRANCH   5  13
ATOM     13  N   UNL     1       4.325   5.731  18.787  0.00  0.00    +0.000 N 
ATOM     14  C   UNL     1       4.581   6.258  17.540  0.00  0.00    +0.000 A 
ATOM     15  C   UNL     1       5.945   6.169  17.396  0.00  0.00    +0.000 A 
ATOM     16  N   UNL     1       6.460   5.472  18.453  0.00  0.00    +0.000 NA
ATOM     17  N   UNL     1       5.457   5.163  19.266  0.00  0.00    +0.000 NA
BRANCH  15  18
ATOM     18  C   UNL     1       6.805   6.670  16.288  0.00  0.00    +0.000 C 
BRANCH  18  19
ATOM     19  N   UNL     1       7.519   5.602  15.592  0.00  0.00    +0.000 N 
ATOM     20  H   UNL     1       8.452   5.920  15.338  0.00  0.00    +0.000 HD
BRANCH  19  21
ATOM     21  C   UNL     1       6.898   4.938  14.533  0.00  0.00    +0.000 A 
ATOM     22  C   UNL     1       7.579   4.863  13.311  0.00  0.00    +0.000 A 
ATOM     23  C   UNL     1       7.053   4.157  12.228  0.00  0.00    +0.000 A 
ATOM     24  C   UNL     1       5.850   3.487  12.379  0.00  0.00    +0.000 A 
ATOM     25  F   UNL     1       5.341   2.804  11.345  0.00  0.00    +0.000 F 
ATOM     26  C   UNL     1       5.172   3.502  13.588  0.00  0.00    +0.000 A 
ATOM     27  C   UNL     1       5.701   4.216  14.670  0.00  0.00    +0.000 A 
ENDBRANCH  19  21
ENDBRANCH  18  19
ENDBRANCH  15  18
ENDBRANCH   5  13
BRANCH   1  29
ATOM     28  C   UNL     1       1.007   9.609  19.609  0.00  0.00    +0.000 C 
ATOM     29  C   UNL     1       0.981   8.665  20.780  0.00  0.00    +0.000 C 
ATOM     30  C   UNL     1       0.561   8.925  22.034  0.00  0.00    +0.000 C 
BRANCH  30  31
ATOM     31  C   UNL     1       0.086  10.242  22.519  0.00  0.00    +0.000 C 
ATOM     32  O   UNL     1       0.426  11.324  22.080  0.00  0.00    +0.000 OA
BRANCH  31  33
ATOM     33  O   UNL     1      -0.780  10.113  23.546  0.00  0.00    +0.000 OA
ATOM     34  H   UNL     1      -0.413  10.260  24.436  0.00  0.00    +0.000 HD
ENDBRANCH  31  33
ENDBRANCH  30  31
ENDBRANCH   1  29
TORSDOF 8
ENDMDL
MODEL 2
REMARK VINA RESULT:      -7.9      0.811      1.229
REMARK  Name = 
REMARK  9 active torsions:
REMARK  status: ('A' for Active; 'I' for Inactive)
REMARK    1  A    between atoms: C_1  and  C_2
REMARK    2  A    between atoms: C_2  and  C_7
REMARK    3  A    between atoms: C_3  and  C_4
REMARK    4  A    between atoms: C_4  and  O_6
REMARK    5  A    between atoms: C_10  and  N_11
REMARK    6  A    between atoms: C_17  and  N_18
REMARK    7  A    between atoms: C_20  and  C_21
REMARK    8  A    between atoms: C_21  and  N_22
REMARK    9  A    between atoms: N_22  and  C_23
REMARK                            x       y       z     vdW  Elec       q    Type
REMARK                         _______ _______ _______ _____ _____    ______ ____
ROOT
ATOM      1  C   UNL     1       1.481   7.444  20.524  0.00  0.00    +0.000 A 
ATOM      2  C   UNL     1       0.667   6.357  20.815  0.00  0.00    +0.000 A 
ATOM      3  C   UNL     1       1.065   5.056  20.458  0.00  0.00    +0.000 A 
ATOM      4  C   UNL     1       2.283   4.760  19.796  0.00  0.00    +0.000 A 
ATOM      5  C   UNL     1       3.084   5.893  19.493  0.00  0.00    +0.000 A 
ATOM      6  C   UNL     1       2.689   7.203  19.874  0.00  0.00    +0.000 A 
ENDROOT
BRANCH   4   7
ATOM      7  N   UNL     1       2.631   3.428  19.636  0.00  0.00    +0.000 N 
ATOM      8  C   UNL     1       3.336   2.639  20.671  0.00  0.00    +0.000 C 
ATOM      9  C   UNL     1       4.481   1.824  20.031  0.00  0.00    +0.000 C 
ATOM     10  O   UNL     1       4.031   1.015  18.930  0.00  0.00    +0.000 OA
ATOM     11  C   UNL     1       3.428   1.842  17.928  0.00  0.00    +0.000 C 
ATOM     12  C   UNL     1       2.218   2.596  18.489  0.00  0.00    +0.000 C 
ENDBRANCH   4   7
BRANCH   5  13
ATOM     13  N   UNL     1       4.315   5.816  18.796  0.00  0.00    +0.000 N 
ATOM     14  C   UNL     1       4.571   6.302  17.532  0.00  0.00    +0.000 A 
ATOM     15  C   UNL     1       5.934   6.199  17.387  0.00  0.00    +0.000 A 
ATOM     16  N   UNL     1       6.447   5.532  18.464  0.00  0.00    +0.000 NA
ATOM     17  N   UNL     1       5.445   5.256  19.289  0.00  0.00    +0.000 NA
BRANCH  15  18
ATOM     18  C   UNL     1       6.794   6.658  16.261  0.00  0.00    +0.000 C 
BRANCH  18  19
ATOM     19  N   UNL     1       7.500   5.565  15.599  0.00  0.00    +0.000 N 
ATOM     20  H   UNL     1       8.455   5.848  15.388  0.00  0.00    +0.000 HD
BRANCH  19  21
ATOM     21  C   UNL     1       6.904   4.921  14.513  0.00  0.00    +0.000 A 
ATOM     22  C   UNL     1       7.608   4.881  13.302  0.00  0.00    +0.000 A 
ATOM     23  C   UNL     1       7.108   4.198  12.193  0.00  0.00    +0.000 A 
ATOM     24  C   UNL     1       5.909   3.514  12.305  0.00  0.00    +0.000 A 
ATOM     25  F   UNL     1       5.425   2.852  11.246  0.00  0.00    +0.000 F 
ATOM     26  C   UNL     1       5.209   3.495  13.502  0.00  0.00    +0.000 A 
ATOM     27  C   UNL     1       5.712   4.186  14.610  0.00  0.00    +0.000 A 
ENDBRANCH  19  21
ENDBRANCH  18  19
ENDBRANCH  15  18
ENDBRANCH   5  13
BRANCH   1  29
ATOM     28  C   UNL     1       1.053   9.152  22.319  0.00  0.00    +0.000 C 
ATOM     29  C   UNL     1       1.080   8.829  20.850  0.00  0.00    +0.000 C 
ATOM     30  C   UNL     1       0.823   9.662  19.822  0.00  0.00    +0.000 C 
BRANCH  30  31
ATOM     31  C   UNL     1       0.399  11.075  19.954  0.00  0.00    +0.000 C 
ATOM     32  O   UNL     1      -0.730  11.457  20.197  0.00  0.00    +0.000 OA
BRANCH  31  33
ATOM     33  O   UNL     1       1.427  11.926  19.755  0.00  0.00    +0.000 OA
ATOM     34  H   UNL     1       1.508  12.296  18.857  0.00  0.00    +0.000 HD
ENDBRANCH  31  33
ENDBRANCH  30  31
ENDBRANCH   1  29
TORSDOF 8
ENDMDL
MODEL 3
REMARK VINA RESULT:      -7.9      5.956     11.239
REMARK  Name = 
REMARK  9 active torsions:
REMARK  status: ('A' for Active; 'I' for Inactive)
REMARK    1  A    between atoms: C_1  and  C_2
REMARK    2  A    between atoms: C_2  and  C_7
REMARK    3  A    between atoms: C_3  and  C_4
REMARK    4  A    between atoms: C_4  and  O_6
REMARK    5  A    between atoms: C_10  and  N_11
REMARK    6  A    between atoms: C_17  and  N_18
REMARK    7  A    between atoms: C_20  and  C_21
REMARK    8  A    between atoms: C_21  and  N_22
REMARK    9  A    between atoms: N_22  and  C_23
REMARK                            x       y       z     vdW  Elec       q    Type
REMARK                         _______ _______ _______ _____ _____    ______ ____
ROOT
ATOM      1  C   UNL     1       2.266   6.769  19.591  0.00  0.00    +0.000 A 
ATOM      2  C   UNL     1       2.331   7.281  18.301  0.00  0.00    +0.000 A 
ATOM      3  C   UNL     1       1.851   8.575  18.026  0.00  0.00    +0.000 A 
ATOM      4  C   UNL     1       1.281   9.426  19.005  0.00  0.00    +0.000 A 
ATOM      5  C   UNL     1       1.209   8.868  20.308  0.00  0.00    +0.000 A 
ATOM      6  C   UNL     1       1.715   7.570  20.588  0.00  0.00    +0.000 A 
ENDROOT
BRANCH   4   7
ATOM      7  N   UNL     1       0.985  10.731  18.641  0.00  0.00    +0.000 N 
ATOM      8  C   UNL     1       1.979  11.828  18.659  0.00  0.00    +0.000 C 
ATOM      9  C   UNL     1       1.369  13.088  19.311  0.00  0.00    +0.000 C 
ATOM     10  O   UNL     1       0.127  13.477  18.699  0.00  0.00    +0.000 OA
ATOM     11  C   UNL     1      -0.819  12.403  18.781  0.00  0.00    +0.000 C 
ATOM     12  C   UNL     1      -0.302  11.156  18.056  0.00  0.00    +0.000 C 
ENDBRANCH   4   7
BRANCH   5  13
ATOM     13  N   UNL     1       0.635   9.539  21.416  0.00  0.00    +0.000 N 
ATOM     14  C   UNL     1      -0.501  10.320  21.401  0.00  0.00    +0.000 A 
ATOM     15  C   UNL     1      -0.781  10.556  22.725  0.00  0.00    +0.000 A 
ATOM     16  N   UNL     1       0.239  10.063  23.491  0.00  0.00    +0.000 NA
ATOM     17  N   UNL     1       1.121   9.495  22.679  0.00  0.00    +0.000 NA
BRANCH  15  18
ATOM     18  C   UNL     1      -1.947  11.263  23.326  0.00  0.00    +0.000 C 
BRANCH  18  19
ATOM     19  N   UNL     1      -2.232  12.542  22.681  0.00  0.00    +0.000 N 
ATOM     20  H   UNL     1      -1.671  12.634  21.835  0.00  0.00    +0.000 HD
BRANCH  19  21
ATOM     21  C   UNL     1      -2.211  13.714  23.439  0.00  0.00    +0.000 A 
ATOM     22  C   UNL     1      -3.374  14.070  24.135  0.00  0.00    +0.000 A 
ATOM     23  C   UNL     1      -3.407  15.190  24.967  0.00  0.00    +0.000 A 
ATOM     24  C   UNL     1      -2.256  15.942  25.136  0.00  0.00    +0.000 A 
ATOM     25  F   UNL     1      -2.280  17.015  25.936  0.00  0.00    +0.000 F 
ATOM     26  C   UNL     1      -1.076  15.591  24.497  0.00  0.00    +0.000 A 
ATOM     27  C   UNL     1      -1.049  14.470  23.659  0.00  0.00    +0.000 A 
ENDBRANCH  19  21
ENDBRANCH  18  19
ENDBRANCH  15  18
ENDBRANCH   5  13
BRANCH   1  29
ATOM     28  C   UNL     1       4.120   5.076  19.445  0.00  0.00    +0.000 C 
ATOM     29  C   UNL     1       2.727   5.402  19.911  0.00  0.00    +0.000 C 
ATOM     30  C   UNL     1       1.891   4.610  20.611  0.00  0.00    +0.000 C 
BRANCH  30  31
ATOM     31  C   UNL     1       2.174   3.212  21.012  0.00  0.00    +0.000 C 
ATOM     32  O   UNL     1       2.608   2.858  22.091  0.00  0.00    +0.000 OA
BRANCH  31  33
ATOM     33  O   UNL     1       1.906   2.343  20.015  0.00  0.00    +0.000 OA
ATOM     34  H   UNL     1       1.803   2.730  19.127  0.00  0.00    +0.000 HD
ENDBRANCH  31  33
ENDBRANCH  30  31
ENDBRANCH   1  29
TORSDOF 8
ENDMDL
MODEL 4
REMARK VINA RESULT:      -7.8      0.819      1.249
REMARK  Name = 
REMARK  9 active torsions:
REMARK  status: ('A' for Active; 'I' for Inactive)
REMARK    1  A    between atoms: C_1  and  C_2
REMARK    2  A    between atoms: C_2  and  C_7
REMARK    3  A    between atoms: C_3  and  C_4
REMARK    4  A    between atoms: C_4  and  O_6
REMARK    5  A    between atoms: C_10  and  N_11
REMARK    6  A    between atoms: C_17  and  N_18
REMARK    7  A    between atoms: C_20  and  C_21
REMARK    8  A    between atoms: C_21  and  N_22
REMARK    9  A    between atoms: N_22  and  C_23
REMARK                            x       y       z     vdW  Elec       q    Type
REMARK                         _______ _______ _______ _____ _____    ______ ____
ROOT
ATOM      1  C   UNL     1       1.327   7.674  20.481  0.00  0.00    +0.000 A 
ATOM      2  C   UNL     1       0.658   6.537  20.915  0.00  0.00    +0.000 A 
ATOM      3  C   UNL     1       1.092   5.261  20.512  0.00  0.00    +0.000 A 
ATOM      4  C   UNL     1       2.204   5.041  19.661  0.00  0.00    +0.000 A 
ATOM      5  C   UNL     1       2.855   6.222  19.218  0.00  0.00    +0.000 A 
ATOM      6  C   UNL     1       2.428   7.508  19.644  0.00  0.00    +0.000 A 
ENDROOT
BRANCH   4   7
ATOM      7  N   UNL     1       2.623   3.734  19.461  0.00  0.00    +0.000 N 
ATOM      8  C   UNL     1       3.228   2.899  20.523  0.00  0.00    +0.000 C 
ATOM      9  C   UNL     1       4.474   2.168  19.980  0.00  0.00    +0.000 C 
ATOM     10  O   UNL     1       4.196   1.423  18.782  0.00  0.00    +0.000 OA
ATOM     11  C   UNL     1       3.686   2.296  17.767  0.00  0.00    +0.000 C 
ATOM     12  C   UNL     1       2.387   2.970  18.220  0.00  0.00    +0.000 C 
ENDBRANCH   4   7
BRANCH   5  13
ATOM     13  N   UNL     1       3.958   6.221  18.329  0.00  0.00    +0.000 N 
ATOM     14  C   UNL     1       5.119   5.491  18.466  0.00  0.00    +0.000 A 
ATOM     15  C   UNL     1       5.771   5.642  17.266  0.00  0.00    +0.000 A 
ATOM     16  N   UNL     1       5.096   6.554  16.504  0.00  0.00    +0.000 NA
ATOM     17  N   UNL     1       4.024   6.941  17.184  0.00  0.00    +0.000 NA
BRANCH  15  18
ATOM     18  C   UNL     1       7.033   5.003  16.797  0.00  0.00    +0.000 C 
BRANCH  18  19
ATOM     19  N   UNL     1       7.422   5.427  15.456  0.00  0.00    +0.000 N 
ATOM     20  H   UNL     1       7.252   6.425  15.346  0.00  0.00    +0.000 HD
BRANCH  19  21
ATOM     21  C   UNL     1       6.970   4.706  14.349  0.00  0.00    +0.000 A 
ATOM     22  C   UNL     1       5.775   3.986  14.473  0.00  0.00    +0.000 A 
ATOM     23  C   UNL     1       5.226   3.298  13.391  0.00  0.00    +0.000 A 
ATOM     24  C   UNL     1       5.857   3.360  12.160  0.00  0.00    +0.000 A 
ATOM     25  F   UNL     1       5.333   2.705  11.115  0.00  0.00    +0.000 F 
ATOM     26  C   UNL     1       7.017   4.100  11.990  0.00  0.00    +0.000 A 
ATOM     27  C   UNL     1       7.567   4.785  13.080  0.00  0.00    +0.000 A 
ENDBRANCH  19  21
ENDBRANCH  18  19
ENDBRANCH  15  18
ENDBRANCH   5  13
BRANCH   1  29
ATOM     28  C   UNL     1       1.127  10.090  19.813  0.00  0.00    +0.000 C 
ATOM     29  C   UNL     1       0.879   9.033  20.854  0.00  0.00    +0.000 C 
ATOM     30  C   UNL     1       0.268   9.182  22.046  0.00  0.00    +0.000 C 
BRANCH  30  31
ATOM     31  C   UNL     1      -0.235  10.465  22.592  0.00  0.00    +0.000 C 
ATOM     32  O   UNL     1       0.018  11.570  22.153  0.00  0.00    +0.000 OA
BRANCH  31  33
ATOM     33  O   UNL     1      -1.019  10.273  23.674  0.00  0.00    +0.000 OA
ATOM     34  H   UNL     1      -0.876  10.884  24.418  0.00  0.00    +0.000 HD
ENDBRANCH  31  33
ENDBRANCH  30  31
ENDBRANCH   1  29
TORSDOF 8
ENDMDL
MODEL 5
REMARK VINA RESULT:      -7.8      0.170      1.030
REMARK  Name = 
REMARK  9 active torsions:
REMARK  status: ('A' for Active; 'I' for Inactive)
REMARK    1  A    between atoms: C_1  and  C_2
REMARK    2  A    between atoms: C_2  and  C_7
REMARK    3  A    between atoms: C_3  and  C_4
REMARK    4  A    between atoms: C_4  and  O_6
REMARK    5  A    between atoms: C_10  and  N_11
REMARK    6  A    between atoms: C_17  and  N_18
REMARK    7  A    between atoms: C_20  and  C_21
REMARK    8  A    between atoms: C_21  and  N_22
REMARK    9  A    between atoms: N_22  and  C_23
REMARK                            x       y       z     vdW  Elec       q    Type
REMARK                         _______ _______ _______ _____ _____    ______ ____
ROOT
ATOM      1  C   UNL     1       1.406   7.316  20.496  0.00  0.00    +0.000 A 
ATOM      2  C   UNL     1       0.610   6.208  20.757  0.00  0.00    +0.000 A 
ATOM      3  C   UNL     1       1.058   4.917  20.424  0.00  0.00    +0.000 A 
ATOM      4  C   UNL     1       2.310   4.652  19.815  0.00  0.00    +0.000 A 
ATOM      5  C   UNL     1       3.093   5.805  19.542  0.00  0.00    +0.000 A 
ATOM      6  C   UNL     1       2.647   7.105  19.899  0.00  0.00    +0.000 A 
ENDROOT
BRANCH   4   7
ATOM      7  N   UNL     1       2.701   3.329  19.676  0.00  0.00    +0.000 N 
ATOM      8  C   UNL     1       3.484   2.598  20.698  0.00  0.00    +0.000 C 
ATOM      9  C   UNL     1       4.627   1.807  20.027  0.00  0.00    +0.000 C 
ATOM     10  O   UNL     1       4.157   0.949  18.972  0.00  0.00    +0.000 OA
ATOM     11  C   UNL     1       3.476   1.722  17.977  0.00  0.00    +0.000 C 
ATOM     12  C   UNL     1       2.266   2.448  18.575  0.00  0.00    +0.000 C 
ENDBRANCH   4   7
BRANCH   5  13
ATOM     13  N   UNL     1       4.355   5.760  18.899  0.00  0.00    +0.000 N 
ATOM     14  C   UNL     1       4.621   6.113  17.593  0.00  0.00    +0.000 A 
ATOM     15  C   UNL     1       5.992   6.119  17.505  0.00  0.00    +0.000 A 
ATOM     16  N   UNL     1       6.515   5.635  18.671  0.00  0.00    +0.000 NA
ATOM     17  N   UNL     1       5.507   5.368  19.492  0.00  0.00    +0.000 NA
BRANCH  15  18
ATOM     18  C   UNL     1       6.856   6.519  16.359  0.00  0.00    +0.000 C 
BRANCH  18  19
ATOM     19  N   UNL     1       7.572   5.394  15.765  0.00  0.00    +0.000 N 
ATOM     20  H   UNL     1       8.551   5.640  15.630  0.00  0.00    +0.000 HD
BRANCH  19  21
ATOM     21  C   UNL     1       7.043   4.761  14.638  0.00  0.00    +0.000 A 
ATOM     22  C   UNL     1       5.835   4.065  14.777  0.00  0.00    +0.000 A 
ATOM     23  C   UNL     1       5.212   3.466  13.682  0.00  0.00    +0.000 A 
ATOM     24  C   UNL     1       5.781   3.595  12.426  0.00  0.00    +0.000 A 
ATOM     25  F   UNL     1       5.187   3.026  11.370  0.00  0.00    +0.000 F 
ATOM     26  C   UNL     1       6.952   4.316  12.245  0.00  0.00    +0.000 A 
ATOM     27  C   UNL     1       7.577   4.910  13.348  0.00  0.00    +0.000 A 
ENDBRANCH  19  21
ENDBRANCH  18  19
ENDBRANCH  15  18
ENDBRANCH   5  13
BRANCH   1  29
ATOM     28  C   UNL     1       0.936   9.626  19.620  0.00  0.00    +0.000 C 
ATOM     29  C   UNL     1       0.954   8.690  20.798  0.00  0.00    +0.000 C 
ATOM     30  C   UNL     1       0.571   8.956  22.063  0.00  0.00    +0.000 C 
BRANCH  30  31
ATOM     31  C   UNL     1       0.102  10.273  22.553  0.00  0.00    +0.000 C 
ATOM     32  O   UNL     1      -0.745  10.451  23.408  0.00  0.00    +0.000 OA
BRANCH  31  33
ATOM     33  O   UNL     1       0.722  11.291  21.920  0.00  0.00    +0.000 OA
ATOM     34  H   UNL     1       1.686  11.347  22.046  0.00  0.00    +0.000 HD
ENDBRANCH  31  33
ENDBRANCH  30  31
ENDBRANCH   1  29
TORSDOF 8
ENDMDL
MODEL 6
REMARK VINA RESULT:      -7.8      5.658     10.957
REMARK  Name = 
REMARK  9 active torsions:
REMARK  status: ('A' for Active; 'I' for Inactive)
REMARK    1  A    between atoms: C_1  and  C_2
REMARK    2  A    between atoms: C_2  and  C_7
REMARK    3  A    between atoms: C_3  and  C_4
REMARK    4  A    between atoms: C_4  and  O_6
REMARK    5  A    between atoms: C_10  and  N_11
REMARK    6  A    between atoms: C_17  and  N_18
REMARK    7  A    between atoms: C_20  and  C_21
REMARK    8  A    between atoms: C_21  and  N_22
REMARK    9  A    between atoms: N_22  and  C_23
REMARK                            x       y       z     vdW  Elec       q    Type
REMARK                         _______ _______ _______ _____ _____    ______ ____
ROOT
ATOM      1  C   UNL     1       2.139   7.251  19.389  0.00  0.00    +0.000 A 
ATOM      2  C   UNL     1       2.228   7.883  18.156  0.00  0.00    +0.000 A 
ATOM      3  C   UNL     1       1.753   9.197  17.994  0.00  0.00    +0.000 A 
ATOM      4  C   UNL     1       1.165   9.954  19.038  0.00  0.00    +0.000 A 
ATOM      5  C   UNL     1       1.069   9.275  20.282  0.00  0.00    +0.000 A 
ATOM      6  C   UNL     1       1.569   7.956  20.447  0.00  0.00    +0.000 A 
ENDROOT
BRANCH   4   7
ATOM      7  N   UNL     1       0.876  11.288  18.794  0.00  0.00    +0.000 N 
ATOM      8  C   UNL     1       1.834  12.389  19.043  0.00  0.00    +0.000 C 
ATOM      9  C   UNL     1       1.126  13.557  19.762  0.00  0.00    +0.000 C 
ATOM     10  O   UNL     1      -0.054  13.997  19.067  0.00  0.00    +0.000 OA
ATOM     11  C   UNL     1      -0.975  12.908  18.924  0.00  0.00    +0.000 C 
ATOM     12  C   UNL     1      -0.352  11.760  18.124  0.00  0.00    +0.000 C 
ENDBRANCH   4   7
BRANCH   5  13
ATOM     13  N   UNL     1       0.474   9.840  21.437  0.00  0.00    +0.000 N 
ATOM     14  C   UNL     1      -0.553  10.759  21.463  0.00  0.00    +0.000 A 
ATOM     15  C   UNL     1      -0.930  10.825  22.782  0.00  0.00    +0.000 A 
ATOM     16  N   UNL     1      -0.056  10.090  23.533  0.00  0.00    +0.000 NA
ATOM     17  N   UNL     1       0.827   9.540  22.710  0.00  0.00    +0.000 NA
BRANCH  15  18
ATOM     18  C   UNL     1      -2.056  11.582  23.399  0.00  0.00    +0.000 C 
BRANCH  18  19
ATOM     19  N   UNL     1      -2.510  12.699  22.576  0.00  0.00    +0.000 N 
ATOM     20  H   UNL     1      -2.238  13.579  23.010  0.00  0.00    +0.000 HD
BRANCH  19  21
ATOM     21  C   UNL     1      -3.835  12.733  22.135  0.00  0.00    +0.000 A 
ATOM     22  C   UNL     1      -4.845  12.896  23.091  0.00  0.00    +0.000 A 
ATOM     23  C   UNL     1      -6.185  13.008  22.719  0.00  0.00    +0.000 A 
ATOM     24  C   UNL     1      -6.517  12.995  21.374  0.00  0.00    +0.000 A 
ATOM     25  F   UNL     1      -7.801  13.106  21.010  0.00  0.00    +0.000 F 
ATOM     26  C   UNL     1      -5.537  12.880  20.400  0.00  0.00    +0.000 A 
ATOM     27  C   UNL     1      -4.195  12.763  20.778  0.00  0.00    +0.000 A 
ENDBRANCH  19  21
ENDBRANCH  18  19
ENDBRANCH  15  18
ENDBRANCH   5  13
BRANCH   1  29
ATOM     28  C   UNL     1       3.743   5.436  18.714  0.00  0.00    +0.000 C 
ATOM     29  C   UNL     1       2.594   5.859  19.588  0.00  0.00    +0.000 C 
ATOM     30  C   UNL     1       1.977   5.132  20.541  0.00  0.00    +0.000 C 
BRANCH  30  31
ATOM     31  C   UNL     1       2.288   3.722  20.873  0.00  0.00    +0.000 C 
ATOM     32  O   UNL     1       2.552   2.846  20.072  0.00  0.00    +0.000 OA
BRANCH  31  33
ATOM     33  O   UNL     1       2.230   3.499  22.203  0.00  0.00    +0.000 OA
ATOM     34  H   UNL     1       2.962   3.868  22.730  0.00  0.00    +0.000 HD
ENDBRANCH  31  33
ENDBRANCH  30  31
ENDBRANCH   1  29
TORSDOF 8
ENDMDL
MODEL 7
REMARK VINA RESULT:      -7.8      4.311      8.427
REMARK  Name = 
REMARK  9 active torsions:
REMARK  status: ('A' for Active; 'I' for Inactive)
REMARK    1  A    between atoms: C_1  and  C_2
REMARK    2  A    between atoms: C_2  and  C_7
REMARK    3  A    between atoms: C_3  and  C_4
REMARK    4  A    between atoms: C_4  and  O_6
REMARK    5  A    between atoms: C_10  and  N_11
REMARK    6  A    between atoms: C_17  and  N_18
REMARK    7  A    between atoms: C_20  and  C_21
REMARK    8  A    between atoms: C_21  and  N_22
REMARK    9  A    between atoms: N_22  and  C_23
REMARK                            x       y       z     vdW  Elec       q    Type
REMARK                         _______ _______ _______ _____ _____    ______ ____
ROOT
ATOM      1  C   UNL     1       5.415   5.149  16.666  0.00  0.00    +0.000 A 
ATOM      2  C   UNL     1       5.275   3.879  17.212  0.00  0.00    +0.000 A 
ATOM      3  C   UNL     1       4.320   3.640  18.217  0.00  0.00    +0.000 A 
ATOM      4  C   UNL     1       3.457   4.638  18.735  0.00  0.00    +0.000 A 
ATOM      5  C   UNL     1       3.638   5.929  18.173  0.00  0.00    +0.000 A 
ATOM      6  C   UNL     1       4.588   6.163  17.144  0.00  0.00    +0.000 A 
ENDROOT
BRANCH   4   7
ATOM      7  N   UNL     1       2.458   4.244  19.612  0.00  0.00    +0.000 N 
ATOM      8  C   UNL     1       2.575   4.350  21.084  0.00  0.00    +0.000 C 
ATOM      9  C   UNL     1       2.086   3.047  21.752  0.00  0.00    +0.000 C 
ATOM     10  O   UNL     1       0.763   2.676  21.328  0.00  0.00    +0.000 OA
ATOM     11  C   UNL     1       0.730   2.513  19.905  0.00  0.00    +0.000 C 
ATOM     12  C   UNL     1       1.109   3.815  19.192  0.00  0.00    +0.000 C 
ENDBRANCH   4   7
BRANCH   5  13
ATOM     13  N   UNL     1       2.907   7.071  18.584  0.00  0.00    +0.000 N 
ATOM     14  C   UNL     1       2.595   8.166  17.808  0.00  0.00    +0.000 A 
ATOM     15  C   UNL     1       1.699   8.885  18.563  0.00  0.00    +0.000 A 
ATOM     16  N   UNL     1       1.603   8.317  19.802  0.00  0.00    +0.000 NA
ATOM     17  N   UNL     1       2.385   7.245  19.822  0.00  0.00    +0.000 NA
BRANCH  15  18
ATOM     18  C   UNL     1       0.944  10.118  18.200  0.00  0.00    +0.000 C 
BRANCH  18  19
ATOM     19  N   UNL     1      -0.277  10.289  18.981  0.00  0.00    +0.000 N 
ATOM     20  H   UNL     1      -0.340   9.559  19.688  0.00  0.00    +0.000 HD
BRANCH  19  21
ATOM     21  C   UNL     1      -1.495  10.470  18.322  0.00  0.00    +0.000 A 
ATOM     22  C   UNL     1      -2.383  11.428  18.828  0.00  0.00    +0.000 A 
ATOM     23  C   UNL     1      -3.588  11.712  18.184  0.00  0.00    +0.000 A 
ATOM     24  C   UNL     1      -3.893  11.059  17.001  0.00  0.00    +0.000 A 
ATOM     25  F   UNL     1      -5.046  11.329  16.376  0.00  0.00    +0.000 F 
ATOM     26  C   UNL     1      -3.016  10.137  16.449  0.00  0.00    +0.000 A 
ATOM     27  C   UNL     1      -1.810   9.852  17.102  0.00  0.00    +0.000 A 
ENDBRANCH  19  21
ENDBRANCH  18  19
ENDBRANCH  15  18
ENDBRANCH   5  13
BRANCH   1  29
ATOM     28  C   UNL     1       7.455   6.475  16.033  0.00  0.00    +0.000 C 
ATOM     29  C   UNL     1       6.432   5.447  15.636  0.00  0.00    +0.000 C 
ATOM     30  C   UNL     1       6.370   4.755  14.481  0.00  0.00    +0.000 C 
BRANCH  30  31
ATOM     31  C   UNL     1       7.292   4.925  13.334  0.00  0.00    +0.000 C 
ATOM     32  O   UNL     1       8.241   5.685  13.293  0.00  0.00    +0.000 OA
BRANCH  31  33
ATOM     33  O   UNL     1       6.949   4.133  12.296  0.00  0.00    +0.000 OA
ATOM     34  H   UNL     1       7.492   4.223  11.492  0.00  0.00    +0.000 HD
ENDBRANCH  31  33
ENDBRANCH  30  31
ENDBRANCH   1  29
TORSDOF 8
ENDMDL
MODEL 8
REMARK VINA RESULT:      -7.8      5.650     11.255
REMARK  Name = 
REMARK  9 active torsions:
REMARK  status: ('A' for Active; 'I' for Inactive)
REMARK    1  A    between atoms: C_1  and  C_2
REMARK    2  A    between atoms: C_2  and  C_7
REMARK    3  A    between atoms: C_3  and  C_4
REMARK    4  A    between atoms: C_4  and  O_6
REMARK    5  A    between atoms: C_10  and  N_11
REMARK    6  A    between atoms: C_17  and  N_18
REMARK    7  A    between atoms: C_20  and  C_21
REMARK    8  A    between atoms: C_21  and  N_22
REMARK    9  A    between atoms: N_22  and  C_23
REMARK                            x       y       z     vdW  Elec       q    Type
REMARK                         _______ _______ _______ _____ _____    ______ ____
ROOT
ATOM      1  C   UNL     1       2.418   6.821  19.282  0.00  0.00    +0.000 A 
ATOM      2  C   UNL     1       2.411   7.392  18.016  0.00  0.00    +0.000 A 
ATOM      3  C   UNL     1       1.891   8.685  17.823  0.00  0.00    +0.000 A 
ATOM      4  C   UNL     1       1.350   9.478  18.865  0.00  0.00    +0.000 A 
ATOM      5  C   UNL     1       1.352   8.860  20.144  0.00  0.00    +0.000 A 
ATOM      6  C   UNL     1       1.898   7.564  20.340  0.00  0.00    +0.000 A 
ENDROOT
BRANCH   4   7
ATOM      7  N   UNL     1       1.009  10.791  18.576  0.00  0.00    +0.000 N 
ATOM      8  C   UNL     1       1.978  11.910  18.602  0.00  0.00    +0.000 C 
ATOM      9  C   UNL     1       1.369  13.123  19.337  0.00  0.00    +0.000 C 
ATOM     10  O   UNL     1       0.093  13.509  18.798  0.00  0.00    +0.000 OA
ATOM     11  C   UNL     1      -0.823  12.410  18.870  0.00  0.00    +0.000 C 
ATOM     12  C   UNL     1      -0.310  11.211  18.066  0.00  0.00    +0.000 C 
ENDBRANCH   4   7
BRANCH   5  13
ATOM     13  N   UNL     1       0.817   9.468  21.306  0.00  0.00    +0.000 N 
ATOM     14  C   UNL     1      -0.310  10.258  21.372  0.00  0.00    +0.000 A 
ATOM     15  C   UNL     1      -0.550  10.415  22.716  0.00  0.00    +0.000 A 
ATOM     16  N   UNL     1       0.487   9.868  23.420  0.00  0.00    +0.000 NA
ATOM     17  N   UNL     1       1.340   9.343  22.550  0.00  0.00    +0.000 NA
BRANCH  15  18
ATOM     18  C   UNL     1      -1.690  11.094  23.392  0.00  0.00    +0.000 C 
BRANCH  18  19
ATOM     19  N   UNL     1      -1.776  12.517  23.075  0.00  0.00    +0.000 N 
ATOM     20  H   UNL     1      -0.982  13.009  23.481  0.00  0.00    +0.000 HD
BRANCH  19  21
ATOM     21  C   UNL     1      -2.972  13.201  23.301  0.00  0.00    +0.000 A 
ATOM     22  C   UNL     1      -3.098  14.498  22.786  0.00  0.00    +0.000 A 
ATOM     23  C   UNL     1      -4.287  15.217  22.912  0.00  0.00    +0.000 A 
ATOM     24  C   UNL     1      -5.375  14.621  23.528  0.00  0.00    +0.000 A 
ATOM     25  F   UNL     1      -6.521  15.303  23.649  0.00  0.00    +0.000 F 
ATOM     26  C   UNL     1      -5.299  13.322  24.008  0.00  0.00    +0.000 A 
ATOM     27  C   UNL     1      -4.102  12.607  23.884  0.00  0.00    +0.000 A 
ENDBRANCH  19  21
ENDBRANCH  18  19
ENDBRANCH  15  18
ENDBRANCH   5  13
BRANCH   1  29
ATOM     28  C   UNL     1       2.364   4.771  20.737  0.00  0.00    +0.000 C 
ATOM     29  C   UNL     1       2.923   5.452  19.518  0.00  0.00    +0.000 C 
ATOM     30  C   UNL     1       3.785   4.941  18.617  0.00  0.00    +0.000 C 
BRANCH  30  31
ATOM     31  C   UNL     1       4.403   3.597  18.693  0.00  0.00    +0.000 C 
ATOM     32  O   UNL     1       3.859   2.549  18.400  0.00  0.00    +0.000 OA
BRANCH  31  33
ATOM     33  O   UNL     1       5.671   3.656  19.151  0.00  0.00    +0.000 OA
ATOM     34  H   UNL     1       6.306   4.135  18.590  0.00  0.00    +0.000 HD
ENDBRANCH  31  33
ENDBRANCH  30  31
ENDBRANCH   1  29
TORSDOF 8
ENDMDL
MODEL 9
REMARK VINA RESULT:      -7.8      5.933     11.619
REMARK  Name = 
REMARK  9 active torsions:
REMARK  status: ('A' for Active; 'I' for Inactive)
REMARK    1  A    between atoms: C_1  and  C_2
REMARK    2  A    between atoms: C_2  and  C_7
REMARK    3  A    between atoms: C_3  and  C_4
REMARK    4  A    between atoms: C_4  and  O_6
REMARK    5  A    between atoms: C_10  and  N_11
REMARK    6  A    between atoms: C_17  and  N_18
REMARK    7  A    between atoms: C_20  and  C_21
REMARK    8  A    between atoms: C_21  and  N_22
REMARK    9  A    between atoms: N_22  and  C_23
REMARK                            x       y       z     vdW  Elec       q    Type
REMARK                         _______ _______ _______ _____ _____    ______ ____
ROOT
ATOM      1  C   UNL     1       2.277   7.314  19.294  0.00  0.00    +0.000 A 
ATOM      2  C   UNL     1       2.301   7.948  18.059  0.00  0.00    +0.000 A 
ATOM      3  C   UNL     1       1.756   9.237  17.912  0.00  0.00    +0.000 A 
ATOM      4  C   UNL     1       1.160   9.964  18.972  0.00  0.00    +0.000 A 
ATOM      5  C   UNL     1       1.132   9.282  20.218  0.00  0.00    +0.000 A 
ATOM      6  C   UNL     1       1.701   7.990  20.368  0.00  0.00    +0.000 A 
ENDROOT
BRANCH   4   7
ATOM      7  N   UNL     1       0.798  11.282  18.737  0.00  0.00    +0.000 N 
ATOM      8  C   UNL     1       1.719  12.426  18.920  0.00  0.00    +0.000 C 
ATOM      9  C   UNL     1       1.006  13.569  19.673  0.00  0.00    +0.000 C 
ATOM     10  O   UNL     1      -0.232  13.950  19.049  0.00  0.00    +0.000 OA
ATOM     11  C   UNL     1      -1.111  12.821  18.969  0.00  0.00    +0.000 C 
ATOM     12  C   UNL     1      -0.487  11.694  18.140  0.00  0.00    +0.000 C 
ENDBRANCH   4   7
BRANCH   5  13
ATOM     13  N   UNL     1       0.541   9.817  21.389  0.00  0.00    +0.000 N 
ATOM     14  C   UNL     1      -0.527  10.687  21.443  0.00  0.00    +0.000 A 
ATOM     15  C   UNL     1      -0.873  10.733  22.773  0.00  0.00    +0.000 A 
ATOM     16  N   UNL     1       0.054  10.039  23.499  0.00  0.00    +0.000 NA
ATOM     17  N   UNL     1       0.940   9.532  22.651  0.00  0.00    +0.000 NA
BRANCH  15  18
ATOM     18  C   UNL     1      -2.016  11.436  23.420  0.00  0.00    +0.000 C 
BRANCH  18  19
ATOM     19  N   UNL     1      -2.426  12.640  22.702  0.00  0.00    +0.000 N 
ATOM     20  H   UNL     1      -1.657  12.975  22.125  0.00  0.00    +0.000 HD
BRANCH  19  21
ATOM     21  C   UNL     1      -3.034  13.684  23.402  0.00  0.00    +0.000 A 
ATOM     22  C   UNL     1      -2.254  14.411  24.311  0.00  0.00    +0.000 A 
ATOM     23  C   UNL     1      -2.773  15.510  24.996  0.00  0.00    +0.000 A 
ATOM     24  C   UNL     1      -4.075  15.911  24.743  0.00  0.00    +0.000 A 
ATOM     25  F   UNL     1      -4.578  16.968  25.394  0.00  0.00    +0.000 F 
ATOM     26  C   UNL     1      -4.859  15.242  23.817  0.00  0.00    +0.000 A 
ATOM     27  C   UNL     1      -4.336  14.136  23.136  0.00  0.00    +0.000 A 
ENDBRANCH  19  21
ENDBRANCH  18  19
ENDBRANCH  15  18
ENDBRANCH   5  13
BRANCH   1  29
ATOM     28  C   UNL     1       2.098   5.128  20.525  0.00  0.00    +0.000 C 
ATOM     29  C   UNL     1       2.806   5.946  19.480  0.00  0.00    +0.000 C 
ATOM     30  C   UNL     1       3.821   5.558  18.683  0.00  0.00    +0.000 C 
BRANCH  30  31
ATOM     31  C   UNL     1       4.486   4.234  18.731  0.00  0.00    +0.000 C 
ATOM     32  O   UNL     1       5.433   3.942  19.435  0.00  0.00    +0.000 OA
BRANCH  31  33
ATOM     33  O   UNL     1       3.920   3.360  17.872  0.00  0.00    +0.000 OA
ATOM     34  H   UNL     1       3.043   3.021  18.125  0.00  0.00    +0.000 HD
ENDBRANCH  31  33
ENDBRANCH  30  31
ENDBRANCH   1  29
TORSDOF 8
ENDMDL
