MODEL 1
REMARK VINA RESULT:      -8.3      0.000      0.000
REMARK  Name = 
REMARK  6 active torsions:
REMARK  status: ('A' for Active; 'I' for Inactive)
REMARK    1  A    between atoms: C_2  and  O_3
REMARK    2  A    between atoms: C_2  and  C_4
REMARK    3  A    between atoms: C_8  and  C_9
REMARK    4  A    between atoms: C_9  and  O_10
REMARK    5  A    between atoms: O_10  and  C_11
REMARK    6  A    between atoms: C_17  and  C_18
REMARK                            x       y       z     vdW  Elec       q    Type
REMARK                         _______ _______ _______ _____ _____    ______ ____
ROOT
ATOM      1  O   UNL     1       2.592   3.701  17.416  0.00  0.00    +0.000 OA
ENDROOT
BRANCH   1   2
ATOM      2  C   UNL     1       2.360   4.741  18.283  0.00  0.00    +0.000 A 
ATOM      3  C   UNL     1       2.621   6.078  17.943  0.00  0.00    +0.000 A 
ATOM      4  C   UNL     1       2.405   7.112  18.857  0.00  0.00    +0.000 A 
ATOM      5  C   UNL     1       1.901   6.821  20.115  0.00  0.00    +0.000 A 
ATOM      6 CL   UNL     1       1.666   8.085  21.254  0.00  0.00    +0.000 Cl
ATOM      7  C   UNL     1       1.588   5.507  20.453  0.00  0.00    +0.000 A 
ATOM      8  C   UNL     1       1.805   4.448  19.537  0.00  0.00    +0.000 A 
BRANCH   8   9
ATOM      9  C   UNL     1       1.440   3.060  20.002  0.00  0.00    +0.000 C 
ATOM     10  F   UNL     1       2.468   2.181  20.140  0.00  0.00    +0.000 F 
ATOM     11  F   UNL     1       0.814   3.086  21.216  0.00  0.00    +0.000 F 
ATOM     12  F   UNL     1       0.551   2.459  19.157  0.00  0.00    +0.000 F 
ENDBRANCH   8   9
ENDBRANCH   1   2
BRANCH   1  13
ATOM     13  C   UNL     1       3.900   3.118  17.497  0.00  0.00    +0.000 C 
BRANCH  13  18
ATOM     14  C   UNL     1       6.906   5.432  18.083  0.00  0.00    +0.000 A 
ATOM     15  C   UNL     1       7.208   5.805  16.767  0.00  0.00    +0.000 A 
ATOM     16  C   UNL     1       6.408   5.357  15.720  0.00  0.00    +0.000 A 
ATOM     17  C   UNL     1       5.323   4.521  15.984  0.00  0.00    +0.000 A 
ATOM     18  C   UNL     1       5.026   4.110  17.298  0.00  0.00    +0.000 A 
ATOM     19  C   UNL     1       5.830   4.573  18.346  0.00  0.00    +0.000 A 
BRANCH  14  21
ATOM     20  O   UNL     1       7.780   5.305  20.293  0.00  0.00    +0.000 OA
ATOM     21  C   UNL     1       7.743   5.882  19.220  0.00  0.00    +0.000 C 
BRANCH  21  22
ATOM     22  O   UNL     1       8.435   7.013  18.959  0.00  0.00    +0.000 OA
ATOM     23  H   UNL     1       8.077   7.545  18.224  0.00  0.00    +0.000 HD
ENDBRANCH  21  22
ENDBRANCH  14  21
ENDBRANCH  13  18
ENDBRANCH   1  13
TORSDOF 6
ENDMDL
MODEL 2
REMARK VINA RESULT:      -8.1      0.202      1.070
REMARK  Name = 
REMARK  6 active torsions:
REMARK  status: ('A' for Active; 'I' for Inactive)
REMARK    1  A    between atoms: C_2  and  O_3
REMARK    2  A    between atoms: C_2  and  C_4
REMARK    3  A    between atoms: C_8  and  C_9
REMARK    4  A    between atoms: C_9  and  O_10
REMARK    5  A    between atoms: O_10  and  C_11
REMARK    6  A    between atoms: C_17  and  C_18
REMARK                            x       y       z     vdW  Elec       q    Type
REMARK                         _______ _______ _______ _____ _____    ______ ____
ROOT
ATOM      1  O   UNL     1       2.602   3.683  17.634  0.00  0.00    +0.000 OA
ENDROOT
BRANCH   1   2
ATOM      2  C   UNL     1       2.345   4.739  18.474  0.00  0.00    +0.000 A 
ATOM      3  C   UNL     1       2.598   6.072  18.107  0.00  0.00    +0.000 A 
ATOM      4  C   UNL     1       2.357   7.123  18.995  0.00  0.00    +0.000 A 
ATOM      5  C   UNL     1       1.838   6.856  20.252  0.00  0.00    +0.000 A 
ATOM      6 CL   UNL     1       1.573   8.143  21.358  0.00  0.00    +0.000 Cl
ATOM      7  C   UNL     1       1.535   5.547  20.614  0.00  0.00    +0.000 A 
ATOM      8  C   UNL     1       1.776   4.469  19.727  0.00  0.00    +0.000 A 
BRANCH   8   9
ATOM      9  C   UNL     1       1.420   3.089  20.218  0.00  0.00    +0.000 C 
ATOM     10  F   UNL     1       0.829   3.016  21.441  0.00  0.00    +0.000 F 
ATOM     11  F   UNL     1       0.564   2.456  19.360  0.00  0.00    +0.000 F 
ATOM     12  F   UNL     1       2.516   2.276  20.289  0.00  0.00    +0.000 F 
ENDBRANCH   8   9
ENDBRANCH   1   2
BRANCH   1  13
ATOM     13  C   UNL     1       3.925   3.138  17.724  0.00  0.00    +0.000 C 
BRANCH  13  18
ATOM     14  C   UNL     1       6.895   5.561  17.926  0.00  0.00    +0.000 A 
ATOM     15  C   UNL     1       7.139   5.789  16.565  0.00  0.00    +0.000 A 
ATOM     16  C   UNL     1       6.310   5.209  15.607  0.00  0.00    +0.000 A 
ATOM     17  C   UNL     1       5.257   4.387  16.007  0.00  0.00    +0.000 A 
ATOM     18  C   UNL     1       5.019   4.122  17.370  0.00  0.00    +0.000 A 
ATOM     19  C   UNL     1       5.850   4.717  18.326  0.00  0.00    +0.000 A 
BRANCH  14  21
ATOM     20  O   UNL     1       8.413   7.170  18.802  0.00  0.00    +0.000 OA
ATOM     21  C   UNL     1       7.763   6.154  18.970  0.00  0.00    +0.000 C 
BRANCH  21  22
ATOM     22  O   UNL     1       7.785   5.437  20.115  0.00  0.00    +0.000 OA
ATOM     23  H   UNL     1       8.671   5.126  20.380  0.00  0.00    +0.000 HD
ENDBRANCH  21  22
ENDBRANCH  14  21
ENDBRANCH  13  18
ENDBRANCH   1  13
TORSDOF 6
ENDMDL
MODEL 3
REMARK VINA RESULT:      -8.1      2.672      3.623
REMARK  Name = 
REMARK  6 active torsions:
REMARK  status: ('A' for Active; 'I' for Inactive)
REMARK    1  A    between atoms: C_2  and  O_3
REMARK    2  A    between atoms: C_2  and  C_4
REMARK    3  A    between atoms: C_8  and  C_9
REMARK    4  A    between atoms: C_9  and  O_10
REMARK    5  A    between atoms: O_10  and  C_11
REMARK    6  A    between atoms: C_17  and  C_18
REMARK                            x       y       z     vdW  Elec       q    Type
REMARK                         _______ _______ _______ _____ _____    ______ ____
ROOT
ATOM      1  O   UNL     1       2.655   5.834  17.728  0.00  0.00    +0.000 OA
ENDROOT
BRANCH   1   2
ATOM      2  C   UNL     1       2.332   5.033  18.795  0.00  0.00    +0.000 A 
ATOM      3  C   UNL     1       1.873   5.553  20.016  0.00  0.00    +0.000 A 
ATOM      4  C   UNL     1       1.583   4.716  21.096  0.00  0.00    +0.000 A 
ATOM      5  C   UNL     1       1.727   3.344  20.958  0.00  0.00    +0.000 A 
ATOM      6 CL   UNL     1       1.404   2.313  22.294  0.00  0.00    +0.000 Cl
ATOM      7  C   UNL     1       2.133   2.806  19.740  0.00  0.00    +0.000 A 
ATOM      8  C   UNL     1       2.433   3.642  18.637  0.00  0.00    +0.000 A 
BRANCH   8   9
ATOM      9  C   UNL     1       2.872   2.962  17.365  0.00  0.00    +0.000 C 
ATOM     10  F   UNL     1       2.555   3.593  16.203  0.00  0.00    +0.000 F 
ATOM     11  F   UNL     1       4.227   2.789  17.331  0.00  0.00    +0.000 F 
ATOM     12  F   UNL     1       2.351   1.704  17.256  0.00  0.00    +0.000 F 
ENDBRANCH   8   9
ENDBRANCH   1   2
BRANCH   1  13
ATOM     13  C   UNL     1       3.848   6.615  17.887  0.00  0.00    +0.000 C 
BRANCH  13  18
ATOM     14  C   UNL     1       6.702   4.975  15.914  0.00  0.00    +0.000 A 
ATOM     15  C   UNL     1       7.595   4.672  16.950  0.00  0.00    +0.000 A 
ATOM     16  C   UNL     1       7.242   4.945  18.269  0.00  0.00    +0.000 A 
ATOM     17  C   UNL     1       6.011   5.538  18.550  0.00  0.00    +0.000 A 
ATOM     18  C   UNL     1       5.117   5.878  17.516  0.00  0.00    +0.000 A 
ATOM     19  C   UNL     1       5.475   5.592  16.194  0.00  0.00    +0.000 A 
BRANCH  14  21
ATOM     20  O   UNL     1       7.777   5.432  13.841  0.00  0.00    +0.000 OA
ATOM     21  C   UNL     1       7.050   4.708  14.499  0.00  0.00    +0.000 C 
BRANCH  21  22
ATOM     22  O   UNL     1       6.456   3.601  14.002  0.00  0.00    +0.000 OA
ATOM     23  H   UNL     1       5.555   3.441  14.340  0.00  0.00    +0.000 HD
ENDBRANCH  21  22
ENDBRANCH  14  21
ENDBRANCH  13  18
ENDBRANCH   1  13
TORSDOF 6
ENDMDL
MODEL 4
REMARK VINA RESULT:      -7.9      1.773      2.445
REMARK  Name = 
REMARK  6 active torsions:
REMARK  status: ('A' for Active; 'I' for Inactive)
REMARK    1  A    between atoms: C_2  and  O_3
REMARK    2  A    between atoms: C_2  and  C_4
REMARK    3  A    between atoms: C_8  and  C_9
REMARK    4  A    between atoms: C_9  and  O_10
REMARK    5  A    between atoms: O_10  and  C_11
REMARK    6  A    between atoms: C_17  and  C_18
REMARK                            x       y       z     vdW  Elec       q    Type
REMARK                         _______ _______ _______ _____ _____    ______ ____
ROOT
ATOM      1  O   UNL     1       2.572   3.841  17.516  0.00  0.00    +0.000 OA
ENDROOT
BRANCH   1   2
ATOM      2  C   UNL     1       2.330   4.865  18.398  0.00  0.00    +0.000 A 
ATOM      3  C   UNL     1       2.618   6.205  18.093  0.00  0.00    +0.000 A 
ATOM      4  C   UNL     1       2.392   7.222  19.023  0.00  0.00    +0.000 A 
ATOM      5  C   UNL     1       1.851   6.913  20.261  0.00  0.00    +0.000 A 
ATOM      6 CL   UNL     1       1.603   8.156  21.421  0.00  0.00    +0.000 Cl
ATOM      7  C   UNL     1       1.513   5.597  20.563  0.00  0.00    +0.000 A 
ATOM      8  C   UNL     1       1.740   4.554  19.632  0.00  0.00    +0.000 A 
BRANCH   8   9
ATOM      9  C   UNL     1       1.346   3.162  20.058  0.00  0.00    +0.000 C 
ATOM     10  F   UNL     1       2.353   2.254  20.158  0.00  0.00    +0.000 F 
ATOM     11  F   UNL     1       0.732   3.166  21.279  0.00  0.00    +0.000 F 
ATOM     12  F   UNL     1       0.434   2.608  19.204  0.00  0.00    +0.000 F 
ENDBRANCH   8   9
ENDBRANCH   1   2
BRANCH   1  13
ATOM     13  C   UNL     1       3.770   3.091  17.761  0.00  0.00    +0.000 C 
BRANCH  13  18
ATOM     14  C   UNL     1       6.569   4.614  15.622  0.00  0.00    +0.000 A 
ATOM     15  C   UNL     1       7.306   5.293  16.602  0.00  0.00    +0.000 A 
ATOM     16  C   UNL     1       6.927   5.203  17.939  0.00  0.00    +0.000 A 
ATOM     17  C   UNL     1       5.804   4.455  18.293  0.00  0.00    +0.000 A 
ATOM     18  C   UNL     1       5.034   3.794  17.316  0.00  0.00    +0.000 A 
ATOM     19  C   UNL     1       5.427   3.882  15.976  0.00  0.00    +0.000 A 
BRANCH  14  21
ATOM     20  O   UNL     1       6.450   3.984  13.331  0.00  0.00    +0.000 OA
ATOM     21  C   UNL     1       6.938   4.697  14.190  0.00  0.00    +0.000 C 
BRANCH  21  22
ATOM     22  O   UNL     1       7.892   5.620  13.937  0.00  0.00    +0.000 OA
ATOM     23  H   UNL     1       8.621   5.302  13.373  0.00  0.00    +0.000 HD
ENDBRANCH  21  22
ENDBRANCH  14  21
ENDBRANCH  13  18
ENDBRANCH   1  13
TORSDOF 6
ENDMDL
MODEL 5
REMARK VINA RESULT:      -7.8      3.636      5.936
REMARK  Name = 
REMARK  6 active torsions:
REMARK  status: ('A' for Active; 'I' for Inactive)
REMARK    1  A    between atoms: C_2  and  O_3
REMARK    2  A    between atoms: C_2  and  C_4
REMARK    3  A    between atoms: C_8  and  C_9
REMARK    4  A    between atoms: C_9  and  O_10
REMARK    5  A    between atoms: O_10  and  C_11
REMARK    6  A    between atoms: C_17  and  C_18
REMARK                            x       y       z     vdW  Elec       q    Type
REMARK                         _______ _______ _______ _____ _____    ______ ____
ROOT
ATOM      1  O   UNL     1       4.812   3.349  17.099  0.00  0.00    +0.000 OA
ENDROOT
BRANCH   1   2
ATOM      2  C   UNL     1       5.677   4.353  17.458  0.00  0.00    +0.000 A 
ATOM      3  C   UNL     1       5.914   4.700  18.798  0.00  0.00    +0.000 A 
ATOM      4  C   UNL     1       6.775   5.748  19.131  0.00  0.00    +0.000 A 
ATOM      5  C   UNL     1       7.428   6.446  18.127  0.00  0.00    +0.000 A 
ATOM      6 CL   UNL     1       8.461   7.758  18.532  0.00  0.00    +0.000 Cl
ATOM      7  C   UNL     1       7.244   6.085  16.796  0.00  0.00    +0.000 A 
ATOM      8  C   UNL     1       6.372   5.026  16.442  0.00  0.00    +0.000 A 
BRANCH   8   9
ATOM      9  C   UNL     1       6.235   4.718  14.972  0.00  0.00    +0.000 C 
ATOM     10  F   UNL     1       6.204   3.402  14.632  0.00  0.00    +0.000 F 
ATOM     11  F   UNL     1       5.094   5.259  14.450  0.00  0.00    +0.000 F 
ATOM     12  F   UNL     1       7.253   5.264  14.242  0.00  0.00    +0.000 F 
ENDBRANCH   8   9
ENDBRANCH   1   2
BRANCH   1  13
ATOM     13  C   UNL     1       3.437   3.740  16.976  0.00  0.00    +0.000 C 
BRANCH  13  18
ATOM     14  C   UNL     1       2.128   3.721  20.585  0.00  0.00    +0.000 A 
ATOM     15  C   UNL     1       1.756   5.064  20.734  0.00  0.00    +0.000 A 
ATOM     16  C   UNL     1       1.876   5.939  19.657  0.00  0.00    +0.000 A 
ATOM     17  C   UNL     1       2.386   5.479  18.443  0.00  0.00    +0.000 A 
ATOM     18  C   UNL     1       2.795   4.140  18.287  0.00  0.00    +0.000 A 
ATOM     19  C   UNL     1       2.662   3.266  19.371  0.00  0.00    +0.000 A 
BRANCH  14  21
ATOM     20  O   UNL     1       0.993   2.573  22.332  0.00  0.00    +0.000 OA
ATOM     21  C   UNL     1       2.024   2.766  21.712  0.00  0.00    +0.000 C 
BRANCH  21  22
ATOM     22  O   UNL     1       3.193   2.155  22.004  0.00  0.00    +0.000 OA
ATOM     23  H   UNL     1       3.879   2.246  21.316  0.00  0.00    +0.000 HD
ENDBRANCH  21  22
ENDBRANCH  14  21
ENDBRANCH  13  18
ENDBRANCH   1  13
TORSDOF 6
ENDMDL
MODEL 6
REMARK VINA RESULT:      -7.7      0.705      1.021
REMARK  Name = 
REMARK  6 active torsions:
REMARK  status: ('A' for Active; 'I' for Inactive)
REMARK    1  A    between atoms: C_2  and  O_3
REMARK    2  A    between atoms: C_2  and  C_4
REMARK    3  A    between atoms: C_8  and  C_9
REMARK    4  A    between atoms: C_9  and  O_10
REMARK    5  A    between atoms: O_10  and  C_11
REMARK    6  A    between atoms: C_17  and  C_18
REMARK                            x       y       z     vdW  Elec       q    Type
REMARK                         _______ _______ _______ _____ _____    ______ ____
ROOT
ATOM      1  O   UNL     1       2.666   4.031  17.556  0.00  0.00    +0.000 OA
ENDROOT
BRANCH   1   2
ATOM      2  C   UNL     1       2.361   5.029  18.448  0.00  0.00    +0.000 A 
ATOM      3  C   UNL     1       2.587   6.387  18.166  0.00  0.00    +0.000 A 
ATOM      4  C   UNL     1       2.296   7.378  19.107  0.00  0.00    +0.000 A 
ATOM      5  C   UNL     1       1.753   7.023  20.332  0.00  0.00    +0.000 A 
ATOM      6 CL   UNL     1       1.425   8.236  21.504  0.00  0.00    +0.000 Cl
ATOM      7  C   UNL     1       1.475   5.688  20.610  0.00  0.00    +0.000 A 
ATOM      8  C   UNL     1       1.767   4.671  19.668  0.00  0.00    +0.000 A 
BRANCH   8   9
ATOM      9  C   UNL     1       1.436   3.255  20.068  0.00  0.00    +0.000 C 
ATOM     10  F   UNL     1       2.486   2.400  20.182  0.00  0.00    +0.000 F 
ATOM     11  F   UNL     1       0.794   3.212  21.273  0.00  0.00    +0.000 F 
ATOM     12  F   UNL     1       0.575   2.667  19.186  0.00  0.00    +0.000 F 
ENDBRANCH   8   9
ENDBRANCH   1   2
BRANCH   1  13
ATOM     13  C   UNL     1       3.952   3.421  17.737  0.00  0.00    +0.000 C 
BRANCH  13  18
ATOM     14  C   UNL     1       6.910   5.804  17.185  0.00  0.00    +0.000 A 
ATOM     15  C   UNL     1       7.310   5.428  15.896  0.00  0.00    +0.000 A 
ATOM     16  C   UNL     1       6.589   4.460  15.202  0.00  0.00    +0.000 A 
ATOM     17  C   UNL     1       5.487   3.853  15.803  0.00  0.00    +0.000 A 
ATOM     18  C   UNL     1       5.091   4.196  17.111  0.00  0.00    +0.000 A 
ATOM     19  C   UNL     1       5.815   5.177  17.797  0.00  0.00    +0.000 A 
BRANCH  14  21
ATOM     20  O   UNL     1       7.812   7.971  17.575  0.00  0.00    +0.000 OA
ATOM     21  C   UNL     1       7.660   6.823  17.955  0.00  0.00    +0.000 C 
BRANCH  21  22
ATOM     22  O   UNL     1       8.185   6.345  19.105  0.00  0.00    +0.000 OA
ATOM     23  H   UNL     1       8.037   6.913  19.883  0.00  0.00    +0.000 HD
ENDBRANCH  21  22
ENDBRANCH  14  21
ENDBRANCH  13  18
ENDBRANCH   1  13
TORSDOF 6
ENDMDL
MODEL 7
REMARK VINA RESULT:      -7.7      2.954      4.391
REMARK  Name = 
REMARK  6 active torsions:
REMARK  status: ('A' for Active; 'I' for Inactive)
REMARK    1  A    between atoms: C_2  and  O_3
REMARK    2  A    between atoms: C_2  and  C_4
REMARK    3  A    between atoms: C_8  and  C_9
REMARK    4  A    between atoms: C_9  and  O_10
REMARK    5  A    between atoms: O_10  and  C_11
REMARK    6  A    between atoms: C_17  and  C_18
REMARK                            x       y       z     vdW  Elec       q    Type
REMARK                         _______ _______ _______ _____ _____    ______ ____
ROOT
ATOM      1  O   UNL     1       4.481   4.186  16.488  0.00  0.00    +0.000 OA
ENDROOT
BRANCH   1   2
ATOM      2  C   UNL     1       3.782   4.868  17.453  0.00  0.00    +0.000 A 
ATOM      3  C   UNL     1       3.813   6.268  17.560  0.00  0.00    +0.000 A 
ATOM      4  C   UNL     1       3.118   6.932  18.573  0.00  0.00    +0.000 A 
ATOM      5  C   UNL     1       2.362   6.203  19.477  0.00  0.00    +0.000 A 
ATOM      6 CL   UNL     1       1.532   7.013  20.745  0.00  0.00    +0.000 Cl
ATOM      7  C   UNL     1       2.278   4.819  19.358  0.00  0.00    +0.000 A 
ATOM      8  C   UNL     1       2.980   4.131  18.338  0.00  0.00    +0.000 A 
BRANCH   8   9
ATOM      9  C   UNL     1       2.829   2.631  18.299  0.00  0.00    +0.000 C 
ATOM     10  F   UNL     1       3.952   1.905  18.546  0.00  0.00    +0.000 F 
ATOM     11  F   UNL     1       1.904   2.196  19.206  0.00  0.00    +0.000 F 
ATOM     12  F   UNL     1       2.370   2.198  17.087  0.00  0.00    +0.000 F 
ENDBRANCH   8   9
ENDBRANCH   1   2
BRANCH   1  13
ATOM     13  C   UNL     1       5.789   4.701  16.201  0.00  0.00    +0.000 C 
BRANCH  13  18
ATOM     14  C   UNL     1       5.993   3.498  12.562  0.00  0.00    +0.000 A 
ATOM     15  C   UNL     1       7.072   4.262  12.095  0.00  0.00    +0.000 A 
ATOM     16  C   UNL     1       7.752   5.105  12.970  0.00  0.00    +0.000 A 
ATOM     17  C   UNL     1       7.343   5.201  14.300  0.00  0.00    +0.000 A 
ATOM     18  C   UNL     1       6.241   4.465  14.776  0.00  0.00    +0.000 A 
ATOM     19  C   UNL     1       5.568   3.613  13.892  0.00  0.00    +0.000 A 
BRANCH  14  21
ATOM     20  O   UNL     1       4.165   2.893  11.165  0.00  0.00    +0.000 OA
ATOM     21  C   UNL     1       5.241   2.600  11.656  0.00  0.00    +0.000 C 
BRANCH  21  22
ATOM     22  O   UNL     1       5.851   1.411  11.455  0.00  0.00    +0.000 OA
ATOM     23  H   UNL     1       5.744   1.049  10.556  0.00  0.00    +0.000 HD
ENDBRANCH  21  22
ENDBRANCH  14  21
ENDBRANCH  13  18
ENDBRANCH   1  13
TORSDOF 6
ENDMDL
MODEL 8
REMARK VINA RESULT:      -7.5      3.073      4.555
REMARK  Name = 
REMARK  6 active torsions:
REMARK  status: ('A' for Active; 'I' for Inactive)
REMARK    1  A    between atoms: C_2  and  O_3
REMARK    2  A    between atoms: C_2  and  C_4
REMARK    3  A    between atoms: C_8  and  C_9
REMARK    4  A    between atoms: C_9  and  O_10
REMARK    5  A    between atoms: O_10  and  C_11
REMARK    6  A    between atoms: C_17  and  C_18
REMARK                            x       y       z     vdW  Elec       q    Type
REMARK                         _______ _______ _______ _____ _____    ______ ____
ROOT
ATOM      1  O   UNL     1       5.072   4.146  16.555  0.00  0.00    +0.000 OA
ENDROOT
BRANCH   1   2
ATOM      2  C   UNL     1       4.310   5.110  17.168  0.00  0.00    +0.000 A 
ATOM      3  C   UNL     1       4.561   6.483  17.009  0.00  0.00    +0.000 A 
ATOM      4  C   UNL     1       3.789   7.441  17.671  0.00  0.00    +0.000 A 
ATOM      5  C   UNL     1       2.741   7.036  18.482  0.00  0.00    +0.000 A 
ATOM      6 CL   UNL     1       1.810   8.209  19.325  0.00  0.00    +0.000 Cl
ATOM      7  C   UNL     1       2.445   5.682  18.612  0.00  0.00    +0.000 A 
ATOM      8  C   UNL     1       3.220   4.699  17.950  0.00  0.00    +0.000 A 
BRANCH   8   9
ATOM      9  C   UNL     1       2.823   3.260  18.162  0.00  0.00    +0.000 C 
ATOM     10  F   UNL     1       2.588   2.527  17.041  0.00  0.00    +0.000 F 
ATOM     11  F   UNL     1       3.779   2.573  18.856  0.00  0.00    +0.000 F 
ATOM     12  F   UNL     1       1.689   3.152  18.918  0.00  0.00    +0.000 F 
ENDBRANCH   8   9
ENDBRANCH   1   2
BRANCH   1  13
ATOM     13  C   UNL     1       6.388   4.563  16.164  0.00  0.00    +0.000 C 
BRANCH  13  18
ATOM     14  C   UNL     1       6.194   3.509  12.478  0.00  0.00    +0.000 A 
ATOM     15  C   UNL     1       7.146   4.367  11.912  0.00  0.00    +0.000 A 
ATOM     16  C   UNL     1       7.875   5.227  12.729  0.00  0.00    +0.000 A 
ATOM     17  C   UNL     1       7.639   5.245  14.103  0.00  0.00    +0.000 A 
ATOM     18  C   UNL     1       6.663   4.412  14.684  0.00  0.00    +0.000 A 
ATOM     19  C   UNL     1       5.941   3.544  13.857  0.00  0.00    +0.000 A 
BRANCH  14  21
ATOM     20  O   UNL     1       5.789   1.493  11.281  0.00  0.00    +0.000 OA
ATOM     21  C   UNL     1       5.393   2.589  11.638  0.00  0.00    +0.000 C 
BRANCH  21  22
ATOM     22  O   UNL     1       4.195   3.100  11.279  0.00  0.00    +0.000 OA
ATOM     23  H   UNL     1       3.499   2.433  11.131  0.00  0.00    +0.000 HD
ENDBRANCH  21  22
ENDBRANCH  14  21
ENDBRANCH  13  18
ENDBRANCH   1  13
TORSDOF 6
ENDMDL
MODEL 9
REMARK VINA RESULT:      -7.5      3.530      6.410
REMARK  Name = 
REMARK  6 active torsions:
REMARK  status: ('A' for Active; 'I' for Inactive)
REMARK    1  A    between atoms: C_2  and  O_3
REMARK    2  A    between atoms: C_2  and  C_4
REMARK    3  A    between atoms: C_8  and  C_9
REMARK    4  A    between atoms: C_9  and  O_10
REMARK    5  A    between atoms: O_10  and  C_11
REMARK    6  A    between atoms: C_17  and  C_18
REMARK                            x       y       z     vdW  Elec       q    Type
REMARK                         _______ _______ _______ _____ _____    ______ ____
ROOT
ATOM      1  O   UNL     1       4.954   7.104  17.819  0.00  0.00    +0.000 OA
ENDROOT
BRANCH   1   2
ATOM      2  C   UNL     1       5.433   6.370  16.763  0.00  0.00    +0.000 A 
ATOM      3  C   UNL     1       4.868   6.438  15.479  0.00  0.00    +0.000 A 
ATOM      4  C   UNL     1       5.356   5.654  14.431  0.00  0.00    +0.000 A 
ATOM      5  C   UNL     1       6.433   4.809  14.650  0.00  0.00    +0.000 A 
ATOM      6 CL   UNL     1       7.015   3.818  13.373  0.00  0.00    +0.000 Cl
ATOM      7  C   UNL     1       7.039   4.765  15.902  0.00  0.00    +0.000 A 
ATOM      8  C   UNL     1       6.553   5.552  16.976  0.00  0.00    +0.000 A 
BRANCH   8   9
ATOM      9  C   UNL     1       7.274   5.426  18.294  0.00  0.00    +0.000 C 
ATOM     10  F   UNL     1       6.501   5.166  19.382  0.00  0.00    +0.000 F 
ATOM     11  F   UNL     1       8.209   4.430  18.262  0.00  0.00    +0.000 F 
ATOM     12  F   UNL     1       7.974   6.559  18.601  0.00  0.00    +0.000 F 
ENDBRANCH   8   9
ENDBRANCH   1   2
BRANCH   1  13
ATOM     13  C   UNL     1       3.538   7.334  17.813  0.00  0.00    +0.000 C 
BRANCH  13  18
ATOM     14  C   UNL     1       1.762   4.080  18.809  0.00  0.00    +0.000 A 
ATOM     15  C   UNL     1       1.431   4.361  20.141  0.00  0.00    +0.000 A 
ATOM     16  C   UNL     1       1.730   5.610  20.679  0.00  0.00    +0.000 A 
ATOM     17  C   UNL     1       2.376   6.566  19.896  0.00  0.00    +0.000 A 
ATOM     18  C   UNL     1       2.745   6.287  18.566  0.00  0.00    +0.000 A 
ATOM     19  C   UNL     1       2.433   5.033  18.030  0.00  0.00    +0.000 A 
BRANCH  14  21
ATOM     20  O   UNL     1       2.235   2.180  17.457  0.00  0.00    +0.000 OA
ATOM     21  C   UNL     1       1.469   2.758  18.208  0.00  0.00    +0.000 C 
BRANCH  21  22
ATOM     22  O   UNL     1       0.255   2.274  18.550  0.00  0.00    +0.000 OA
ATOM     23  H   UNL     1       0.102   2.209  19.511  0.00  0.00    +0.000 HD
ENDBRANCH  21  22
ENDBRANCH  14  21
ENDBRANCH  13  18
ENDBRANCH   1  13
TORSDOF 6
ENDMDL
