MODEL 1
REMARK VINA RESULT:      -7.4      0.000      0.000
REMARK  Name = 
REMARK  6 active torsions:
REMARK  status: ('A' for Active; 'I' for Inactive)
REMARK    1  A    between atoms: C_1  and  N_2
REMARK    2  A    between atoms: N_2  and  C_3
REMARK    3  A    between atoms: C_6  and  C_7
REMARK    4  A    between atoms: N_11  and  C_12
REMARK    5  A    between atoms: C_12  and  C_13
REMARK    6  A    between atoms: N_16  and  C_17
REMARK                            x       y       z     vdW  Elec       q    Type
REMARK                         _______ _______ _______ _____ _____    ______ ____
ROOT
ATOM      1  C   UNL     1       4.694   3.746  18.442  0.00  0.00    +0.000 C 
ATOM      2  C   UNL     1       3.699   2.848  17.689  0.00  0.00    +0.000 C 
ATOM      3  C   UNL     1       2.419   3.592  17.322  0.00  0.00    +0.000 C 
ATOM      4  C   UNL     1       1.791   4.271  18.538  0.00  0.00    +0.000 C 
ATOM      5  N   UNL     1       2.720   5.193  19.210  0.00  0.00    +0.000 NA
ATOM      6  C   UNL     1       3.974   4.503  19.588  0.00  0.00    +0.000 C 
ENDROOT
BRANCH   1  12
ATOM      7  C   UNL     1       5.694   3.795  13.233  0.00  0.00    +0.000 C 
ATOM      8  N   UNL     1       6.763   4.433  13.980  0.00  0.00    +0.000 N 
ATOM      9  C   UNL     1       7.859   5.052  13.257  0.00  0.00    +0.000 C 
ATOM     10  C   UNL     1       6.520   4.897  15.268  0.00  0.00    +0.000 A 
ATOM     11  C   UNL     1       5.635   4.226  16.114  0.00  0.00    +0.000 A 
ATOM     12  C   UNL     1       5.483   4.593  17.454  0.00  0.00    +0.000 A 
ATOM     13  C   UNL     1       6.186   5.712  17.901  0.00  0.00    +0.000 A 
ATOM     14  C   UNL     1       7.017   6.360  17.006  0.00  0.00    +0.000 A 
ATOM     15  N   UNL     1       7.208   5.969  15.726  0.00  0.00    +0.000 NA
ENDBRANCH   1  12
BRANCH   5  16
ATOM     16  C   UNL     1       2.127   5.816  20.412  0.00  0.00    +0.000 C 
BRANCH  16  17
ATOM     17  C   UNL     1       1.802   7.254  20.183  0.00  0.00    +0.000 A 
ATOM     18  C   UNL     1       1.990   8.022  19.010  0.00  0.00    +0.000 A 
ATOM     19  N   UNL     1       1.530   9.271  19.131  0.00  0.00    +0.000 NA
ATOM     20  N   UNL     1       1.028   9.302  20.378  0.00  0.00    +0.000 N 
ATOM     21  C   UNL     1       0.273  10.444  20.828  0.00  0.00    +0.000 C 
ATOM     22  C   UNL     1       1.226   8.143  21.071  0.00  0.00    +0.000 A 
ENDBRANCH  16  17
ENDBRANCH   5  16
TORSDOF 3
ENDMDL
MODEL 2
REMARK VINA RESULT:      -6.7      1.164      7.221
REMARK  Name = 
REMARK  6 active torsions:
REMARK  status: ('A' for Active; 'I' for Inactive)
REMARK    1  A    between atoms: C_1  and  N_2
REMARK    2  A    between atoms: N_2  and  C_3
REMARK    3  A    between atoms: C_6  and  C_7
REMARK    4  A    between atoms: N_11  and  C_12
REMARK    5  A    between atoms: C_12  and  C_13
REMARK    6  A    between atoms: N_16  and  C_17
REMARK                            x       y       z     vdW  Elec       q    Type
REMARK                         _______ _______ _______ _____ _____    ______ ____
ROOT
ATOM      1  C   UNL     1       2.156   5.124  18.929  0.00  0.00    +0.000 C 
ATOM      2  C   UNL     1       2.837   4.615  20.210  0.00  0.00    +0.000 C 
ATOM      3  C   UNL     1       4.357   4.601  20.083  0.00  0.00    +0.000 C 
ATOM      4  C   UNL     1       4.814   3.844  18.837  0.00  0.00    +0.000 C 
ATOM      5  N   UNL     1       4.224   4.385  17.603  0.00  0.00    +0.000 NA
ATOM      6  C   UNL     1       2.745   4.408  17.686  0.00  0.00    +0.000 C 
ENDROOT
BRANCH   1  12
ATOM      7  C   UNL     1       1.260   9.103  22.319  0.00  0.00    +0.000 C 
ATOM      8  N   UNL     1       0.992   9.507  20.950  0.00  0.00    +0.000 N 
ATOM      9  C   UNL     1       0.627  10.886  20.679  0.00  0.00    +0.000 C 
ATOM     10  C   UNL     1       1.547   8.787  19.899  0.00  0.00    +0.000 A 
ATOM     11  C   UNL     1       1.731   7.407  19.998  0.00  0.00    +0.000 A 
ATOM     12  C   UNL     1       2.157   6.645  18.906  0.00  0.00    +0.000 A 
ATOM     13  C   UNL     1       2.474   7.324  17.730  0.00  0.00    +0.000 A 
ATOM     14  C   UNL     1       2.309   8.697  17.704  0.00  0.00    +0.000 A 
ATOM     15  N   UNL     1       1.842   9.425  18.743  0.00  0.00    +0.000 NA
ENDBRANCH   1  12
BRANCH   5  16
ATOM     16  C   UNL     1       4.631   3.624  16.402  0.00  0.00    +0.000 C 
BRANCH  16  17
ATOM     17  C   UNL     1       5.693   4.336  15.634  0.00  0.00    +0.000 A 
ATOM     18  C   UNL     1       6.703   5.198  16.123  0.00  0.00    +0.000 A 
ATOM     19  N   UNL     1       7.532   5.619  15.162  0.00  0.00    +0.000 NA
ATOM     20  N   UNL     1       7.066   5.012  14.057  0.00  0.00    +0.000 N 
ATOM     21  C   UNL     1       7.810   5.079  12.824  0.00  0.00    +0.000 C 
ATOM     22  C   UNL     1       5.929   4.289  14.274  0.00  0.00    +0.000 A 
ENDBRANCH  16  17
ENDBRANCH   5  16
TORSDOF 3
ENDMDL
MODEL 3
REMARK VINA RESULT:      -6.6      2.583      7.639
REMARK  Name = 
REMARK  6 active torsions:
REMARK  status: ('A' for Active; 'I' for Inactive)
REMARK    1  A    between atoms: C_1  and  N_2
REMARK    2  A    between atoms: N_2  and  C_3
REMARK    3  A    between atoms: C_6  and  C_7
REMARK    4  A    between atoms: N_11  and  C_12
REMARK    5  A    between atoms: C_12  and  C_13
REMARK    6  A    between atoms: N_16  and  C_17
REMARK                            x       y       z     vdW  Elec       q    Type
REMARK                         _______ _______ _______ _____ _____    ______ ____
ROOT
ATOM      1  C   UNL     1       5.877   4.798  17.668  0.00  0.00    +0.000 C 
ATOM      2  C   UNL     1       5.490   6.281  17.552  0.00  0.00    +0.000 C 
ATOM      3  C   UNL     1       4.840   6.600  16.209  0.00  0.00    +0.000 C 
ATOM      4  C   UNL     1       5.699   6.125  15.038  0.00  0.00    +0.000 C 
ATOM      5  N   UNL     1       6.001   4.688  15.109  0.00  0.00    +0.000 NA
ATOM      6  C   UNL     1       6.641   4.341  16.399  0.00  0.00    +0.000 C 
ENDROOT
BRANCH   1  12
ATOM      7  C   UNL     1       1.770   5.218  20.999  0.00  0.00    +0.000 C 
ATOM      8  N   UNL     1       2.100   3.827  20.742  0.00  0.00    +0.000 N 
ATOM      9  C   UNL     1       1.264   2.786  21.312  0.00  0.00    +0.000 C 
ATOM     10  C   UNL     1       2.835   3.492  19.611  0.00  0.00    +0.000 A 
ATOM     11  C   UNL     1       3.821   4.350  19.120  0.00  0.00    +0.000 A 
ATOM     12  C   UNL     1       4.665   3.972  18.072  0.00  0.00    +0.000 A 
ATOM     13  C   UNL     1       4.434   2.734  17.472  0.00  0.00    +0.000 A 
ATOM     14  C   UNL     1       3.417   1.944  17.976  0.00  0.00    +0.000 A 
ATOM     15  N   UNL     1       2.640   2.287  19.028  0.00  0.00    +0.000 NA
ENDBRANCH   1  12
BRANCH   5  16
ATOM     16  C   UNL     1       6.870   4.238  14.000  0.00  0.00    +0.000 C 
BRANCH  16  17
ATOM     17  C   UNL     1       6.079   3.614  12.900  0.00  0.00    +0.000 A 
ATOM     18  C   UNL     1       6.344   2.414  12.199  0.00  0.00    +0.000 A 
ATOM     19  N   UNL     1       5.390   2.115  11.310  0.00  0.00    +0.000 NA
ATOM     20  N   UNL     1       4.502   3.114  11.453  0.00  0.00    +0.000 N 
ATOM     21  C   UNL     1       3.229   3.055  10.779  0.00  0.00    +0.000 C 
ATOM     22  C   UNL     1       4.900   4.070  12.341  0.00  0.00    +0.000 A 
ENDBRANCH  16  17
ENDBRANCH   5  16
TORSDOF 3
ENDMDL
MODEL 4
REMARK VINA RESULT:      -6.3      1.257      2.406
REMARK  Name = 
REMARK  6 active torsions:
REMARK  status: ('A' for Active; 'I' for Inactive)
REMARK    1  A    between atoms: C_1  and  N_2
REMARK    2  A    between atoms: N_2  and  C_3
REMARK    3  A    between atoms: C_6  and  C_7
REMARK    4  A    between atoms: N_11  and  C_12
REMARK    5  A    between atoms: C_12  and  C_13
REMARK    6  A    between atoms: N_16  and  C_17
REMARK                            x       y       z     vdW  Elec       q    Type
REMARK                         _______ _______ _______ _____ _____    ______ ____
ROOT
ATOM      1  C   UNL     1       4.148   3.227  18.591  0.00  0.00    +0.000 C 
ATOM      2  C   UNL     1       3.100   2.505  17.729  0.00  0.00    +0.000 C 
ATOM      3  C   UNL     1       1.905   3.399  17.412  0.00  0.00    +0.000 C 
ATOM      4  C   UNL     1       1.303   4.009  18.677  0.00  0.00    +0.000 C 
ATOM      5  N   UNL     1       2.290   4.769  19.458  0.00  0.00    +0.000 NA
ATOM      6  C   UNL     1       3.464   3.930  19.792  0.00  0.00    +0.000 C 
ENDROOT
BRANCH   1  12
ATOM      7  C   UNL     1       8.219   6.569  19.213  0.00  0.00    +0.000 C 
ATOM      8  N   UNL     1       7.463   6.879  18.012  0.00  0.00    +0.000 N 
ATOM      9  C   UNL     1       7.933   7.934  17.133  0.00  0.00    +0.000 C 
ATOM     10  C   UNL     1       6.644   5.908  17.446  0.00  0.00    +0.000 A 
ATOM     11  C   UNL     1       5.974   4.982  18.248  0.00  0.00    +0.000 A 
ATOM     12  C   UNL     1       5.041   4.090  17.712  0.00  0.00    +0.000 A 
ATOM     13  C   UNL     1       4.860   4.098  16.329  0.00  0.00    +0.000 A 
ATOM     14  C   UNL     1       5.581   5.012  15.582  0.00  0.00    +0.000 A 
ATOM     15  N   UNL     1       6.441   5.913  16.108  0.00  0.00    +0.000 NA
ENDBRANCH   1  12
BRANCH   5  16
ATOM     16  C   UNL     1       1.719   5.322  20.705  0.00  0.00    +0.000 C 
BRANCH  16  17
ATOM     17  C   UNL     1       1.534   6.799  20.617  0.00  0.00    +0.000 A 
ATOM     18  C   UNL     1       1.982   7.683  19.606  0.00  0.00    +0.000 A 
ATOM     19  N   UNL     1       1.588   8.944  19.812  0.00  0.00    +0.000 NA
ATOM     20  N   UNL     1       0.871   8.869  20.945  0.00  0.00    +0.000 N 
ATOM     21  C   UNL     1       0.121  10.011  21.407  0.00  0.00    +0.000 C 
ATOM     22  C   UNL     1       0.865   7.623  21.502  0.00  0.00    +0.000 A 
ENDBRANCH  16  17
ENDBRANCH   5  16
TORSDOF 3
ENDMDL
MODEL 5
REMARK VINA RESULT:      -6.3      1.236      6.971
REMARK  Name = 
REMARK  6 active torsions:
REMARK  status: ('A' for Active; 'I' for Inactive)
REMARK    1  A    between atoms: C_1  and  N_2
REMARK    2  A    between atoms: N_2  and  C_3
REMARK    3  A    between atoms: C_6  and  C_7
REMARK    4  A    between atoms: N_11  and  C_12
REMARK    5  A    between atoms: C_12  and  C_13
REMARK    6  A    between atoms: N_16  and  C_17
REMARK                            x       y       z     vdW  Elec       q    Type
REMARK                         _______ _______ _______ _____ _____    ______ ____
ROOT
ATOM      1  C   UNL     1       2.228   5.639  18.326  0.00  0.00    +0.000 C 
ATOM      2  C   UNL     1       1.557   4.895  19.490  0.00  0.00    +0.000 C 
ATOM      3  C   UNL     1       2.490   4.743  20.687  0.00  0.00    +0.000 C 
ATOM      4  C   UNL     1       3.827   4.121  20.287  0.00  0.00    +0.000 C 
ATOM      5  N   UNL     1       4.507   4.882  19.228  0.00  0.00    +0.000 NA
ATOM      6  C   UNL     1       3.632   5.043  18.044  0.00  0.00    +0.000 C 
ENDROOT
BRANCH   1  12
ATOM      7  C   UNL     1       1.145   8.952  22.325  0.00  0.00    +0.000 C 
ATOM      8  N   UNL     1       0.858   9.566  21.040  0.00  0.00    +0.000 N 
ATOM      9  C   UNL     1       0.428  10.951  20.999  0.00  0.00    +0.000 C 
ATOM     10  C   UNL     1       1.447   9.057  19.888  0.00  0.00    +0.000 A 
ATOM     11  C   UNL     1       1.696   7.690  19.757  0.00  0.00    +0.000 A 
ATOM     12  C   UNL     1       2.158   7.142  18.556  0.00  0.00    +0.000 A 
ATOM     13  C   UNL     1       2.443   8.022  17.512  0.00  0.00    +0.000 A 
ATOM     14  C   UNL     1       2.213   9.370  17.714  0.00  0.00    +0.000 A 
ATOM     15  N   UNL     1       1.712   9.892  18.857  0.00  0.00    +0.000 NA
ENDBRANCH   1  12
BRANCH   5  16
ATOM     16  C   UNL     1       5.779   4.255  18.810  0.00  0.00    +0.000 C 
BRANCH  16  17
ATOM     17  C   UNL     1       6.284   4.834  17.532  0.00  0.00    +0.000 A 
ATOM     18  C   UNL     1       7.005   6.035  17.336  0.00  0.00    +0.000 A 
ATOM     19  N   UNL     1       7.357   6.224  16.059  0.00  0.00    +0.000 NA
ATOM     20  N   UNL     1       6.877   5.134  15.437  0.00  0.00    +0.000 N 
ATOM     21  C   UNL     1       7.210   4.881  14.057  0.00  0.00    +0.000 C 
ATOM     22  C   UNL     1       6.169   4.307  16.260  0.00  0.00    +0.000 A 
ENDBRANCH  16  17
ENDBRANCH   5  16
TORSDOF 3
ENDMDL
MODEL 6
REMARK VINA RESULT:      -6.2      1.801      6.801
REMARK  Name = 
REMARK  6 active torsions:
REMARK  status: ('A' for Active; 'I' for Inactive)
REMARK    1  A    between atoms: C_1  and  N_2
REMARK    2  A    between atoms: N_2  and  C_3
REMARK    3  A    between atoms: C_6  and  C_7
REMARK    4  A    between atoms: N_11  and  C_12
REMARK    5  A    between atoms: C_12  and  C_13
REMARK    6  A    between atoms: N_16  and  C_17
REMARK                            x       y       z     vdW  Elec       q    Type
REMARK                         _______ _______ _______ _____ _____    ______ ____
ROOT
ATOM      1  C   UNL     1       2.060   5.770  18.329  0.00  0.00    +0.000 C 
ATOM      2  C   UNL     1       1.453   4.977  19.497  0.00  0.00    +0.000 C 
ATOM      3  C   UNL     1       2.442   4.801  20.645  0.00  0.00    +0.000 C 
ATOM      4  C   UNL     1       3.768   4.213  20.164  0.00  0.00    +0.000 C 
ATOM      5  N   UNL     1       4.388   5.018  19.101  0.00  0.00    +0.000 NA
ATOM      6  C   UNL     1       3.457   5.205  17.964  0.00  0.00    +0.000 C 
ENDROOT
BRANCH   1  12
ATOM      7  C   UNL     1       1.084   8.933  22.473  0.00  0.00    +0.000 C 
ATOM      8  N   UNL     1       0.742   9.585  21.221  0.00  0.00    +0.000 N 
ATOM      9  C   UNL     1       0.294  10.965  21.242  0.00  0.00    +0.000 C 
ATOM     10  C   UNL     1       1.295   9.123  20.032  0.00  0.00    +0.000 A 
ATOM     11  C   UNL     1       1.556   7.764  19.846  0.00  0.00    +0.000 A 
ATOM     12  C   UNL     1       1.979   7.262  18.612  0.00  0.00    +0.000 A 
ATOM     13  C   UNL     1       2.214   8.180  17.588  0.00  0.00    +0.000 A 
ATOM     14  C   UNL     1       1.976   9.518  17.844  0.00  0.00    +0.000 A 
ATOM     15  N   UNL     1       1.510   9.995  19.020  0.00  0.00    +0.000 NA
ENDBRANCH   1  12
BRANCH   5  16
ATOM     16  C   UNL     1       5.648   4.424  18.605  0.00  0.00    +0.000 C 
BRANCH  16  17
ATOM     17  C   UNL     1       6.525   5.449  17.969  0.00  0.00    +0.000 A 
ATOM     18  C   UNL     1       6.957   5.523  16.623  0.00  0.00    +0.000 A 
ATOM     19  N   UNL     1       7.691   6.614  16.376  0.00  0.00    +0.000 NA
ATOM     20  N   UNL     1       7.716   7.250  17.560  0.00  0.00    +0.000 N 
ATOM     21  C   UNL     1       8.273   8.576  17.658  0.00  0.00    +0.000 C 
ATOM     22  C   UNL     1       7.092   6.562  18.559  0.00  0.00    +0.000 A 
ENDBRANCH  16  17
ENDBRANCH   5  16
TORSDOF 3
ENDMDL
MODEL 7
REMARK VINA RESULT:      -6.1      3.440      6.228
REMARK  Name = 
REMARK  6 active torsions:
REMARK  status: ('A' for Active; 'I' for Inactive)
REMARK    1  A    between atoms: C_1  and  N_2
REMARK    2  A    between atoms: N_2  and  C_3
REMARK    3  A    between atoms: C_6  and  C_7
REMARK    4  A    between atoms: N_11  and  C_12
REMARK    5  A    between atoms: C_12  and  C_13
REMARK    6  A    between atoms: N_16  and  C_17
REMARK                            x       y       z     vdW  Elec       q    Type
REMARK                         _______ _______ _______ _____ _____    ______ ____
ROOT
ATOM      1  C   UNL     1       1.960   8.592  20.505  0.00  0.00    +0.000 C 
ATOM      2  C   UNL     1       1.099   8.398  21.764  0.00  0.00    +0.000 C 
ATOM      3  C   UNL     1      -0.392   8.414  21.445  0.00  0.00    +0.000 C 
ATOM      4  C   UNL     1      -0.788   9.658  20.651  0.00  0.00    +0.000 C 
ATOM      5  N   UNL     1      -0.019   9.798  19.405  0.00  0.00    +0.000 NA
ATOM      6  C   UNL     1       1.437   9.794  19.676  0.00  0.00    +0.000 C 
ENDROOT
BRANCH   1  12
ATOM      7  C   UNL     1       1.865   3.418  21.666  0.00  0.00    +0.000 C 
ATOM      8  N   UNL     1       2.677   3.679  20.489  0.00  0.00    +0.000 N 
ATOM      9  C   UNL     1       3.249   2.560  19.763  0.00  0.00    +0.000 C 
ATOM     10  C   UNL     1       2.500   4.862  19.781  0.00  0.00    +0.000 A 
ATOM     11  C   UNL     1       2.160   6.045  20.440  0.00  0.00    +0.000 A 
ATOM     12  C   UNL     1       2.115   7.270  19.769  0.00  0.00    +0.000 A 
ATOM     13  C   UNL     1       2.341   7.260  18.392  0.00  0.00    +0.000 A 
ATOM     14  C   UNL     1       2.635   6.052  17.788  0.00  0.00    +0.000 A 
ATOM     15  N   UNL     1       2.735   4.877  18.449  0.00  0.00    +0.000 NA
ENDBRANCH   1  12
BRANCH   5  16
ATOM     16  C   UNL     1      -0.371  11.025  18.660  0.00  0.00    +0.000 C 
BRANCH  16  17
ATOM     17  C   UNL     1      -1.674  10.882  17.949  0.00  0.00    +0.000 A 
ATOM     18  C   UNL     1      -2.031   9.948  16.947  0.00  0.00    +0.000 A 
ATOM     19  N   UNL     1      -3.309  10.062  16.568  0.00  0.00    +0.000 NA
ATOM     20  N   UNL     1      -3.779  11.057  17.340  0.00  0.00    +0.000 N 
ATOM     21  C   UNL     1      -5.188  11.363  17.350  0.00  0.00    +0.000 C 
ATOM     22  C   UNL     1      -2.825  11.625  18.133  0.00  0.00    +0.000 A 
ENDBRANCH  16  17
ENDBRANCH   5  16
TORSDOF 3
ENDMDL
MODEL 8
REMARK VINA RESULT:      -6.1      7.263      9.989
REMARK  Name = 
REMARK  6 active torsions:
REMARK  status: ('A' for Active; 'I' for Inactive)
REMARK    1  A    between atoms: C_1  and  N_2
REMARK    2  A    between atoms: N_2  and  C_3
REMARK    3  A    between atoms: C_6  and  C_7
REMARK    4  A    between atoms: N_11  and  C_12
REMARK    5  A    between atoms: C_12  and  C_13
REMARK    6  A    between atoms: N_16  and  C_17
REMARK                            x       y       z     vdW  Elec       q    Type
REMARK                         _______ _______ _______ _____ _____    ______ ____
ROOT
ATOM      1  C   UNL     1      -2.508   9.763  17.669  0.00  0.00    +0.000 C 
ATOM      2  C   UNL     1      -2.313   9.786  16.145  0.00  0.00    +0.000 C 
ATOM      3  C   UNL     1      -2.838  11.075  15.520  0.00  0.00    +0.000 C 
ATOM      4  C   UNL     1      -4.283  11.355  15.929  0.00  0.00    +0.000 C 
ATOM      5  N   UNL     1      -4.452  11.414  17.389  0.00  0.00    +0.000 NA
ATOM      6  C   UNL     1      -3.959  10.174  18.032  0.00  0.00    +0.000 C 
ENDROOT
BRANCH   1  12
ATOM      7  C   UNL     1      -1.994  14.114  20.659  0.00  0.00    +0.000 C 
ATOM      8  N   UNL     1      -0.775  13.837  19.920  0.00  0.00    +0.000 N 
ATOM      9  C   UNL     1       0.392  14.670  20.143  0.00  0.00    +0.000 C 
ATOM     10  C   UNL     1      -0.548  12.558  19.424  0.00  0.00    +0.000 A 
ATOM     11  C   UNL     1      -1.608  11.765  18.979  0.00  0.00    +0.000 A 
ATOM     12  C   UNL     1      -1.389  10.536  18.351  0.00  0.00    +0.000 A 
ATOM     13  C   UNL     1      -0.072  10.085  18.256  0.00  0.00    +0.000 A 
ATOM     14  C   UNL     1       0.933  10.896  18.750  0.00  0.00    +0.000 A 
ATOM     15  N   UNL     1       0.724  12.111  19.306  0.00  0.00    +0.000 NA
ENDBRANCH   1  12
BRANCH   5  16
ATOM     16  C   UNL     1      -5.858  11.641  17.786  0.00  0.00    +0.000 C 
BRANCH  16  17
ATOM     17  C   UNL     1      -5.987  11.855  19.256  0.00  0.00    +0.000 A 
ATOM     18  C   UNL     1      -6.850  11.203  20.167  0.00  0.00    +0.000 A 
ATOM     19  N   UNL     1      -6.661  11.598  21.431  0.00  0.00    +0.000 NA
ATOM     20  N   UNL     1      -5.662  12.491  21.335  0.00  0.00    +0.000 N 
ATOM     21  C   UNL     1      -5.045  13.021  22.525  0.00  0.00    +0.000 C 
ATOM     22  C   UNL     1      -5.270  12.731  20.050  0.00  0.00    +0.000 A 
ENDBRANCH  16  17
ENDBRANCH   5  16
TORSDOF 3
ENDMDL
MODEL 9
REMARK VINA RESULT:      -6.1      3.462      6.327
REMARK  Name = 
REMARK  6 active torsions:
REMARK  status: ('A' for Active; 'I' for Inactive)
REMARK    1  A    between atoms: C_1  and  N_2
REMARK    2  A    between atoms: N_2  and  C_3
REMARK    3  A    between atoms: C_6  and  C_7
REMARK    4  A    between atoms: N_11  and  C_12
REMARK    5  A    between atoms: C_12  and  C_13
REMARK    6  A    between atoms: N_16  and  C_17
REMARK                            x       y       z     vdW  Elec       q    Type
REMARK                         _______ _______ _______ _____ _____    ______ ____
ROOT
ATOM      1  C   UNL     1       1.890   8.730  20.567  0.00  0.00    +0.000 C 
ATOM      2  C   UNL     1       1.052   8.471  21.829  0.00  0.00    +0.000 C 
ATOM      3  C   UNL     1      -0.444   8.462  21.532  0.00  0.00    +0.000 C 
ATOM      4  C   UNL     1      -0.881   9.723  20.788  0.00  0.00    +0.000 C 
ATOM      5  N   UNL     1      -0.133   9.926  19.538  0.00  0.00    +0.000 NA
ATOM      6  C   UNL     1       1.326   9.947  19.788  0.00  0.00    +0.000 C 
ENDROOT
BRANCH   1  12
ATOM      7  C   UNL     1       1.855   3.514  21.530  0.00  0.00    +0.000 C 
ATOM      8  N   UNL     1       2.669   3.830  20.369  0.00  0.00    +0.000 N 
ATOM      9  C   UNL     1       3.259   2.747  19.604  0.00  0.00    +0.000 C 
ATOM     10  C   UNL     1       2.481   5.037  19.705  0.00  0.00    +0.000 A 
ATOM     11  C   UNL     1       2.122   6.190  20.407  0.00  0.00    +0.000 A 
ATOM     12  C   UNL     1       2.065   7.439  19.782  0.00  0.00    +0.000 A 
ATOM     13  C   UNL     1       2.299   7.484  18.407  0.00  0.00    +0.000 A 
ATOM     14  C   UNL     1       2.611   6.304  17.759  0.00  0.00    +0.000 A 
ATOM     15  N   UNL     1       2.723   5.105  18.376  0.00  0.00    +0.000 NA
ENDBRANCH   1  12
BRANCH   5  16
ATOM     16  C   UNL     1      -0.525  11.169  18.841  0.00  0.00    +0.000 C 
BRANCH  16  17
ATOM     17  C   UNL     1      -1.728  10.964  17.984  0.00  0.00    +0.000 A 
ATOM     18  C   UNL     1      -3.030  11.490  18.155  0.00  0.00    +0.000 A 
ATOM     19  N   UNL     1      -3.858  11.153  17.161  0.00  0.00    +0.000 NA
ATOM     20  N   UNL     1      -3.083  10.424  16.340  0.00  0.00    +0.000 N 
ATOM     21  C   UNL     1      -3.576  10.018  15.047  0.00  0.00    +0.000 C 
ATOM     22  C   UNL     1      -1.821  10.225  16.820  0.00  0.00    +0.000 A 
ENDBRANCH  16  17
ENDBRANCH   5  16
TORSDOF 3
ENDMDL
