MODEL 1
REMARK VINA RESULT:      -8.3      0.000      0.000
REMARK  Name = 
REMARK  7 active torsions:
REMARK  status: ('A' for Active; 'I' for Inactive)
REMARK    1  A    between atoms: C_1  and  C_2
REMARK    2  A    between atoms: C_2  and  C_3
REMARK    3  A    between atoms: C_2  and  C_4
REMARK    4  A    between atoms: C_4  and  N_5
REMARK    5  A    between atoms: C_8  and  O_9
REMARK    6  A    between atoms: C_10  and  C_11
REMARK    7  A    between atoms: N_13  and  C_14
REMARK                            x       y       z     vdW  Elec       q    Type
REMARK                         _______ _______ _______ _____ _____    ______ ____
ROOT
ATOM      1  N   UNL     1       3.003   5.113  19.267  0.00  0.00    +0.000 N 
ATOM      2  C   UNL     1       3.752   5.258  18.088  0.00  0.00    +0.000 A 
ATOM      3  C   UNL     1       3.824   6.462  17.478  0.00  0.00    +0.000 A 
ATOM      4  C   UNL     1       3.052   7.583  17.999  0.00  0.00    +0.000 A 
ATOM      5  C   UNL     1       2.293   7.490  19.109  0.00  0.00    +0.000 A 
ATOM      6  C   UNL     1       2.321   6.196  19.854  0.00  0.00    +0.000 A 
ATOM      7  O   UNL     1       1.754   6.118  20.948  0.00  0.00    +0.000 OA
ATOM      8  C   UNL     1       4.699   6.709  16.265  0.00  0.00    +0.000 C 
ATOM      9  C   UNL     1       5.723   5.615  15.991  0.00  0.00    +0.000 C 
ATOM     10  C   UNL     1       5.064   4.255  16.115  0.00  0.00    +0.000 C 
ATOM     11  C   UNL     1       4.504   4.061  17.525  0.00  0.00    +0.000 C 
ENDROOT
BRANCH   5  12
ATOM     12  C   UNL     1       1.444   8.664  19.529  0.00  0.00    +0.000 C 
ATOM     13  O   UNL     1       0.865   9.352  18.694  0.00  0.00    +0.000 OA
ATOM     14  N   UNL     1       1.356   8.916  20.890  0.00  0.00    +0.000 N 
ATOM     15  H   UNL     1       1.974   8.380  21.500  0.00  0.00    +0.000 HD
BRANCH  14  16
ATOM     16  C   UNL     1       0.548   9.916  21.485  0.00  0.00    +0.000 A 
ATOM     17  C   UNL     1       0.556  11.255  21.068  0.00  0.00    +0.000 A 
ATOM     18  C   UNL     1      -0.232  12.217  21.704  0.00  0.00    +0.000 A 
ATOM     19  C   UNL     1      -1.042  11.838  22.761  0.00  0.00    +0.000 A 
ATOM     20  F   UNL     1      -1.789  12.761  23.383  0.00  0.00    +0.000 F 
ATOM     21  C   UNL     1      -1.088  10.514  23.179  0.00  0.00    +0.000 A 
ATOM     22  C   UNL     1      -0.303   9.549  22.535  0.00  0.00    +0.000 A 
ENDBRANCH  14  16
ENDBRANCH   5  12
BRANCH   4  23
ATOM     23  O   UNL     1       3.151   8.762  17.282  0.00  0.00    +0.000 OA
ATOM     24  H   UNL     1       3.556   8.619  16.418  0.00  0.00    +0.000 HD
ENDBRANCH   4  23
BRANCH   1  25
ATOM     25  C   UNL     1       2.994   3.849  20.030  0.00  0.00    +0.000 C 
BRANCH  25  27
ATOM     26  C   UNL     1       1.370   2.133  19.064  0.00  0.00    +0.000 C 
ATOM     27  C   UNL     1       1.605   3.183  20.148  0.00  0.00    +0.000 C 
ATOM     28  C   UNL     1       1.441   2.548  21.532  0.00  0.00    +0.000 C 
ENDBRANCH  25  27
ENDBRANCH   1  25
TORSDOF 5
ENDMDL
MODEL 2
REMARK VINA RESULT:      -8.2      0.437      1.237
REMARK  Name = 
REMARK  7 active torsions:
REMARK  status: ('A' for Active; 'I' for Inactive)
REMARK    1  A    between atoms: C_1  and  C_2
REMARK    2  A    between atoms: C_2  and  C_3
REMARK    3  A    between atoms: C_2  and  C_4
REMARK    4  A    between atoms: C_4  and  N_5
REMARK    5  A    between atoms: C_8  and  O_9
REMARK    6  A    between atoms: C_10  and  C_11
REMARK    7  A    between atoms: N_13  and  C_14
REMARK                            x       y       z     vdW  Elec       q    Type
REMARK                         _______ _______ _______ _____ _____    ______ ____
ROOT
ATOM      1  N   UNL     1       3.260   4.925  19.131  0.00  0.00    +0.000 N 
ATOM      2  C   UNL     1       3.970   5.123  17.935  0.00  0.00    +0.000 A 
ATOM      3  C   UNL     1       3.981   6.342  17.350  0.00  0.00    +0.000 A 
ATOM      4  C   UNL     1       3.186   7.423  17.918  0.00  0.00    +0.000 A 
ATOM      5  C   UNL     1       2.464   7.279  19.047  0.00  0.00    +0.000 A 
ATOM      6  C   UNL     1       2.558   5.971  19.762  0.00  0.00    +0.000 A 
ATOM      7  O   UNL     1       2.027   5.850  20.869  0.00  0.00    +0.000 OA
ATOM      8  C   UNL     1       4.811   6.645  16.119  0.00  0.00    +0.000 C 
ATOM      9  C   UNL     1       5.864   5.594  15.791  0.00  0.00    +0.000 C 
ATOM     10  C   UNL     1       5.257   4.210  15.903  0.00  0.00    +0.000 C 
ATOM     11  C   UNL     1       4.745   3.965  17.324  0.00  0.00    +0.000 C 
ENDROOT
BRANCH   5  12
ATOM     12  C   UNL     1       1.587   8.413  19.517  0.00  0.00    +0.000 C 
ATOM     13  O   UNL     1       0.959   9.097  18.714  0.00  0.00    +0.000 OA
ATOM     14  N   UNL     1       1.531   8.633  20.885  0.00  0.00    +0.000 N 
ATOM     15  H   UNL     1       2.186   8.107  21.465  0.00  0.00    +0.000 HD
BRANCH  14  16
ATOM     16  C   UNL     1       0.707   9.591  21.526  0.00  0.00    +0.000 A 
ATOM     17  C   UNL     1      -0.133   9.279  22.606  0.00  0.00    +0.000 A 
ATOM     18  C   UNL     1      -0.954  10.246  23.188  0.00  0.00    +0.000 A 
ATOM     19  C   UNL     1      -0.933  11.539  22.693  0.00  0.00    +0.000 A 
ATOM     20  F   UNL     1      -1.730  12.468  23.240  0.00  0.00    +0.000 F 
ATOM     21  C   UNL     1      -0.093  11.882  21.641  0.00  0.00    +0.000 A 
ATOM     22  C   UNL     1       0.736  10.912  21.063  0.00  0.00    +0.000 A 
ENDBRANCH  14  16
ENDBRANCH   5  12
BRANCH   4  23
ATOM     23  O   UNL     1       3.223   8.620  17.225  0.00  0.00    +0.000 OA
ATOM     24  H   UNL     1       2.910   9.353  17.768  0.00  0.00    +0.000 HD
ENDBRANCH   4  23
BRANCH   1  25
ATOM     25  C   UNL     1       3.318   3.646  19.865  0.00  0.00    +0.000 C 
BRANCH  25  27
ATOM     26  C   UNL     1       1.191   2.673  20.887  0.00  0.00    +0.000 C 
ATOM     27  C   UNL     1       2.091   2.732  19.654  0.00  0.00    +0.000 C 
ATOM     28  C   UNL     1       1.283   3.206  18.442  0.00  0.00    +0.000 C 
ENDBRANCH  25  27
ENDBRANCH   1  25
TORSDOF 5
ENDMDL
MODEL 3
REMARK VINA RESULT:      -7.8      0.742      1.062
REMARK  Name = 
REMARK  7 active torsions:
REMARK  status: ('A' for Active; 'I' for Inactive)
REMARK    1  A    between atoms: C_1  and  C_2
REMARK    2  A    between atoms: C_2  and  C_3
REMARK    3  A    between atoms: C_2  and  C_4
REMARK    4  A    between atoms: C_4  and  N_5
REMARK    5  A    between atoms: C_8  and  O_9
REMARK    6  A    between atoms: C_10  and  C_11
REMARK    7  A    between atoms: N_13  and  C_14
REMARK                            x       y       z     vdW  Elec       q    Type
REMARK                         _______ _______ _______ _____ _____    ______ ____
ROOT
ATOM      1  N   UNL     1       2.849   4.757  18.657  0.00  0.00    +0.000 N 
ATOM      2  C   UNL     1       3.768   4.992  17.621  0.00  0.00    +0.000 A 
ATOM      3  C   UNL     1       4.036   6.258  17.231  0.00  0.00    +0.000 A 
ATOM      4  C   UNL     1       3.306   7.368  17.827  0.00  0.00    +0.000 A 
ATOM      5  C   UNL     1       2.392   7.197  18.804  0.00  0.00    +0.000 A 
ATOM      6  C   UNL     1       2.194   5.811  19.324  0.00  0.00    +0.000 A 
ATOM      7  O   UNL     1       1.474   5.635  20.310  0.00  0.00    +0.000 OA
ATOM      8  C   UNL     1       5.093   6.583  16.194  0.00  0.00    +0.000 C 
ATOM      9  C   UNL     1       6.040   5.433  15.874  0.00  0.00    +0.000 C 
ATOM     10  C   UNL     1       5.247   4.154  15.690  0.00  0.00    +0.000 C 
ATOM     11  C   UNL     1       4.477   3.815  16.968  0.00  0.00    +0.000 C 
ENDROOT
BRANCH   5  12
ATOM     12  C   UNL     1       1.604   8.383  19.301  0.00  0.00    +0.000 C 
ATOM     13  O   UNL     1       1.111   9.186  18.513  0.00  0.00    +0.000 OA
ATOM     14  N   UNL     1       1.471   8.513  20.675  0.00  0.00    +0.000 N 
ATOM     15  H   UNL     1       2.024   7.881  21.255  0.00  0.00    +0.000 HD
BRANCH  14  16
ATOM     16  C   UNL     1       0.705   9.508  21.332  0.00  0.00    +0.000 A 
ATOM     17  C   UNL     1       0.711  10.857  20.946  0.00  0.00    +0.000 A 
ATOM     18  C   UNL     1      -0.033  11.812  21.641  0.00  0.00    +0.000 A 
ATOM     19  C   UNL     1      -0.797  11.417  22.727  0.00  0.00    +0.000 A 
ATOM     20  F   UNL     1      -1.503  12.333  23.405  0.00  0.00    +0.000 F 
ATOM     21  C   UNL     1      -0.840  10.084  23.115  0.00  0.00    +0.000 A 
ATOM     22  C   UNL     1      -0.099   9.125  22.412  0.00  0.00    +0.000 A 
ENDBRANCH  14  16
ENDBRANCH   5  12
BRANCH   4  23
ATOM     23  O   UNL     1       3.614   8.623  17.332  0.00  0.00    +0.000 OA
ATOM     24  H   UNL     1       2.819   9.132  17.136  0.00  0.00    +0.000 HD
ENDBRANCH   4  23
BRANCH   1  25
ATOM     25  C   UNL     1       2.616   3.403  19.195  0.00  0.00    +0.000 C 
BRANCH  25  27
ATOM     26  C   UNL     1       2.487   2.596  21.614  0.00  0.00    +0.000 C 
ATOM     27  C   UNL     1       3.398   3.085  20.489  0.00  0.00    +0.000 C 
ATOM     28  C   UNL     1       4.483   2.042  20.206  0.00  0.00    +0.000 C 
ENDBRANCH  25  27
ENDBRANCH   1  25
TORSDOF 5
ENDMDL
MODEL 4
REMARK VINA RESULT:      -7.8      0.862      1.325
REMARK  Name = 
REMARK  7 active torsions:
REMARK  status: ('A' for Active; 'I' for Inactive)
REMARK    1  A    between atoms: C_1  and  C_2
REMARK    2  A    between atoms: C_2  and  C_3
REMARK    3  A    between atoms: C_2  and  C_4
REMARK    4  A    between atoms: C_4  and  N_5
REMARK    5  A    between atoms: C_8  and  O_9
REMARK    6  A    between atoms: C_10  and  C_11
REMARK    7  A    between atoms: N_13  and  C_14
REMARK                            x       y       z     vdW  Elec       q    Type
REMARK                         _______ _______ _______ _____ _____    ______ ____
ROOT
ATOM      1  N   UNL     1       2.605   5.798  19.654  0.00  0.00    +0.000 N 
ATOM      2  C   UNL     1       3.332   5.897  18.456  0.00  0.00    +0.000 A 
ATOM      3  C   UNL     1       3.350   7.063  17.772  0.00  0.00    +0.000 A 
ATOM      4  C   UNL     1       2.545   8.185  18.235  0.00  0.00    +0.000 A 
ATOM      5  C   UNL     1       1.806   8.134  19.361  0.00  0.00    +0.000 A 
ATOM      6  C   UNL     1       1.892   6.891  20.184  0.00  0.00    +0.000 A 
ATOM      7  O   UNL     1       1.344   6.860  21.289  0.00  0.00    +0.000 OA
ATOM      8  C   UNL     1       4.198   7.265  16.532  0.00  0.00    +0.000 C 
ATOM      9  C   UNL     1       5.258   6.193  16.309  0.00  0.00    +0.000 C 
ATOM     10  C   UNL     1       4.652   4.821  16.527  0.00  0.00    +0.000 C 
ATOM     11  C   UNL     1       4.119   4.694  17.955  0.00  0.00    +0.000 C 
ENDROOT
BRANCH   5  12
ATOM     12  C   UNL     1       0.920   9.300  19.722  0.00  0.00    +0.000 C 
ATOM     13  O   UNL     1       0.083   9.723  18.930  0.00  0.00    +0.000 OA
ATOM     14  N   UNL     1       1.102   9.857  20.979  0.00  0.00    +0.000 N 
ATOM     15  H   UNL     1       1.907   9.533  21.516  0.00  0.00    +0.000 HD
BRANCH  14  16
ATOM     16  C   UNL     1       0.318  10.901  21.532  0.00  0.00    +0.000 A 
ATOM     17  C   UNL     1      -0.723  10.674  22.444  0.00  0.00    +0.000 A 
ATOM     18  C   UNL     1      -1.494  11.728  22.939  0.00  0.00    +0.000 A 
ATOM     19  C   UNL     1      -1.217  13.021  22.529  0.00  0.00    +0.000 A 
ATOM     20  F   UNL     1      -1.963  14.034  22.992  0.00  0.00    +0.000 F 
ATOM     21  C   UNL     1      -0.175  13.276  21.646  0.00  0.00    +0.000 A 
ATOM     22  C   UNL     1       0.601  12.219  21.155  0.00  0.00    +0.000 A 
ENDBRANCH  14  16
ENDBRANCH   5  12
BRANCH   4  23
ATOM     23  O   UNL     1       2.590   9.320  17.446  0.00  0.00    +0.000 OA
ATOM     24  H   UNL     1       1.821   9.884  17.591  0.00  0.00    +0.000 HD
ENDBRANCH   4  23
BRANCH   1  25
ATOM     25  C   UNL     1       2.653   4.584  20.493  0.00  0.00    +0.000 C 
BRANCH  25  27
ATOM     26  C   UNL     1       1.054   3.110  19.158  0.00  0.00    +0.000 C 
ATOM     27  C   UNL     1       1.345   3.764  20.507  0.00  0.00    +0.000 C 
ATOM     28  C   UNL     1       1.405   2.695  21.602  0.00  0.00    +0.000 C 
ENDBRANCH  25  27
ENDBRANCH   1  25
TORSDOF 5
ENDMDL
MODEL 5
REMARK VINA RESULT:      -7.7      2.349      4.322
REMARK  Name = 
REMARK  7 active torsions:
REMARK  status: ('A' for Active; 'I' for Inactive)
REMARK    1  A    between atoms: C_1  and  C_2
REMARK    2  A    between atoms: C_2  and  C_3
REMARK    3  A    between atoms: C_2  and  C_4
REMARK    4  A    between atoms: C_4  and  N_5
REMARK    5  A    between atoms: C_8  and  O_9
REMARK    6  A    between atoms: C_10  and  C_11
REMARK    7  A    between atoms: N_13  and  C_14
REMARK                            x       y       z     vdW  Elec       q    Type
REMARK                         _______ _______ _______ _____ _____    ______ ____
ROOT
ATOM      1  N   UNL     1       4.075   5.686  18.246  0.00  0.00    +0.000 N 
ATOM      2  C   UNL     1       3.724   4.630  19.104  0.00  0.00    +0.000 A 
ATOM      3  C   UNL     1       2.714   4.787  19.988  0.00  0.00    +0.000 A 
ATOM      4  C   UNL     1       2.052   6.079  20.109  0.00  0.00    +0.000 A 
ATOM      5  C   UNL     1       2.370   7.134  19.331  0.00  0.00    +0.000 A 
ATOM      6  C   UNL     1       3.395   6.919  18.266  0.00  0.00    +0.000 A 
ATOM      7  O   UNL     1       3.609   7.816  17.447  0.00  0.00    +0.000 OA
ATOM      8  C   UNL     1       2.218   3.654  20.866  0.00  0.00    +0.000 C 
ATOM      9  C   UNL     1       2.707   2.272  20.451  0.00  0.00    +0.000 C 
ATOM     10  C   UNL     1       4.191   2.325  20.146  0.00  0.00    +0.000 C 
ATOM     11  C   UNL     1       4.467   3.306  19.006  0.00  0.00    +0.000 C 
ENDROOT
BRANCH   5  12
ATOM     12  C   UNL     1       1.711   8.467  19.583  0.00  0.00    +0.000 C 
ATOM     13  O   UNL     1       1.447   8.833  20.724  0.00  0.00    +0.000 OA
ATOM     14  N   UNL     1       1.426   9.243  18.469  0.00  0.00    +0.000 N 
ATOM     15  H   UNL     1       1.556   8.806  17.556  0.00  0.00    +0.000 HD
BRANCH  14  16
ATOM     16  C   UNL     1       0.886  10.553  18.502  0.00  0.00    +0.000 A 
ATOM     17  C   UNL     1      -0.492  10.812  18.520  0.00  0.00    +0.000 A 
ATOM     18  C   UNL     1      -0.984  12.119  18.518  0.00  0.00    +0.000 A 
ATOM     19  C   UNL     1      -0.092  13.178  18.507  0.00  0.00    +0.000 A 
ATOM     20  F   UNL     1      -0.560  14.434  18.492  0.00  0.00    +0.000 F 
ATOM     21  C   UNL     1       1.279  12.950  18.514  0.00  0.00    +0.000 A 
ATOM     22  C   UNL     1       1.770  11.638  18.523  0.00  0.00    +0.000 A 
ENDBRANCH  14  16
ENDBRANCH   5  12
BRANCH   4  23
ATOM     23  O   UNL     1       1.063   6.158  21.072  0.00  0.00    +0.000 OA
ATOM     24  H   UNL     1       0.379   6.793  20.828  0.00  0.00    +0.000 HD
ENDBRANCH   4  23
BRANCH   1  25
ATOM     25  C   UNL     1       5.089   5.520  17.186  0.00  0.00    +0.000 C 
BRANCH  25  27
ATOM     26  C   UNL     1       7.466   4.596  17.078  0.00  0.00    +0.000 C 
ATOM     27  C   UNL     1       6.549   5.664  17.670  0.00  0.00    +0.000 C 
ATOM     28  C   UNL     1       7.083   7.058  17.326  0.00  0.00    +0.000 C 
ENDBRANCH  25  27
ENDBRANCH   1  25
TORSDOF 5
ENDMDL
MODEL 6
REMARK VINA RESULT:      -7.7      3.707      8.404
REMARK  Name = 
REMARK  7 active torsions:
REMARK  status: ('A' for Active; 'I' for Inactive)
REMARK    1  A    between atoms: C_1  and  C_2
REMARK    2  A    between atoms: C_2  and  C_3
REMARK    3  A    between atoms: C_2  and  C_4
REMARK    4  A    between atoms: C_4  and  N_5
REMARK    5  A    between atoms: C_8  and  O_9
REMARK    6  A    between atoms: C_10  and  C_11
REMARK    7  A    between atoms: N_13  and  C_14
REMARK                            x       y       z     vdW  Elec       q    Type
REMARK                         _______ _______ _______ _____ _____    ______ ____
ROOT
ATOM      1  N   UNL     1       0.879  10.444  19.195  0.00  0.00    +0.000 N 
ATOM      2  C   UNL     1       0.420  10.161  20.492  0.00  0.00    +0.000 A 
ATOM      3  C   UNL     1       0.743   8.988  21.082  0.00  0.00    +0.000 A 
ATOM      4  C   UNL     1       1.494   7.987  20.336  0.00  0.00    +0.000 A 
ATOM      5  C   UNL     1       1.934   8.196  19.078  0.00  0.00    +0.000 A 
ATOM      6  C   UNL     1       1.688   9.541  18.478  0.00  0.00    +0.000 A 
ATOM      7  O   UNL     1       2.197   9.817  17.388  0.00  0.00    +0.000 OA
ATOM      8  C   UNL     1       0.368   8.668  22.515  0.00  0.00    +0.000 C 
ATOM      9  C   UNL     1      -0.099   9.868  23.330  0.00  0.00    +0.000 C 
ATOM     10  C   UNL     1      -1.079  10.689  22.516  0.00  0.00    +0.000 C 
ATOM     11  C   UNL     1      -0.416  11.194  21.233  0.00  0.00    +0.000 C 
ENDROOT
BRANCH   5  12
ATOM     12  C   UNL     1       2.617   7.075  18.335  0.00  0.00    +0.000 C 
ATOM     13  O   UNL     1       2.030   6.021  18.108  0.00  0.00    +0.000 OA
ATOM     14  N   UNL     1       3.924   7.301  17.929  0.00  0.00    +0.000 N 
ATOM     15  H   UNL     1       4.376   8.147  18.276  0.00  0.00    +0.000 HD
BRANCH  14  16
ATOM     16  C   UNL     1       4.704   6.408  17.152  0.00  0.00    +0.000 A 
ATOM     17  C   UNL     1       4.906   6.569  15.774  0.00  0.00    +0.000 A 
ATOM     18  C   UNL     1       5.655   5.648  15.039  0.00  0.00    +0.000 A 
ATOM     19  C   UNL     1       6.215   4.560  15.686  0.00  0.00    +0.000 A 
ATOM     20  F   UNL     1       6.923   3.666  14.982  0.00  0.00    +0.000 F 
ATOM     21  C   UNL     1       6.051   4.390  17.056  0.00  0.00    +0.000 A 
ATOM     22  C   UNL     1       5.306   5.318  17.793  0.00  0.00    +0.000 A 
ENDBRANCH  14  16
ENDBRANCH   5  12
BRANCH   4  23
ATOM     23  O   UNL     1       1.739   6.801  21.005  0.00  0.00    +0.000 OA
ATOM     24  H   UNL     1       2.543   6.374  20.686  0.00  0.00    +0.000 HD
ENDBRANCH   4  23
BRANCH   1  25
ATOM     25  C   UNL     1       0.650  11.757  18.560  0.00  0.00    +0.000 C 
BRANCH  25  27
ATOM     26  C   UNL     1       2.766  13.142  18.218  0.00  0.00    +0.000 C 
ATOM     27  C   UNL     1       1.546  12.893  19.101  0.00  0.00    +0.000 C 
ATOM     28  C   UNL     1       0.733  14.183  19.242  0.00  0.00    +0.000 C 
ENDBRANCH  25  27
ENDBRANCH   1  25
TORSDOF 5
ENDMDL
MODEL 7
REMARK VINA RESULT:      -7.6      1.580      1.711
REMARK  Name = 
REMARK  7 active torsions:
REMARK  status: ('A' for Active; 'I' for Inactive)
REMARK    1  A    between atoms: C_1  and  C_2
REMARK    2  A    between atoms: C_2  and  C_3
REMARK    3  A    between atoms: C_2  and  C_4
REMARK    4  A    between atoms: C_4  and  N_5
REMARK    5  A    between atoms: C_8  and  O_9
REMARK    6  A    between atoms: C_10  and  C_11
REMARK    7  A    between atoms: N_13  and  C_14
REMARK                            x       y       z     vdW  Elec       q    Type
REMARK                         _______ _______ _______ _____ _____    ______ ____
ROOT
ATOM      1  N   UNL     1       2.802   5.609  19.618  0.00  0.00    +0.000 N 
ATOM      2  C   UNL     1       3.610   5.426  18.484  0.00  0.00    +0.000 A 
ATOM      3  C   UNL     1       3.790   6.444  17.613  0.00  0.00    +0.000 A 
ATOM      4  C   UNL     1       3.076   7.699  17.810  0.00  0.00    +0.000 A 
ATOM      5  C   UNL     1       2.266   7.917  18.865  0.00  0.00    +0.000 A 
ATOM      6  C   UNL     1       2.172   6.838  19.894  0.00  0.00    +0.000 A 
ATOM      7  O   UNL     1       1.555   7.055  20.940  0.00  0.00    +0.000 OA
ATOM      8  C   UNL     1       4.732   6.344  16.429  0.00  0.00    +0.000 C 
ATOM      9  C   UNL     1       5.688   5.160  16.479  0.00  0.00    +0.000 C 
ATOM     10  C   UNL     1       4.932   3.909  16.881  0.00  0.00    +0.000 C 
ATOM     11  C   UNL     1       4.299   4.088  18.262  0.00  0.00    +0.000 C 
ENDROOT
BRANCH   5  12
ATOM     12  C   UNL     1       1.483   9.203  18.947  0.00  0.00    +0.000 C 
ATOM     13  O   UNL     1       1.915  10.236  18.443  0.00  0.00    +0.000 OA
ATOM     14  N   UNL     1       0.267   9.153  19.612  0.00  0.00    +0.000 N 
ATOM     15  H   UNL     1       0.051   8.291  20.115  0.00  0.00    +0.000 HD
BRANCH  14  16
ATOM     16  C   UNL     1      -0.648  10.229  19.726  0.00  0.00    +0.000 A 
ATOM     17  C   UNL     1      -1.543  10.583  18.705  0.00  0.00    +0.000 A 
ATOM     18  C   UNL     1      -2.406  11.672  18.844  0.00  0.00    +0.000 A 
ATOM     19  C   UNL     1      -2.382  12.410  20.015  0.00  0.00    +0.000 A 
ATOM     20  F   UNL     1      -3.200  13.464  20.147  0.00  0.00    +0.000 F 
ATOM     21  C   UNL     1      -1.524  12.065  21.052  0.00  0.00    +0.000 A 
ATOM     22  C   UNL     1      -0.664  10.969  20.914  0.00  0.00    +0.000 A 
ENDBRANCH  14  16
ENDBRANCH   5  12
BRANCH   4  23
ATOM     23  O   UNL     1       3.288   8.666  16.843  0.00  0.00    +0.000 OA
ATOM     24  H   UNL     1       4.218   8.718  16.592  0.00  0.00    +0.000 HD
ENDBRANCH   4  23
BRANCH   1  25
ATOM     25  C   UNL     1       2.673   4.566  20.655  0.00  0.00    +0.000 C 
BRANCH  25  27
ATOM     26  C   UNL     1       0.927   3.317  19.273  0.00  0.00    +0.000 C 
ATOM     27  C   UNL     1       1.313   3.833  20.658  0.00  0.00    +0.000 C 
ATOM     28  C   UNL     1       1.343   2.672  21.657  0.00  0.00    +0.000 C 
ENDBRANCH  25  27
ENDBRANCH   1  25
TORSDOF 5
ENDMDL
MODEL 8
REMARK VINA RESULT:      -7.5      1.819      1.837
REMARK  Name = 
REMARK  7 active torsions:
REMARK  status: ('A' for Active; 'I' for Inactive)
REMARK    1  A    between atoms: C_1  and  C_2
REMARK    2  A    between atoms: C_2  and  C_3
REMARK    3  A    between atoms: C_2  and  C_4
REMARK    4  A    between atoms: C_4  and  N_5
REMARK    5  A    between atoms: C_8  and  O_9
REMARK    6  A    between atoms: C_10  and  C_11
REMARK    7  A    between atoms: N_13  and  C_14
REMARK                            x       y       z     vdW  Elec       q    Type
REMARK                         _______ _______ _______ _____ _____    ______ ____
ROOT
ATOM      1  N   UNL     1       2.969   4.990  19.095  0.00  0.00    +0.000 N 
ATOM      2  C   UNL     1       3.737   5.176  17.934  0.00  0.00    +0.000 A 
ATOM      3  C   UNL     1       3.876   6.413  17.407  0.00  0.00    +0.000 A 
ATOM      4  C   UNL     1       3.158   7.535  17.998  0.00  0.00    +0.000 A 
ATOM      5  C   UNL     1       2.385   7.407  19.095  0.00  0.00    +0.000 A 
ATOM      6  C   UNL     1       2.338   6.066  19.751  0.00  0.00    +0.000 A 
ATOM      7  O   UNL     1       1.758   5.944  20.832  0.00  0.00    +0.000 OA
ATOM      8  C   UNL     1       4.774   6.695  16.219  0.00  0.00    +0.000 C 
ATOM      9  C   UNL     1       5.743   5.570  15.877  0.00  0.00    +0.000 C 
ATOM     10  C   UNL     1       5.014   4.241  15.905  0.00  0.00    +0.000 C 
ATOM     11  C   UNL     1       4.431   3.982  17.295  0.00  0.00    +0.000 C 
ENDROOT
BRANCH   5  12
ATOM     12  C   UNL     1       1.593   8.592  19.588  0.00  0.00    +0.000 C 
ATOM     13  O   UNL     1       1.500   8.832  20.788  0.00  0.00    +0.000 OA
ATOM     14  N   UNL     1       0.987   9.383  18.623  0.00  0.00    +0.000 N 
ATOM     15  H   UNL     1       1.003   9.035  17.663  0.00  0.00    +0.000 HD
BRANCH  14  16
ATOM     16  C   UNL     1       0.272  10.580  18.877  0.00  0.00    +0.000 A 
ATOM     17  C   UNL     1       0.891  11.835  18.973  0.00  0.00    +0.000 A 
ATOM     18  C   UNL     1       0.154  12.986  19.258  0.00  0.00    +0.000 A 
ATOM     19  C   UNL     1      -1.215  12.886  19.442  0.00  0.00    +0.000 A 
ATOM     20  F   UNL     1      -1.924  13.986  19.729  0.00  0.00    +0.000 F 
ATOM     21  C   UNL     1      -1.856  11.659  19.328  0.00  0.00    +0.000 A 
ATOM     22  C   UNL     1      -1.117  10.506  19.035  0.00  0.00    +0.000 A 
ENDBRANCH  14  16
ENDBRANCH   5  12
BRANCH   4  23
ATOM     23  O   UNL     1       3.324   8.753  17.363  0.00  0.00    +0.000 OA
ATOM     24  H   UNL     1       3.906   9.337  17.864  0.00  0.00    +0.000 HD
ENDBRANCH   4  23
BRANCH   1  25
ATOM     25  C   UNL     1       2.888   3.680  19.771  0.00  0.00    +0.000 C 
BRANCH  25  27
ATOM     26  C   UNL     1       0.997   2.184  18.932  0.00  0.00    +0.000 C 
ATOM     27  C   UNL     1       1.449   3.171  20.007  0.00  0.00    +0.000 C 
ATOM     28  C   UNL     1       1.341   2.520  21.390  0.00  0.00    +0.000 C 
ENDBRANCH  25  27
ENDBRANCH   1  25
TORSDOF 5
ENDMDL
MODEL 9
REMARK VINA RESULT:      -7.4      1.656      3.990
REMARK  Name = 
REMARK  7 active torsions:
REMARK  status: ('A' for Active; 'I' for Inactive)
REMARK    1  A    between atoms: C_1  and  C_2
REMARK    2  A    between atoms: C_2  and  C_3
REMARK    3  A    between atoms: C_2  and  C_4
REMARK    4  A    between atoms: C_4  and  N_5
REMARK    5  A    between atoms: C_8  and  O_9
REMARK    6  A    between atoms: C_10  and  C_11
REMARK    7  A    between atoms: N_13  and  C_14
REMARK                            x       y       z     vdW  Elec       q    Type
REMARK                         _______ _______ _______ _____ _____    ______ ____
ROOT
ATOM      1  N   UNL     1       3.850   5.544  17.642  0.00  0.00    +0.000 N 
ATOM      2  C   UNL     1       3.421   4.323  18.188  0.00  0.00    +0.000 A 
ATOM      3  C   UNL     1       2.460   4.309  19.139  0.00  0.00    +0.000 A 
ATOM      4  C   UNL     1       1.937   5.567  19.655  0.00  0.00    +0.000 A 
ATOM      5  C   UNL     1       2.336   6.767  19.188  0.00  0.00    +0.000 A 
ATOM      6  C   UNL     1       3.299   6.775  18.047  0.00  0.00    +0.000 A 
ATOM      7  O   UNL     1       3.578   7.846  17.501  0.00  0.00    +0.000 OA
ATOM      8  C   UNL     1       1.880   3.022  19.690  0.00  0.00    +0.000 C 
ATOM      9  C   UNL     1       2.213   1.778  18.876  0.00  0.00    +0.000 C 
ATOM     10  C   UNL     1       3.684   1.784  18.512  0.00  0.00    +0.000 C 
ATOM     11  C   UNL     1       4.022   3.021  17.678  0.00  0.00    +0.000 C 
ENDROOT
BRANCH   5  12
ATOM     12  C   UNL     1       1.824   8.026  19.842  0.00  0.00    +0.000 C 
ATOM     13  O   UNL     1       1.843   8.154  21.062  0.00  0.00    +0.000 OA
ATOM     14  N   UNL     1       1.338   9.014  18.999  0.00  0.00    +0.000 N 
ATOM     15  H   UNL     1       1.234   8.771  18.013  0.00  0.00    +0.000 HD
BRANCH  14  16
ATOM     16  C   UNL     1       0.891  10.294  19.412  0.00  0.00    +0.000 A 
ATOM     17  C   UNL     1      -0.225  10.485  20.240  0.00  0.00    +0.000 A 
ATOM     18  C   UNL     1      -0.653  11.765  20.597  0.00  0.00    +0.000 A 
ATOM     19  C   UNL     1       0.044  12.867  20.130  0.00  0.00    +0.000 A 
ATOM     20  F   UNL     1      -0.370  14.098  20.460  0.00  0.00    +0.000 F 
ATOM     21  C   UNL     1       1.168  12.706  19.329  0.00  0.00    +0.000 A 
ATOM     22  C   UNL     1       1.600  11.421  18.978  0.00  0.00    +0.000 A 
ENDBRANCH  14  16
ENDBRANCH   5  12
BRANCH   4  23
ATOM     23  O   UNL     1       0.991   5.455  20.659  0.00  0.00    +0.000 OA
ATOM     24  H   UNL     1       0.695   4.543  20.766  0.00  0.00    +0.000 HD
ENDBRANCH   4  23
BRANCH   1  25
ATOM     25  C   UNL     1       4.809   5.598  16.520  0.00  0.00    +0.000 C 
BRANCH  25  27
ATOM     26  C   UNL     1       7.093   4.663  15.869  0.00  0.00    +0.000 C 
ATOM     27  C   UNL     1       6.285   5.406  16.931  0.00  0.00    +0.000 C 
ATOM     28  C   UNL     1       6.932   6.764  17.222  0.00  0.00    +0.000 C 
ENDBRANCH  25  27
ENDBRANCH   1  25
TORSDOF 5
ENDMDL
