MODEL 1
REMARK VINA RESULT:      -6.8      0.000      0.000
REMARK  Name = 
REMARK  11 active torsions:
REMARK  status: ('A' for Active; 'I' for Inactive)
REMARK    1  A    between atoms: C_1  and  C_2
REMARK    2  A    between atoms: C_2  and  C_3
REMARK    3  A    between atoms: C_3  and  C_4
REMARK    4  A    between atoms: C_3  and  N_9
REMARK    5  A    between atoms: C_4  and  N_5
REMARK    6  A    between atoms: C_6  and  C_7
REMARK    7  A    between atoms: C_12  and  C_13
REMARK    8  A    between atoms: C_13  and  C_14
REMARK    9  A    between atoms: C_14  and  O_16
REMARK   10  A    between atoms: C_18  and  C_19
REMARK   11  A    between atoms: C_26  and  C_27
REMARK                            x       y       z     vdW  Elec       q    Type
REMARK                         _______ _______ _______ _____ _____    ______ ____
ROOT
ATOM      1  N   UNL     1      -3.924  12.059  19.011  0.00  0.00    +0.000 N 
ATOM      2  C   UNL     1      -4.623  11.392  18.001  0.00  0.00    +0.000 C 
ATOM      3  O   UNL     1      -5.796  11.613  17.688  0.00  0.00    +0.000 OA
ATOM      4  C   UNL     1      -3.899  10.417  17.096  0.00  0.00    +0.000 C 
ATOM      5  C   UNL     1      -2.719   9.720  17.742  0.00  0.00    +0.000 C 
ATOM      6  C   UNL     1      -1.790  10.725  18.409  0.00  0.00    +0.000 C 
ATOM      7  C   UNL     1      -2.580  11.531  19.487  0.00  0.00    +0.000 C 
ENDROOT
BRANCH   6   8
ATOM      8  C   UNL     1      -0.550  10.014  18.947  0.00  0.00    +0.000 A 
ATOM      9  C   UNL     1      -0.460   9.732  20.321  0.00  0.00    +0.000 A 
ATOM     10  C   UNL     1       0.644   9.054  20.845  0.00  0.00    +0.000 A 
ATOM     11  C   UNL     1       1.675   8.646  20.003  0.00  0.00    +0.000 A 
ATOM     12  C   UNL     1       1.606   8.932  18.643  0.00  0.00    +0.000 A 
ATOM     13 CL   UNL     1       2.875   8.424  17.597  0.00  0.00    +0.000 Cl
ATOM     14  C   UNL     1       0.509   9.619  18.114  0.00  0.00    +0.000 A 
ENDBRANCH   6   8
BRANCH   7  15
ATOM     15  C   UNL     1      -1.662  12.613  20.073  0.00  0.00    +0.000 A 
ATOM     16  C   UNL     1      -1.427  12.700  21.463  0.00  0.00    +0.000 A 
ATOM     17  C   UNL     1      -0.437  13.553  21.967  0.00  0.00    +0.000 A 
ATOM     18  C   UNL     1       0.280  14.370  21.098  0.00  0.00    +0.000 A 
ATOM     19 CL   UNL     1       1.550  15.358  21.709  0.00  0.00    +0.000 Cl
ATOM     20  C   UNL     1       0.004  14.359  19.732  0.00  0.00    +0.000 A 
ATOM     21  C   UNL     1      -0.960  13.483  19.220  0.00  0.00    +0.000 A 
ENDBRANCH   7  15
BRANCH   1  22
ATOM     22  C   UNL     1      -4.670  13.030  19.934  0.00  0.00    +0.000 C 
BRANCH  22  24
ATOM     23  C   UNL     1      -7.055  14.104  19.791  0.00  0.00    +0.000 C 
ATOM     24  C   UNL     1      -5.697  13.881  19.146  0.00  0.00    +0.000 C 
ENDBRANCH  22  24
BRANCH  22  25
ATOM     25  C   UNL     1      -5.433  12.437  21.166  0.00  0.00    +0.000 C 
BRANCH  25  26
ATOM     26  N   UNL     1      -4.727  12.493  22.433  0.00  0.00    +0.000 N 
ATOM     27  C   UNL     1      -5.364  12.439  23.632  0.00  0.00    +0.000 C 
ATOM     28  C   UNL     1      -4.442  12.527  24.825  0.00  0.00    +0.000 C 
ATOM     29  O   UNL     1      -6.579  12.333  23.762  0.00  0.00    +0.000 OA
ATOM     30  H   UNL     1      -3.783  12.868  22.370  0.00  0.00    +0.000 HD
ENDBRANCH  25  26
ENDBRANCH  22  25
ENDBRANCH   1  22
BRANCH   4  31
ATOM     31  C   UNL     1      -3.615  11.183  15.800  0.00  0.00    +0.000 C 
BRANCH  31  32
ATOM     32  C   UNL     1      -3.497  10.289  14.603  0.00  0.00    +0.000 C 
ATOM     33  O   UNL     1      -2.424   9.945  14.129  0.00  0.00    +0.000 OA
BRANCH  32  34
ATOM     34  O   UNL     1      -4.681   9.892  14.092  0.00  0.00    +0.000 OA
ATOM     35  H   UNL     1      -5.460  10.374  14.430  0.00  0.00    +0.000 HD
ENDBRANCH  32  34
ENDBRANCH  31  32
ENDBRANCH   4  31
TORSDOF 9
ENDMDL
MODEL 2
REMARK VINA RESULT:      -6.7      0.693      1.090
REMARK  Name = 
REMARK  11 active torsions:
REMARK  status: ('A' for Active; 'I' for Inactive)
REMARK    1  A    between atoms: C_1  and  C_2
REMARK    2  A    between atoms: C_2  and  C_3
REMARK    3  A    between atoms: C_3  and  C_4
REMARK    4  A    between atoms: C_3  and  N_9
REMARK    5  A    between atoms: C_4  and  N_5
REMARK    6  A    between atoms: C_6  and  C_7
REMARK    7  A    between atoms: C_12  and  C_13
REMARK    8  A    between atoms: C_13  and  C_14
REMARK    9  A    between atoms: C_14  and  O_16
REMARK   10  A    between atoms: C_18  and  C_19
REMARK   11  A    between atoms: C_26  and  C_27
REMARK                            x       y       z     vdW  Elec       q    Type
REMARK                         _______ _______ _______ _____ _____    ______ ____
ROOT
ATOM      1  N   UNL     1      -4.106  12.267  19.235  0.00  0.00    +0.000 N 
ATOM      2  C   UNL     1      -4.853  11.587  18.270  0.00  0.00    +0.000 C 
ATOM      3  O   UNL     1      -6.036  11.815  18.000  0.00  0.00    +0.000 OA
ATOM      4  C   UNL     1      -4.177  10.587  17.355  0.00  0.00    +0.000 C 
ATOM      5  C   UNL     1      -2.979   9.890  17.965  0.00  0.00    +0.000 C 
ATOM      6  C   UNL     1      -2.013  10.897  18.572  0.00  0.00    +0.000 C 
ATOM      7  C   UNL     1      -2.749  11.733  19.666  0.00  0.00    +0.000 C 
ENDROOT
BRANCH   6   8
ATOM      8  C   UNL     1      -0.759  10.184  19.073  0.00  0.00    +0.000 A 
ATOM      9  C   UNL     1      -0.655   9.846  20.433  0.00  0.00    +0.000 A 
ATOM     10  C   UNL     1       0.462   9.164  20.921  0.00  0.00    +0.000 A 
ATOM     11  C   UNL     1       1.494   8.807  20.057  0.00  0.00    +0.000 A 
ATOM     12  C   UNL     1       1.411   9.150  18.711  0.00  0.00    +0.000 A 
ATOM     13 CL   UNL     1       2.682   8.706  17.637  0.00  0.00    +0.000 Cl
ATOM     14  C   UNL     1       0.300   9.841  18.218  0.00  0.00    +0.000 A 
ENDBRANCH   6   8
BRANCH   7  15
ATOM     15  C   UNL     1      -1.796  12.817  20.191  0.00  0.00    +0.000 A 
ATOM     16  C   UNL     1      -1.108  13.677  19.307  0.00  0.00    +0.000 A 
ATOM     17  C   UNL     1      -0.404  14.786  19.794  0.00  0.00    +0.000 A 
ATOM     18  C   UNL     1      -0.328  15.008  21.166  0.00  0.00    +0.000 A 
ATOM     19 CL   UNL     1       0.469  16.414  21.759  0.00  0.00    +0.000 Cl
ATOM     20  C   UNL     1      -0.930  14.122  22.058  0.00  0.00    +0.000 A 
ATOM     21  C   UNL     1      -1.663  13.033  21.574  0.00  0.00    +0.000 A 
ENDBRANCH   7  15
BRANCH   1  22
ATOM     22  C   UNL     1      -4.803  13.263  20.169  0.00  0.00    +0.000 C 
BRANCH  22  24
ATOM     23  C   UNL     1      -6.634  15.137  20.106  0.00  0.00    +0.000 C 
ATOM     24  C   UNL     1      -5.563  14.351  19.367  0.00  0.00    +0.000 C 
ENDBRANCH  22  24
BRANCH  22  25
ATOM     25  C   UNL     1      -5.811  12.703  21.227  0.00  0.00    +0.000 C 
BRANCH  25  26
ATOM     26  N   UNL     1      -5.230  12.264  22.483  0.00  0.00    +0.000 N 
ATOM     27  C   UNL     1      -4.919  13.123  23.489  0.00  0.00    +0.000 C 
ATOM     28  C   UNL     1      -4.312  12.457  24.702  0.00  0.00    +0.000 C 
ATOM     29  O   UNL     1      -5.101  14.334  23.440  0.00  0.00    +0.000 OA
ATOM     30  H   UNL     1      -4.804  11.340  22.446  0.00  0.00    +0.000 HD
ENDBRANCH  25  26
ENDBRANCH  22  25
ENDBRANCH   1  22
BRANCH   4  31
ATOM     31  C   UNL     1      -3.941  11.323  16.033  0.00  0.00    +0.000 C 
BRANCH  31  32
ATOM     32  C   UNL     1      -3.541  10.409  14.914  0.00  0.00    +0.000 C 
ATOM     33  O   UNL     1      -2.377  10.161  14.637  0.00  0.00    +0.000 OA
BRANCH  32  34
ATOM     34  O   UNL     1      -4.581   9.880  14.237  0.00  0.00    +0.000 OA
ATOM     35  H   UNL     1      -4.458   9.821  13.270  0.00  0.00    +0.000 HD
ENDBRANCH  32  34
ENDBRANCH  31  32
ENDBRANCH   4  31
TORSDOF 9
ENDMDL
MODEL 3
REMARK VINA RESULT:      -6.6      1.137      1.409
REMARK  Name = 
REMARK  11 active torsions:
REMARK  status: ('A' for Active; 'I' for Inactive)
REMARK    1  A    between atoms: C_1  and  C_2
REMARK    2  A    between atoms: C_2  and  C_3
REMARK    3  A    between atoms: C_3  and  C_4
REMARK    4  A    between atoms: C_3  and  N_9
REMARK    5  A    between atoms: C_4  and  N_5
REMARK    6  A    between atoms: C_6  and  C_7
REMARK    7  A    between atoms: C_12  and  C_13
REMARK    8  A    between atoms: C_13  and  C_14
REMARK    9  A    between atoms: C_14  and  O_16
REMARK   10  A    between atoms: C_18  and  C_19
REMARK   11  A    between atoms: C_26  and  C_27
REMARK                            x       y       z     vdW  Elec       q    Type
REMARK                         _______ _______ _______ _____ _____    ______ ____
ROOT
ATOM      1  N   UNL     1      -4.093  12.330  19.441  0.00  0.00    +0.000 N 
ATOM      2  C   UNL     1      -4.938  11.658  18.554  0.00  0.00    +0.000 C 
ATOM      3  O   UNL     1      -6.143  11.888  18.414  0.00  0.00    +0.000 OA
ATOM      4  C   UNL     1      -4.364  10.666  17.564  0.00  0.00    +0.000 C 
ATOM      5  C   UNL     1      -3.107   9.964  18.038  0.00  0.00    +0.000 C 
ATOM      6  C   UNL     1      -2.082  10.967  18.548  0.00  0.00    +0.000 C 
ATOM      7  C   UNL     1      -2.698  11.793  19.720  0.00  0.00    +0.000 C 
ENDROOT
BRANCH   6   8
ATOM      8  C   UNL     1      -0.782  10.250  18.907  0.00  0.00    +0.000 A 
ATOM      9  C   UNL     1       0.149   9.962  17.894  0.00  0.00    +0.000 A 
ATOM     10  C   UNL     1       1.362   9.338  18.190  0.00  0.00    +0.000 A 
ATOM     11  C   UNL     1       1.667   8.991  19.504  0.00  0.00    +0.000 A 
ATOM     12  C   UNL     1       0.747   9.257  20.514  0.00  0.00    +0.000 A 
ATOM     13 CL   UNL     1       1.122   8.836  22.141  0.00  0.00    +0.000 Cl
ATOM     14  C   UNL     1      -0.473   9.873  20.223  0.00  0.00    +0.000 A 
ENDBRANCH   6   8
BRANCH   7  15
ATOM     15  C   UNL     1      -1.694  12.872  20.151  0.00  0.00    +0.000 A 
ATOM     16  C   UNL     1      -1.316  13.023  21.504  0.00  0.00    +0.000 A 
ATOM     17  C   UNL     1      -0.256  13.867  21.858  0.00  0.00    +0.000 A 
ATOM     18  C   UNL     1       0.391  14.614  20.878  0.00  0.00    +0.000 A 
ATOM     19 CL   UNL     1       1.745  15.588  21.303  0.00  0.00    +0.000 Cl
ATOM     20  C   UNL     1      -0.023  14.542  19.549  0.00  0.00    +0.000 A 
ATOM     21  C   UNL     1      -1.059  13.673  19.186  0.00  0.00    +0.000 A 
ENDBRANCH   7  15
BRANCH   1  22
ATOM     22  C   UNL     1      -4.686  13.318  20.452  0.00  0.00    +0.000 C 
BRANCH  22  24
ATOM     23  C   UNL     1      -6.263  15.409  20.535  0.00  0.00    +0.000 C 
ATOM     24  C   UNL     1      -5.281  14.561  19.742  0.00  0.00    +0.000 C 
ENDBRANCH  22  24
BRANCH  22  25
ATOM     25  C   UNL     1      -5.786  12.796  21.435  0.00  0.00    +0.000 C 
BRANCH  25  26
ATOM     26  N   UNL     1      -5.308  12.304  22.714  0.00  0.00    +0.000 N 
ATOM     27  C   UNL     1      -5.019  13.125  23.757  0.00  0.00    +0.000 C 
ATOM     28  C   UNL     1      -4.524  12.406  24.990  0.00  0.00    +0.000 C 
ATOM     29  O   UNL     1      -5.137  14.345  23.725  0.00  0.00    +0.000 OA
ATOM     30  H   UNL     1      -4.928  11.360  22.683  0.00  0.00    +0.000 HD
ENDBRANCH  25  26
ENDBRANCH  22  25
ENDBRANCH   1  22
BRANCH   4  31
ATOM     31  C   UNL     1      -4.268  11.413  16.231  0.00  0.00    +0.000 C 
BRANCH  31  32
ATOM     32  C   UNL     1      -3.653  10.592  15.139  0.00  0.00    +0.000 C 
ATOM     33  O   UNL     1      -2.453  10.579  14.907  0.00  0.00    +0.000 OA
BRANCH  32  34
ATOM     34  O   UNL     1      -4.541   9.862  14.431  0.00  0.00    +0.000 OA
ATOM     35  H   UNL     1      -5.374   9.658  14.899  0.00  0.00    +0.000 HD
ENDBRANCH  32  34
ENDBRANCH  31  32
ENDBRANCH   4  31
TORSDOF 9
ENDMDL
MODEL 4
REMARK VINA RESULT:      -6.5      2.152      3.203
REMARK  Name = 
REMARK  11 active torsions:
REMARK  status: ('A' for Active; 'I' for Inactive)
REMARK    1  A    between atoms: C_1  and  C_2
REMARK    2  A    between atoms: C_2  and  C_3
REMARK    3  A    between atoms: C_3  and  C_4
REMARK    4  A    between atoms: C_3  and  N_9
REMARK    5  A    between atoms: C_4  and  N_5
REMARK    6  A    between atoms: C_6  and  C_7
REMARK    7  A    between atoms: C_12  and  C_13
REMARK    8  A    between atoms: C_13  and  C_14
REMARK    9  A    between atoms: C_14  and  O_16
REMARK   10  A    between atoms: C_18  and  C_19
REMARK   11  A    between atoms: C_26  and  C_27
REMARK                            x       y       z     vdW  Elec       q    Type
REMARK                         _______ _______ _______ _____ _____    ______ ____
ROOT
ATOM      1  N   UNL     1      -1.452  12.565  19.401  0.00  0.00    +0.000 N 
ATOM      2  C   UNL     1      -2.646  12.097  18.848  0.00  0.00    +0.000 C 
ATOM      3  O   UNL     1      -3.716  12.714  18.848  0.00  0.00    +0.000 OA
ATOM      4  C   UNL     1      -2.659  10.808  18.053  0.00  0.00    +0.000 C 
ATOM      5  C   UNL     1      -1.614   9.798  18.480  0.00  0.00    +0.000 C 
ATOM      6  C   UNL     1      -0.236  10.440  18.562  0.00  0.00    +0.000 C 
ATOM      7  C   UNL     1      -0.272  11.623  19.580  0.00  0.00    +0.000 C 
ENDROOT
BRANCH   6   8
ATOM      8  C   UNL     1       0.818   9.380  18.876  0.00  0.00    +0.000 A 
ATOM      9  C   UNL     1       0.871   8.822  20.164  0.00  0.00    +0.000 A 
ATOM     10  C   UNL     1       1.799   7.827  20.479  0.00  0.00    +0.000 A 
ATOM     11  C   UNL     1       2.689   7.372  19.509  0.00  0.00    +0.000 A 
ATOM     12  C   UNL     1       2.658   7.927  18.233  0.00  0.00    +0.000 A 
ATOM     13 CL   UNL     1       3.752   7.364  17.030  0.00  0.00    +0.000 Cl
ATOM     14  C   UNL     1       1.738   8.931  17.916  0.00  0.00    +0.000 A 
ENDBRANCH   6   8
BRANCH   7  15
ATOM     15  C   UNL     1       1.092  12.330  19.571  0.00  0.00    +0.000 A 
ATOM     16  C   UNL     1       1.731  12.673  18.359  0.00  0.00    +0.000 A 
ATOM     17  C   UNL     1       2.867  13.492  18.358  0.00  0.00    +0.000 A 
ATOM     18  C   UNL     1       3.411  13.920  19.565  0.00  0.00    +0.000 A 
ATOM     19 CL   UNL     1       4.759  14.991  19.561  0.00  0.00    +0.000 Cl
ATOM     20  C   UNL     1       2.843  13.522  20.775  0.00  0.00    +0.000 A 
ATOM     21  C   UNL     1       1.688  12.733  20.779  0.00  0.00    +0.000 A 
ENDBRANCH   7  15
BRANCH   1  22
ATOM     22  C   UNL     1      -1.453  13.861  20.221  0.00  0.00    +0.000 C 
BRANCH  22  24
ATOM     23  C   UNL     1       0.129  15.853  19.592  0.00  0.00    +0.000 C 
ATOM     24  C   UNL     1      -1.162  15.094  19.327  0.00  0.00    +0.000 C 
ENDBRANCH  22  24
BRANCH  22  25
ATOM     25  C   UNL     1      -2.732  14.206  21.054  0.00  0.00    +0.000 C 
BRANCH  25  26
ATOM     26  N   UNL     1      -3.569  15.264  20.518  0.00  0.00    +0.000 N 
ATOM     27  C   UNL     1      -4.865  15.435  20.888  0.00  0.00    +0.000 C 
ATOM     28  C   UNL     1      -5.556  16.588  20.199  0.00  0.00    +0.000 C 
ATOM     29  O   UNL     1      -5.447  14.728  21.703  0.00  0.00    +0.000 OA
ATOM     30  H   UNL     1      -3.224  15.670  19.650  0.00  0.00    +0.000 HD
ENDBRANCH  25  26
ENDBRANCH  22  25
ENDBRANCH   1  22
BRANCH   4  31
ATOM     31  C   UNL     1      -2.644  11.227  16.580  0.00  0.00    +0.000 C 
BRANCH  31  32
ATOM     32  C   UNL     1      -3.890  10.835  15.844  0.00  0.00    +0.000 C 
ATOM     33  O   UNL     1      -3.877  10.195  14.802  0.00  0.00    +0.000 OA
BRANCH  32  34
ATOM     34  O   UNL     1      -5.031  11.248  16.433  0.00  0.00    +0.000 OA
ATOM     35  H   UNL     1      -5.356  12.120  16.140  0.00  0.00    +0.000 HD
ENDBRANCH  32  34
ENDBRANCH  31  32
ENDBRANCH   4  31
TORSDOF 9
ENDMDL
MODEL 5
REMARK VINA RESULT:      -6.4      3.597      5.206
REMARK  Name = 
REMARK  11 active torsions:
REMARK  status: ('A' for Active; 'I' for Inactive)
REMARK    1  A    between atoms: C_1  and  C_2
REMARK    2  A    between atoms: C_2  and  C_3
REMARK    3  A    between atoms: C_3  and  C_4
REMARK    4  A    between atoms: C_3  and  N_9
REMARK    5  A    between atoms: C_4  and  N_5
REMARK    6  A    between atoms: C_6  and  C_7
REMARK    7  A    between atoms: C_12  and  C_13
REMARK    8  A    between atoms: C_13  and  C_14
REMARK    9  A    between atoms: C_14  and  O_16
REMARK   10  A    between atoms: C_18  and  C_19
REMARK   11  A    between atoms: C_26  and  C_27
REMARK                            x       y       z     vdW  Elec       q    Type
REMARK                         _______ _______ _______ _____ _____    ______ ____
ROOT
ATOM      1  N   UNL     1      -2.349  15.016  22.544  0.00  0.00    +0.000 N 
ATOM      2  C   UNL     1      -3.638  14.747  23.012  0.00  0.00    +0.000 C 
ATOM      3  O   UNL     1      -4.433  15.597  23.424  0.00  0.00    +0.000 OA
ATOM      4  C   UNL     1      -4.210  13.349  22.896  0.00  0.00    +0.000 C 
ATOM      5  C   UNL     1      -3.176  12.243  22.946  0.00  0.00    +0.000 C 
ATOM      6  C   UNL     1      -2.041  12.512  21.968  0.00  0.00    +0.000 C 
ATOM      7  C   UNL     1      -1.368  13.878  22.311  0.00  0.00    +0.000 C 
ENDROOT
BRANCH   6   8
ATOM      8  C   UNL     1      -1.075  11.329  21.949  0.00  0.00    +0.000 A 
ATOM      9  C   UNL     1      -0.820  10.628  23.140  0.00  0.00    +0.000 A 
ATOM     10  C   UNL     1       0.031   9.522  23.155  0.00  0.00    +0.000 A 
ATOM     11  C   UNL     1       0.641   9.095  21.977  0.00  0.00    +0.000 A 
ATOM     12  C   UNL     1       0.410   9.790  20.794  0.00  0.00    +0.000 A 
ATOM     13 CL   UNL     1       1.157   9.264  19.335  0.00  0.00    +0.000 Cl
ATOM     14  C   UNL     1      -0.434  10.905  20.775  0.00  0.00    +0.000 A 
ENDBRANCH   6   8
BRANCH   7  15
ATOM     15  C   UNL     1      -0.300  14.188  21.253  0.00  0.00    +0.000 A 
ATOM     16  C   UNL     1       1.070  14.250  21.591  0.00  0.00    +0.000 A 
ATOM     17  C   UNL     1       2.048  14.330  20.592  0.00  0.00    +0.000 A 
ATOM     18  C   UNL     1       1.667  14.414  19.256  0.00  0.00    +0.000 A 
ATOM     19 CL   UNL     1       2.871  14.431  18.025  0.00  0.00    +0.000 Cl
ATOM     20  C   UNL     1       0.317  14.438  18.908  0.00  0.00    +0.000 A 
ATOM     21  C   UNL     1      -0.662  14.323  19.901  0.00  0.00    +0.000 A 
ENDBRANCH   7  15
BRANCH   1  22
ATOM     22  C   UNL     1      -1.772  16.430  22.684  0.00  0.00    +0.000 C 
BRANCH  22  24
ATOM     23  C   UNL     1      -1.105  17.932  20.644  0.00  0.00    +0.000 C 
ATOM     24  C   UNL     1      -2.207  17.335  21.504  0.00  0.00    +0.000 C 
ENDBRANCH  22  24
BRANCH  22  25
ATOM     25  C   UNL     1      -2.081  17.226  23.995  0.00  0.00    +0.000 C 
BRANCH  25  26
ATOM     26  N   UNL     1      -1.107  17.087  25.064  0.00  0.00    +0.000 N 
ATOM     27  C   UNL     1      -1.181  16.107  26.002  0.00  0.00    +0.000 C 
ATOM     28  C   UNL     1      -0.074  16.153  27.030  0.00  0.00    +0.000 C 
ATOM     29  O   UNL     1      -2.060  15.252  26.037  0.00  0.00    +0.000 OA
ATOM     30  H   UNL     1      -0.554  17.923  25.237  0.00  0.00    +0.000 HD
ENDBRANCH  25  26
ENDBRANCH  22  25
ENDBRANCH   1  22
BRANCH   4  31
ATOM     31  C   UNL     1      -5.126  13.374  21.669  0.00  0.00    +0.000 C 
BRANCH  31  32
ATOM     32  C   UNL     1      -6.439  12.689  21.900  0.00  0.00    +0.000 C 
ATOM     33  O   UNL     1      -6.674  11.550  21.522  0.00  0.00    +0.000 OA
BRANCH  32  34
ATOM     34  O   UNL     1      -7.341  13.438  22.567  0.00  0.00    +0.000 OA
ATOM     35  H   UNL     1      -8.079  13.777  22.025  0.00  0.00    +0.000 HD
ENDBRANCH  32  34
ENDBRANCH  31  32
ENDBRANCH   4  31
TORSDOF 9
ENDMDL
MODEL 6
REMARK VINA RESULT:      -6.4      2.204      3.040
REMARK  Name = 
REMARK  11 active torsions:
REMARK  status: ('A' for Active; 'I' for Inactive)
REMARK    1  A    between atoms: C_1  and  C_2
REMARK    2  A    between atoms: C_2  and  C_3
REMARK    3  A    between atoms: C_3  and  C_4
REMARK    4  A    between atoms: C_3  and  N_9
REMARK    5  A    between atoms: C_4  and  N_5
REMARK    6  A    between atoms: C_6  and  C_7
REMARK    7  A    between atoms: C_12  and  C_13
REMARK    8  A    between atoms: C_13  and  C_14
REMARK    9  A    between atoms: C_14  and  O_16
REMARK   10  A    between atoms: C_18  and  C_19
REMARK   11  A    between atoms: C_26  and  C_27
REMARK                            x       y       z     vdW  Elec       q    Type
REMARK                         _______ _______ _______ _____ _____    ______ ____
ROOT
ATOM      1  N   UNL     1      -1.516  12.439  19.384  0.00  0.00    +0.000 N 
ATOM      2  C   UNL     1      -2.689  11.955  18.800  0.00  0.00    +0.000 C 
ATOM      3  O   UNL     1      -3.773  12.547  18.793  0.00  0.00    +0.000 OA
ATOM      4  C   UNL     1      -2.656  10.685  17.975  0.00  0.00    +0.000 C 
ATOM      5  C   UNL     1      -1.595   9.690  18.398  0.00  0.00    +0.000 C 
ATOM      6  C   UNL     1      -0.235  10.363  18.520  0.00  0.00    +0.000 C 
ATOM      7  C   UNL     1      -0.317  11.521  19.563  0.00  0.00    +0.000 C 
ENDROOT
BRANCH   6   8
ATOM      8  C   UNL     1       0.838   9.321  18.830  0.00  0.00    +0.000 A 
ATOM      9  C   UNL     1       0.902   8.759  20.116  0.00  0.00    +0.000 A 
ATOM     10  C   UNL     1       1.849   7.780  20.426  0.00  0.00    +0.000 A 
ATOM     11  C   UNL     1       2.747   7.345  19.454  0.00  0.00    +0.000 A 
ATOM     12  C   UNL     1       2.704   7.905  18.181  0.00  0.00    +0.000 A 
ATOM     13 CL   UNL     1       3.808   7.366  16.974  0.00  0.00    +0.000 Cl
ATOM     14  C   UNL     1       1.766   8.892  17.867  0.00  0.00    +0.000 A 
ENDBRANCH   6   8
BRANCH   7  15
ATOM     15  C   UNL     1       1.029  12.259  19.595  0.00  0.00    +0.000 A 
ATOM     16  C   UNL     1       1.670  12.666  18.404  0.00  0.00    +0.000 A 
ATOM     17  C   UNL     1       2.786  13.511  18.446  0.00  0.00    +0.000 A 
ATOM     18  C   UNL     1       3.309  13.903  19.674  0.00  0.00    +0.000 A 
ATOM     19 CL   UNL     1       4.631  15.005  19.725  0.00  0.00    +0.000 Cl
ATOM     20  C   UNL     1       2.741  13.444  20.862  0.00  0.00    +0.000 A 
ATOM     21  C   UNL     1       1.605  12.628  20.824  0.00  0.00    +0.000 A 
ENDBRANCH   7  15
BRANCH   1  22
ATOM     22  C   UNL     1      -1.562  13.715  20.233  0.00  0.00    +0.000 C 
BRANCH  22  24
ATOM     23  C   UNL     1      -0.088  15.872  20.038  0.00  0.00    +0.000 C 
ATOM     24  C   UNL     1      -1.126  14.955  19.411  0.00  0.00    +0.000 C 
ENDBRANCH  22  24
BRANCH  22  25
ATOM     25  C   UNL     1      -2.915  14.092  20.924  0.00  0.00    +0.000 C 
BRANCH  25  26
ATOM     26  N   UNL     1      -2.940  13.971  22.371  0.00  0.00    +0.000 N 
ATOM     27  C   UNL     1      -2.766  15.033  23.200  0.00  0.00    +0.000 C 
ATOM     28  C   UNL     1      -2.816  14.682  24.670  0.00  0.00    +0.000 C 
ATOM     29  O   UNL     1      -2.579  16.182  22.817  0.00  0.00    +0.000 OA
ATOM     30  H   UNL     1      -2.799  13.023  22.714  0.00  0.00    +0.000 HD
ENDBRANCH  25  26
ENDBRANCH  22  25
ENDBRANCH   1  22
BRANCH   4  31
ATOM     31  C   UNL     1      -2.626  11.138  16.513  0.00  0.00    +0.000 C 
BRANCH  31  32
ATOM     32  C   UNL     1      -3.870  10.776  15.758  0.00  0.00    +0.000 C 
ATOM     33  O   UNL     1      -3.855  10.187  14.688  0.00  0.00    +0.000 OA
BRANCH  32  34
ATOM     34  O   UNL     1      -5.013  11.157  16.366  0.00  0.00    +0.000 OA
ATOM     35  H   UNL     1      -5.775  10.566  16.220  0.00  0.00    +0.000 HD
ENDBRANCH  32  34
ENDBRANCH  31  32
ENDBRANCH   4  31
TORSDOF 9
ENDMDL
MODEL 7
REMARK VINA RESULT:      -6.2      3.230      6.743
REMARK  Name = 
REMARK  11 active torsions:
REMARK  status: ('A' for Active; 'I' for Inactive)
REMARK    1  A    between atoms: C_1  and  C_2
REMARK    2  A    between atoms: C_2  and  C_3
REMARK    3  A    between atoms: C_3  and  C_4
REMARK    4  A    between atoms: C_3  and  N_9
REMARK    5  A    between atoms: C_4  and  N_5
REMARK    6  A    between atoms: C_6  and  C_7
REMARK    7  A    between atoms: C_12  and  C_13
REMARK    8  A    between atoms: C_13  and  C_14
REMARK    9  A    between atoms: C_14  and  O_16
REMARK   10  A    between atoms: C_18  and  C_19
REMARK   11  A    between atoms: C_26  and  C_27
REMARK                            x       y       z     vdW  Elec       q    Type
REMARK                         _______ _______ _______ _____ _____    ______ ____
ROOT
ATOM      1  N   UNL     1      -3.470  14.196  22.607  0.00  0.00    +0.000 N 
ATOM      2  C   UNL     1      -3.768  15.419  23.213  0.00  0.00    +0.000 C 
ATOM      3  O   UNL     1      -4.856  15.714  23.715  0.00  0.00    +0.000 OA
ATOM      4  C   UNL     1      -2.673  16.444  23.428  0.00  0.00    +0.000 C 
ATOM      5  C   UNL     1      -1.560  16.397  22.401  0.00  0.00    +0.000 C 
ATOM      6  C   UNL     1      -1.032  14.979  22.235  0.00  0.00    +0.000 C 
ATOM      7  C   UNL     1      -2.196  14.037  21.794  0.00  0.00    +0.000 C 
ENDROOT
BRANCH   6   8
ATOM      8  C   UNL     1       0.166  14.975  21.288  0.00  0.00    +0.000 A 
ATOM      9  C   UNL     1      -0.007  15.386  19.955  0.00  0.00    +0.000 A 
ATOM     10  C   UNL     1       1.071  15.427  19.069  0.00  0.00    +0.000 A 
ATOM     11  C   UNL     1       2.343  15.058  19.501  0.00  0.00    +0.000 A 
ATOM     12  C   UNL     1       2.526  14.635  20.814  0.00  0.00    +0.000 A 
ATOM     13 CL   UNL     1       4.097  14.184  21.355  0.00  0.00    +0.000 Cl
ATOM     14  C   UNL     1       1.448  14.582  21.703  0.00  0.00    +0.000 A 
ENDBRANCH   6   8
BRANCH   7  15
ATOM     15  C   UNL     1      -1.674  12.594  21.737  0.00  0.00    +0.000 A 
ATOM     16  C   UNL     1      -1.473  11.936  20.502  0.00  0.00    +0.000 A 
ATOM     17  C   UNL     1      -0.810  10.704  20.451  0.00  0.00    +0.000 A 
ATOM     18  C   UNL     1      -0.401  10.089  21.630  0.00  0.00    +0.000 A 
ATOM     19 CL   UNL     1       0.485   8.614  21.560  0.00  0.00    +0.000 Cl
ATOM     20  C   UNL     1      -0.665  10.682  22.863  0.00  0.00    +0.000 A 
ATOM     21  C   UNL     1      -1.296  11.930  22.917  0.00  0.00    +0.000 A 
ENDBRANCH   7  15
BRANCH   1  22
ATOM     22  C   UNL     1      -4.589  13.173  22.376  0.00  0.00    +0.000 C 
BRANCH  22  24
ATOM     23  C   UNL     1      -4.437  12.310  24.845  0.00  0.00    +0.000 C 
ATOM     24  C   UNL     1      -5.305  12.812  23.703  0.00  0.00    +0.000 C 
ENDBRANCH  22  24
BRANCH  22  25
ATOM     25  C   UNL     1      -5.711  13.527  21.345  0.00  0.00    +0.000 C 
BRANCH  25  26
ATOM     26  N   UNL     1      -5.860  12.608  20.231  0.00  0.00    +0.000 N 
ATOM     27  C   UNL     1      -6.611  11.478  20.306  0.00  0.00    +0.000 C 
ATOM     28  C   UNL     1      -6.618  10.657  19.037  0.00  0.00    +0.000 C 
ATOM     29  O   UNL     1      -7.235  11.131  21.303  0.00  0.00    +0.000 OA
ATOM     30  H   UNL     1      -5.145  12.702  19.513  0.00  0.00    +0.000 HD
ENDBRANCH  25  26
ENDBRANCH  22  25
ENDBRANCH   1  22
BRANCH   4  31
ATOM     31  C   UNL     1      -2.257  16.308  24.895  0.00  0.00    +0.000 C 
BRANCH  31  32
ATOM     32  C   UNL     1      -1.012  17.074  25.227  0.00  0.00    +0.000 C 
ATOM     33  O   UNL     1      -0.968  18.295  25.266  0.00  0.00    +0.000 OA
BRANCH  32  34
ATOM     34  O   UNL     1       0.061  16.297  25.482  0.00  0.00    +0.000 OA
ATOM     35  H   UNL     1      -0.063  15.643  26.196  0.00  0.00    +0.000 HD
ENDBRANCH  32  34
ENDBRANCH  31  32
ENDBRANCH   4  31
TORSDOF 9
ENDMDL
MODEL 8
REMARK VINA RESULT:      -6.2      1.115      1.724
REMARK  Name = 
REMARK  11 active torsions:
REMARK  status: ('A' for Active; 'I' for Inactive)
REMARK    1  A    between atoms: C_1  and  C_2
REMARK    2  A    between atoms: C_2  and  C_3
REMARK    3  A    between atoms: C_3  and  C_4
REMARK    4  A    between atoms: C_3  and  N_9
REMARK    5  A    between atoms: C_4  and  N_5
REMARK    6  A    between atoms: C_6  and  C_7
REMARK    7  A    between atoms: C_12  and  C_13
REMARK    8  A    between atoms: C_13  and  C_14
REMARK    9  A    between atoms: C_14  and  O_16
REMARK   10  A    between atoms: C_18  and  C_19
REMARK   11  A    between atoms: C_26  and  C_27
REMARK                            x       y       z     vdW  Elec       q    Type
REMARK                         _______ _______ _______ _____ _____    ______ ____
ROOT
ATOM      1  N   UNL     1      -3.756  12.221  19.161  0.00  0.00    +0.000 N 
ATOM      2  C   UNL     1      -4.602  11.560  18.267  0.00  0.00    +0.000 C 
ATOM      3  O   UNL     1      -5.798  11.818  18.101  0.00  0.00    +0.000 OA
ATOM      4  C   UNL     1      -4.035  10.541  17.300  0.00  0.00    +0.000 C 
ATOM      5  C   UNL     1      -2.805   9.814  17.805  0.00  0.00    +0.000 C 
ATOM      6  C   UNL     1      -1.765  10.798  18.322  0.00  0.00    +0.000 C 
ATOM      7  C   UNL     1      -2.381  11.653  19.473  0.00  0.00    +0.000 C 
ENDROOT
BRANCH   6   8
ATOM      8  C   UNL     1      -0.490  10.053  18.714  0.00  0.00    +0.000 A 
ATOM      9  C   UNL     1       0.440   9.708  17.718  0.00  0.00    +0.000 A 
ATOM     10  C   UNL     1       1.632   9.057  18.043  0.00  0.00    +0.000 A 
ATOM     11  C   UNL     1       1.915   8.740  19.369  0.00  0.00    +0.000 A 
ATOM     12  C   UNL     1       0.995   9.061  20.363  0.00  0.00    +0.000 A 
ATOM     13 CL   UNL     1       1.343   8.676  22.005  0.00  0.00    +0.000 Cl
ATOM     14  C   UNL     1      -0.204   9.704  20.043  0.00  0.00    +0.000 A 
ENDBRANCH   6   8
BRANCH   7  15
ATOM     15  C   UNL     1      -1.358  12.712  19.909  0.00  0.00    +0.000 A 
ATOM     16  C   UNL     1      -0.844  13.655  18.991  0.00  0.00    +0.000 A 
ATOM     17  C   UNL     1      -0.074  14.737  19.437  0.00  0.00    +0.000 A 
ATOM     18  C   UNL     1       0.243  14.851  20.787  0.00  0.00    +0.000 A 
ATOM     19 CL   UNL     1       1.121  16.223  21.344  0.00  0.00    +0.000 Cl
ATOM     20  C   UNL     1      -0.185  13.884  21.696  0.00  0.00    +0.000 A 
ATOM     21  C   UNL     1      -0.984  12.821  21.260  0.00  0.00    +0.000 A 
ENDBRANCH   7  15
BRANCH   1  22
ATOM     22  C   UNL     1      -4.343  13.236  20.149  0.00  0.00    +0.000 C 
BRANCH  22  24
ATOM     23  C   UNL     1      -5.912  15.325  19.952  0.00  0.00    +0.000 C 
ATOM     24  C   UNL     1      -5.645  13.871  19.598  0.00  0.00    +0.000 C 
ENDBRANCH  22  24
BRANCH  22  25
ATOM     25  C   UNL     1      -4.662  12.751  21.602  0.00  0.00    +0.000 C 
BRANCH  25  26
ATOM     26  N   UNL     1      -4.055  13.521  22.673  0.00  0.00    +0.000 N 
ATOM     27  C   UNL     1      -4.136  13.154  23.979  0.00  0.00    +0.000 C 
ATOM     28  C   UNL     1      -3.445  14.104  24.930  0.00  0.00    +0.000 C 
ATOM     29  O   UNL     1      -4.715  12.149  24.377  0.00  0.00    +0.000 OA
ATOM     30  H   UNL     1      -3.831  14.482  22.422  0.00  0.00    +0.000 HD
ENDBRANCH  25  26
ENDBRANCH  22  25
ENDBRANCH   1  22
BRANCH   4  31
ATOM     31  C   UNL     1      -3.896  11.270  15.960  0.00  0.00    +0.000 C 
BRANCH  31  32
ATOM     32  C   UNL     1      -3.617  10.345  14.813  0.00  0.00    +0.000 C 
ATOM     33  O   UNL     1      -4.499   9.822  14.147  0.00  0.00    +0.000 OA
BRANCH  32  34
ATOM     34  O   UNL     1      -2.305  10.141  14.576  0.00  0.00    +0.000 OA
ATOM     35  H   UNL     1      -1.951   9.295  14.910  0.00  0.00    +0.000 HD
ENDBRANCH  32  34
ENDBRANCH  31  32
ENDBRANCH   4  31
TORSDOF 9
ENDMDL
MODEL 9
REMARK VINA RESULT:      -6.2      4.388      7.548
REMARK  Name = 
REMARK  11 active torsions:
REMARK  status: ('A' for Active; 'I' for Inactive)
REMARK    1  A    between atoms: C_1  and  C_2
REMARK    2  A    between atoms: C_2  and  C_3
REMARK    3  A    between atoms: C_3  and  C_4
REMARK    4  A    between atoms: C_3  and  N_9
REMARK    5  A    between atoms: C_4  and  N_5
REMARK    6  A    between atoms: C_6  and  C_7
REMARK    7  A    between atoms: C_12  and  C_13
REMARK    8  A    between atoms: C_13  and  C_14
REMARK    9  A    between atoms: C_14  and  O_16
REMARK   10  A    between atoms: C_18  and  C_19
REMARK   11  A    between atoms: C_26  and  C_27
REMARK                            x       y       z     vdW  Elec       q    Type
REMARK                         _______ _______ _______ _____ _____    ______ ____
ROOT
ATOM      1  N   UNL     1       0.385  13.710  20.736  0.00  0.00    +0.000 N 
ATOM      2  C   UNL     1       0.839  12.471  20.279  0.00  0.00    +0.000 C 
ATOM      3  O   UNL     1       1.965  12.254  19.820  0.00  0.00    +0.000 OA
ATOM      4  C   UNL     1      -0.015  11.234  20.469  0.00  0.00    +0.000 C 
ATOM      5  C   UNL     1      -1.507  11.499  20.480  0.00  0.00    +0.000 C 
ATOM      6  C   UNL     1      -1.853  12.623  21.446  0.00  0.00    +0.000 C 
ATOM      7  C   UNL     1      -1.091  13.921  21.032  0.00  0.00    +0.000 C 
ENDROOT
BRANCH   6   8
ATOM      8  C   UNL     1      -3.369  12.791  21.531  0.00  0.00    +0.000 A 
ATOM      9  C   UNL     1      -4.106  13.002  20.354  0.00  0.00    +0.000 A 
ATOM     10  C   UNL     1      -5.497  13.127  20.389  0.00  0.00    +0.000 A 
ATOM     11  C   UNL     1      -6.174  13.041  21.603  0.00  0.00    +0.000 A 
ATOM     12  C   UNL     1      -5.455  12.847  22.778  0.00  0.00    +0.000 A 
ATOM     13 CL   UNL     1      -6.288  12.734  24.281  0.00  0.00    +0.000 Cl
ATOM     14  C   UNL     1      -4.062  12.731  22.751  0.00  0.00    +0.000 A 
ENDBRANCH   6   8
BRANCH   7  15
ATOM     15  C   UNL     1      -1.364  15.013  22.076  0.00  0.00    +0.000 A 
ATOM     16  C   UNL     1      -2.083  16.183  21.742  0.00  0.00    +0.000 A 
ATOM     17  C   UNL     1      -2.501  17.072  22.739  0.00  0.00    +0.000 A 
ATOM     18  C   UNL     1      -2.151  16.838  24.066  0.00  0.00    +0.000 A 
ATOM     19 CL   UNL     1      -2.732  17.888  25.299  0.00  0.00    +0.000 Cl
ATOM     20  C   UNL     1      -1.370  15.734  24.405  0.00  0.00    +0.000 A 
ATOM     21  C   UNL     1      -0.981  14.824  23.415  0.00  0.00    +0.000 A 
ENDBRANCH   7  15
BRANCH   1  22
ATOM     22  C   UNL     1       1.248  14.959  20.522  0.00  0.00    +0.000 C 
BRANCH  22  24
ATOM     23  C   UNL     1       2.452  16.162  22.515  0.00  0.00    +0.000 C 
ATOM     24  C   UNL     1       2.428  15.007  21.526  0.00  0.00    +0.000 C 
ENDBRANCH  22  24
BRANCH  22  25
ATOM     25  C   UNL     1       1.860  15.199  19.102  0.00  0.00    +0.000 C 
BRANCH  25  26
ATOM     26  N   UNL     1       3.266  14.867  18.955  0.00  0.00    +0.000 N 
ATOM     27  C   UNL     1       3.986  15.190  17.850  0.00  0.00    +0.000 C 
ATOM     28  C   UNL     1       5.428  14.738  17.899  0.00  0.00    +0.000 C 
ATOM     29  O   UNL     1       3.531  15.791  16.883  0.00  0.00    +0.000 OA
ATOM     30  H   UNL     1       3.590  14.134  19.584  0.00  0.00    +0.000 HD
ENDBRANCH  25  26
ENDBRANCH  22  25
ENDBRANCH   1  22
BRANCH   4  31
ATOM     31  C   UNL     1       0.561  10.512  21.690  0.00  0.00    +0.000 C 
BRANCH  31  32
ATOM     32  C   UNL     1      -0.289   9.367  22.152  0.00  0.00    +0.000 C 
ATOM     33  O   UNL     1      -0.444   8.344  21.501  0.00  0.00    +0.000 OA
BRANCH  32  34
ATOM     34  O   UNL     1      -0.868   9.561  23.355  0.00  0.00    +0.000 OA
ATOM     35  H   UNL     1      -0.631   8.906  24.039  0.00  0.00    +0.000 HD
ENDBRANCH  32  34
ENDBRANCH  31  32
ENDBRANCH   4  31
TORSDOF 9
ENDMDL
