MODEL 1
REMARK VINA RESULT:      -7.3      0.000      0.000
REMARK  Name = 
REMARK  5 active torsions:
REMARK  status: ('A' for Active; 'I' for Inactive)
REMARK    1  A    between atoms: C_1  and  O_2
REMARK    2  A    between atoms: O_2  and  C_3
REMARK    3  A    between atoms: C_9  and  C_10
REMARK    4  A    between atoms: C_16  and  C_17
REMARK    5  A    between atoms: C_23  and  C_24
REMARK                            x       y       z     vdW  Elec       q    Type
REMARK                         _______ _______ _______ _____ _____    ______ ____
ROOT
ATOM      1  C   UNL     1       3.890   4.468  19.085  0.00  0.00    +0.000 A 
ATOM      2  C   UNL     1       3.718   3.242  19.758  0.00  0.00    +0.000 A 
ATOM      3  C   UNL     1       2.772   3.121  20.763  0.00  0.00    +0.000 A 
ATOM      4  N   UNL     1       1.975   4.109  21.203  0.00  0.00    +0.000 NA
ATOM      5  C   UNL     1       2.166   5.269  20.551  0.00  0.00    +0.000 A 
ATOM      6  N   UNL     1       1.464   6.395  20.857  0.00  0.00    +0.000 N 
ATOM      7  C   UNL     1       1.844   7.445  20.058  0.00  0.00    +0.000 A 
ATOM      8  C   UNL     1       2.789   6.943  19.159  0.00  0.00    +0.000 A 
ATOM      9  C   UNL     1       3.404   7.749  18.065  0.00  0.00    +0.000 C 
ATOM     10  C   UNL     1       3.045   5.549  19.511  0.00  0.00    +0.000 A 
ATOM     11  H   UNL     1       0.767   6.409  21.591  0.00  0.00    +0.000 HD
ENDROOT
BRANCH   1  18
ATOM     12  C   UNL     1       6.254   4.824  18.158  0.00  0.00    +0.000 A 
ATOM     13  C   UNL     1       7.144   4.660  17.081  0.00  0.00    +0.000 A 
ATOM     14  C   UNL     1       6.668   4.343  15.813  0.00  0.00    +0.000 A 
ATOM     15  C   UNL     1       5.302   4.301  15.603  0.00  0.00    +0.000 A 
ATOM     16  F   UNL     1       4.829   3.982  14.392  0.00  0.00    +0.000 F 
ATOM     17  C   UNL     1       4.412   4.506  16.651  0.00  0.00    +0.000 A 
ATOM     18  C   UNL     1       4.863   4.622  17.976  0.00  0.00    +0.000 A 
BRANCH  12  20
ATOM     19  C   UNL     1       8.011   5.734  19.445  0.00  0.00    +0.000 C 
ATOM     20  O   UNL     1       6.722   5.118  19.418  0.00  0.00    +0.000 OA
ENDBRANCH  12  20
ENDBRANCH   1  18
BRANCH   7  21
ATOM     21  C   UNL     1       1.260   8.834  20.196  0.00  0.00    +0.000 C 
ATOM     22  C   UNL     1       1.909   9.664  21.304  0.00  0.00    +0.000 C 
ATOM     23  C   UNL     1       1.415   9.292  22.705  0.00  0.00    +0.000 C 
ATOM     24  N   UNL     1      -0.041   9.234  22.822  0.00  0.00    +0.000 NA
ATOM     25  C   UNL     1      -0.700   8.454  21.774  0.00  0.00    +0.000 C 
ATOM     26  C   UNL     1      -0.261   8.838  20.363  0.00  0.00    +0.000 C 
ATOM     27  H   UNL     1      -0.413  10.182  22.812  0.00  0.00    +0.000 HD
ENDBRANCH   7  21
TORSDOF 3
ENDMDL
MODEL 2
REMARK VINA RESULT:      -7.0      3.994      7.555
REMARK  Name = 
REMARK  5 active torsions:
REMARK  status: ('A' for Active; 'I' for Inactive)
REMARK    1  A    between atoms: C_1  and  O_2
REMARK    2  A    between atoms: O_2  and  C_3
REMARK    3  A    between atoms: C_9  and  C_10
REMARK    4  A    between atoms: C_16  and  C_17
REMARK    5  A    between atoms: C_23  and  C_24
REMARK                            x       y       z     vdW  Elec       q    Type
REMARK                         _______ _______ _______ _____ _____    ______ ____
ROOT
ATOM      1  C   UNL     1       0.707  10.324  20.447  0.00  0.00    +0.000 A 
ATOM      2  C   UNL     1       0.335  10.371  21.806  0.00  0.00    +0.000 A 
ATOM      3  C   UNL     1       0.550   9.279  22.630  0.00  0.00    +0.000 A 
ATOM      4  N   UNL     1       1.081   8.106  22.244  0.00  0.00    +0.000 NA
ATOM      5  C   UNL     1       1.417   8.085  20.942  0.00  0.00    +0.000 A 
ATOM      6  N   UNL     1       1.960   6.983  20.353  0.00  0.00    +0.000 N 
ATOM      7  C   UNL     1       2.209   7.207  19.023  0.00  0.00    +0.000 A 
ATOM      8  C   UNL     1       1.864   8.538  18.769  0.00  0.00    +0.000 A 
ATOM      9  C   UNL     1       2.053   9.208  17.450  0.00  0.00    +0.000 C 
ATOM     10  C   UNL     1       1.296   9.094  19.994  0.00  0.00    +0.000 A 
ATOM     11  H   UNL     1       2.134   6.130  20.871  0.00  0.00    +0.000 HD
ENDROOT
BRANCH   1  18
ATOM     12  C   UNL     1      -0.638  11.740  18.786  0.00  0.00    +0.000 A 
ATOM     13  C   UNL     1      -0.848  13.001  18.200  0.00  0.00    +0.000 A 
ATOM     14  C   UNL     1       0.109  14.004  18.318  0.00  0.00    +0.000 A 
ATOM     15  C   UNL     1       1.316  13.708  18.924  0.00  0.00    +0.000 A 
ATOM     16  F   UNL     1       2.241  14.667  19.059  0.00  0.00    +0.000 F 
ATOM     17  C   UNL     1       1.552  12.451  19.468  0.00  0.00    +0.000 A 
ATOM     18  C   UNL     1       0.532  11.489  19.546  0.00  0.00    +0.000 A 
BRANCH  12  20
ATOM     19  C   UNL     1      -1.566  10.021  17.461  0.00  0.00    +0.000 C 
ATOM     20  O   UNL     1      -1.590  10.752  18.689  0.00  0.00    +0.000 OA
ENDBRANCH  12  20
ENDBRANCH   1  18
BRANCH   7  21
ATOM     21  C   UNL     1       2.777   6.147  18.104  0.00  0.00    +0.000 C 
ATOM     22  C   UNL     1       2.228   4.746  18.371  0.00  0.00    +0.000 C 
ATOM     23  C   UNL     1       2.868   4.069  19.586  0.00  0.00    +0.000 C 
ATOM     24  N   UNL     1       4.330   4.113  19.586  0.00  0.00    +0.000 NA
ATOM     25  C   UNL     1       4.894   5.437  19.325  0.00  0.00    +0.000 C 
ATOM     26  C   UNL     1       4.307   6.115  18.089  0.00  0.00    +0.000 C 
ATOM     27  H   UNL     1       4.681   3.460  18.887  0.00  0.00    +0.000 HD
ENDBRANCH   7  21
TORSDOF 3
ENDMDL
MODEL 3
REMARK VINA RESULT:      -7.0      1.301      1.598
REMARK  Name = 
REMARK  5 active torsions:
REMARK  status: ('A' for Active; 'I' for Inactive)
REMARK    1  A    between atoms: C_1  and  O_2
REMARK    2  A    between atoms: O_2  and  C_3
REMARK    3  A    between atoms: C_9  and  C_10
REMARK    4  A    between atoms: C_16  and  C_17
REMARK    5  A    between atoms: C_23  and  C_24
REMARK                            x       y       z     vdW  Elec       q    Type
REMARK                         _______ _______ _______ _____ _____    ______ ____
ROOT
ATOM      1  C   UNL     1       3.792   4.909  18.721  0.00  0.00    +0.000 A 
ATOM      2  C   UNL     1       3.418   3.783  19.481  0.00  0.00    +0.000 A 
ATOM      3  C   UNL     1       2.399   3.875  20.415  0.00  0.00    +0.000 A 
ATOM      4  N   UNL     1       1.710   4.991  20.707  0.00  0.00    +0.000 NA
ATOM      5  C   UNL     1       2.094   6.052  19.975  0.00  0.00    +0.000 A 
ATOM      6  N   UNL     1       1.526   7.280  20.129  0.00  0.00    +0.000 N 
ATOM      7  C   UNL     1       2.091   8.195  19.276  0.00  0.00    +0.000 A 
ATOM      8  C   UNL     1       3.021   7.497  18.499  0.00  0.00    +0.000 A 
ATOM      9  C   UNL     1       3.806   8.114  17.391  0.00  0.00    +0.000 C 
ATOM     10  C   UNL     1       3.069   6.122  18.986  0.00  0.00    +0.000 A 
ATOM     11  H   UNL     1       0.789   7.449  20.803  0.00  0.00    +0.000 HD
ENDROOT
BRANCH   1  18
ATOM     12  C   UNL     1       6.237   4.789  17.959  0.00  0.00    +0.000 A 
ATOM     13  C   UNL     1       7.150   4.420  16.954  0.00  0.00    +0.000 A 
ATOM     14  C   UNL     1       6.709   4.143  15.665  0.00  0.00    +0.000 A 
ATOM     15  C   UNL     1       5.377   4.342  15.358  0.00  0.00    +0.000 A 
ATOM     16  F   UNL     1       4.933   4.064  14.124  0.00  0.00    +0.000 F 
ATOM     17  C   UNL     1       4.472   4.749  16.331  0.00  0.00    +0.000 A 
ATOM     18  C   UNL     1       4.848   4.837  17.681  0.00  0.00    +0.000 A 
BRANCH  12  20
ATOM     19  C   UNL     1       7.866   5.820  19.323  0.00  0.00    +0.000 C 
ATOM     20  O   UNL     1       6.667   5.046  19.240  0.00  0.00    +0.000 OA
ENDBRANCH  12  20
ENDBRANCH   1  18
BRANCH   7  21
ATOM     21  C   UNL     1       1.685   9.653  19.250  0.00  0.00    +0.000 C 
ATOM     22  C   UNL     1       0.847  10.077  20.455  0.00  0.00    +0.000 C 
ATOM     23  C   UNL     1      -0.618   9.644  20.354  0.00  0.00    +0.000 C 
ATOM     24  N   UNL     1      -1.249   9.984  19.079  0.00  0.00    +0.000 NA
ATOM     25  C   UNL     1      -0.472   9.600  17.901  0.00  0.00    +0.000 C 
ATOM     26  C   UNL     1       0.982  10.062  17.954  0.00  0.00    +0.000 C 
ATOM     27  H   UNL     1      -1.419  10.988  19.052  0.00  0.00    +0.000 HD
ENDBRANCH   7  21
TORSDOF 3
ENDMDL
MODEL 4
REMARK VINA RESULT:      -7.0      7.624     10.789
REMARK  Name = 
REMARK  5 active torsions:
REMARK  status: ('A' for Active; 'I' for Inactive)
REMARK    1  A    between atoms: C_1  and  O_2
REMARK    2  A    between atoms: O_2  and  C_3
REMARK    3  A    between atoms: C_9  and  C_10
REMARK    4  A    between atoms: C_16  and  C_17
REMARK    5  A    between atoms: C_23  and  C_24
REMARK                            x       y       z     vdW  Elec       q    Type
REMARK                         _______ _______ _______ _____ _____    ______ ____
ROOT
ATOM      1  C   UNL     1      -4.305  11.296  17.413  0.00  0.00    +0.000 A 
ATOM      2  C   UNL     1      -4.054  10.436  16.325  0.00  0.00    +0.000 A 
ATOM      3  C   UNL     1      -2.825   9.809  16.196  0.00  0.00    +0.000 A 
ATOM      4  N   UNL     1      -1.782   9.963  17.030  0.00  0.00    +0.000 NA
ATOM      5  C   UNL     1      -2.046  10.796  18.052  0.00  0.00    +0.000 A 
ATOM      6  N   UNL     1      -1.115  11.094  19.001  0.00  0.00    +0.000 N 
ATOM      7  C   UNL     1      -1.620  11.968  19.930  0.00  0.00    +0.000 A 
ATOM      8  C   UNL     1      -2.958  12.186  19.589  0.00  0.00    +0.000 A 
ATOM      9  C   UNL     1      -3.894  13.024  20.394  0.00  0.00    +0.000 C 
ATOM     10  C   UNL     1      -3.223  11.477  18.341  0.00  0.00    +0.000 A 
ATOM     11  H   UNL     1      -0.182  10.701  18.977  0.00  0.00    +0.000 HD
ENDROOT
BRANCH   1  18
ATOM     12  C   UNL     1      -6.564  11.567  18.595  0.00  0.00    +0.000 A 
ATOM     13  C   UNL     1      -7.642  12.413  18.914  0.00  0.00    +0.000 A 
ATOM     14  C   UNL     1      -7.826  13.611  18.233  0.00  0.00    +0.000 A 
ATOM     15  C   UNL     1      -7.000  13.907  17.166  0.00  0.00    +0.000 A 
ATOM     16  F   UNL     1      -7.155  15.065  16.510  0.00  0.00    +0.000 F 
ATOM     17  C   UNL     1      -5.959  13.058  16.812  0.00  0.00    +0.000 A 
ATOM     18  C   UNL     1      -5.622  11.949  17.606  0.00  0.00    +0.000 A 
BRANCH  12  20
ATOM     19  C   UNL     1      -7.366  10.095  20.257  0.00  0.00    +0.000 C 
ATOM     20  O   UNL     1      -6.366  10.390  19.279  0.00  0.00    +0.000 OA
ENDBRANCH  12  20
ENDBRANCH   1  18
BRANCH   7  21
ATOM     21  C   UNL     1      -0.800  12.506  21.083  0.00  0.00    +0.000 C 
ATOM     22  C   UNL     1       0.670  12.089  21.036  0.00  0.00    +0.000 C 
ATOM     23  C   UNL     1       0.906  10.652  21.508  0.00  0.00    +0.000 C 
ATOM     24  N   UNL     1       0.270  10.339  22.788  0.00  0.00    +0.000 NA
ATOM     25  C   UNL     1      -1.136  10.730  22.874  0.00  0.00    +0.000 C 
ATOM     26  C   UNL     1      -1.393  12.175  22.455  0.00  0.00    +0.000 C 
ATOM     27  H   UNL     1       0.789  10.797  23.536  0.00  0.00    +0.000 HD
ENDBRANCH   7  21
TORSDOF 3
ENDMDL
MODEL 5
REMARK VINA RESULT:      -6.8      2.080      2.735
REMARK  Name = 
REMARK  5 active torsions:
REMARK  status: ('A' for Active; 'I' for Inactive)
REMARK    1  A    between atoms: C_1  and  O_2
REMARK    2  A    between atoms: O_2  and  C_3
REMARK    3  A    between atoms: C_9  and  C_10
REMARK    4  A    between atoms: C_16  and  C_17
REMARK    5  A    between atoms: C_23  and  C_24
REMARK                            x       y       z     vdW  Elec       q    Type
REMARK                         _______ _______ _______ _____ _____    ______ ____
ROOT
ATOM      1  C   UNL     1       3.513   5.194  19.337  0.00  0.00    +0.000 A 
ATOM      2  C   UNL     1       3.108   4.393  20.423  0.00  0.00    +0.000 A 
ATOM      3  C   UNL     1       2.074   4.801  21.249  0.00  0.00    +0.000 A 
ATOM      4  N   UNL     1       1.396   5.956  21.133  0.00  0.00    +0.000 NA
ATOM      5  C   UNL     1       1.809   6.706  20.095  0.00  0.00    +0.000 A 
ATOM      6  N   UNL     1       1.255   7.918  19.814  0.00  0.00    +0.000 N 
ATOM      7  C   UNL     1       1.849   8.487  18.716  0.00  0.00    +0.000 A 
ATOM      8  C   UNL     1       2.783   7.563  18.240  0.00  0.00    +0.000 A 
ATOM      9  C   UNL     1       3.598   7.764  17.007  0.00  0.00    +0.000 C 
ATOM     10  C   UNL     1       2.802   6.431  19.163  0.00  0.00    +0.000 A 
ATOM     11  H   UNL     1       0.508   8.309  20.375  0.00  0.00    +0.000 HD
ENDROOT
BRANCH   1  18
ATOM     12  C   UNL     1       4.362   4.043  17.210  0.00  0.00    +0.000 A 
ATOM     13  C   UNL     1       5.376   3.941  16.240  0.00  0.00    +0.000 A 
ATOM     14  C   UNL     1       6.627   4.509  16.461  0.00  0.00    +0.000 A 
ATOM     15  C   UNL     1       6.892   5.080  17.692  0.00  0.00    +0.000 A 
ATOM     16  F   UNL     1       8.086   5.645  17.915  0.00  0.00    +0.000 F 
ATOM     17  C   UNL     1       5.912   5.147  18.675  0.00  0.00    +0.000 A 
ATOM     18  C   UNL     1       4.587   4.769  18.407  0.00  0.00    +0.000 A 
BRANCH  12  20
ATOM     19  C   UNL     1       2.932   2.195  17.542  0.00  0.00    +0.000 C 
ATOM     20  O   UNL     1       3.119   3.499  16.987  0.00  0.00    +0.000 OA
ENDBRANCH  12  20
ENDBRANCH   1  18
BRANCH   7  21
ATOM     21  C   UNL     1       1.465   9.854  18.191  0.00  0.00    +0.000 C 
ATOM     22  C   UNL     1       1.904  11.004  19.098  0.00  0.00    +0.000 C 
ATOM     23  C   UNL     1       0.997  11.192  20.317  0.00  0.00    +0.000 C 
ATOM     24  N   UNL     1      -0.428  11.241  19.992  0.00  0.00    +0.000 NA
ATOM     25  C   UNL     1      -0.885  10.160  19.119  0.00  0.00    +0.000 C 
ATOM     26  C   UNL     1      -0.026   9.983  17.870  0.00  0.00    +0.000 C 
ATOM     27  H   UNL     1      -0.636  12.135  19.550  0.00  0.00    +0.000 HD
ENDBRANCH   7  21
TORSDOF 3
ENDMDL
MODEL 6
REMARK VINA RESULT:      -6.7      2.637      4.387
REMARK  Name = 
REMARK  5 active torsions:
REMARK  status: ('A' for Active; 'I' for Inactive)
REMARK    1  A    between atoms: C_1  and  O_2
REMARK    2  A    between atoms: O_2  and  C_3
REMARK    3  A    between atoms: C_9  and  C_10
REMARK    4  A    between atoms: C_16  and  C_17
REMARK    5  A    between atoms: C_23  and  C_24
REMARK                            x       y       z     vdW  Elec       q    Type
REMARK                         _______ _______ _______ _____ _____    ______ ____
ROOT
ATOM      1  C   UNL     1       4.324   6.502  16.862  0.00  0.00    +0.000 A 
ATOM      2  C   UNL     1       4.068   7.885  16.956  0.00  0.00    +0.000 A 
ATOM      3  C   UNL     1       3.079   8.358  17.803  0.00  0.00    +0.000 A 
ATOM      4  N   UNL     1       2.277   7.595  18.565  0.00  0.00    +0.000 NA
ATOM      5  C   UNL     1       2.535   6.281  18.448  0.00  0.00    +0.000 A 
ATOM      6  N   UNL     1       1.824   5.341  19.130  0.00  0.00    +0.000 N 
ATOM      7  C   UNL     1       2.272   4.077  18.838  0.00  0.00    +0.000 A 
ATOM      8  C   UNL     1       3.363   4.227  17.977  0.00  0.00    +0.000 A 
ATOM      9  C   UNL     1       4.189   3.090  17.476  0.00  0.00    +0.000 C 
ATOM     10  C   UNL     1       3.502   5.648  17.674  0.00  0.00    +0.000 A 
ATOM     11  H   UNL     1       1.068   5.590  19.755  0.00  0.00    +0.000 HD
ENDROOT
BRANCH   1  18
ATOM     12  C   UNL     1       6.770   5.912  16.372  0.00  0.00    +0.000 A 
ATOM     13  C   UNL     1       7.677   5.123  15.642  0.00  0.00    +0.000 A 
ATOM     14  C   UNL     1       7.257   4.419  14.518  0.00  0.00    +0.000 A 
ATOM     15  C   UNL     1       5.962   4.593  14.066  0.00  0.00    +0.000 A 
ATOM     16  F   UNL     1       5.538   3.911  12.995  0.00  0.00    +0.000 F 
ATOM     17  C   UNL     1       5.070   5.407  14.754  0.00  0.00    +0.000 A 
ATOM     18  C   UNL     1       5.404   5.963  16.000  0.00  0.00    +0.000 A 
BRANCH  12  20
ATOM     19  C   UNL     1       7.518   5.762  18.606  0.00  0.00    +0.000 C 
ATOM     20  O   UNL     1       7.177   6.595  17.495  0.00  0.00    +0.000 OA
ENDBRANCH  12  20
ENDBRANCH   1  18
BRANCH   7  21
ATOM     21  C   UNL     1       1.645   2.829  19.421  0.00  0.00    +0.000 C 
ATOM     22  C   UNL     1       0.824   3.088  20.684  0.00  0.00    +0.000 C 
ATOM     23  C   UNL     1       1.685   3.268  21.937  0.00  0.00    +0.000 C 
ATOM     24  N   UNL     1       2.689   2.221  22.121  0.00  0.00    +0.000 NA
ATOM     25  C   UNL     1       3.491   1.938  20.930  0.00  0.00    +0.000 C 
ATOM     26  C   UNL     1       2.654   1.706  19.675  0.00  0.00    +0.000 C 
ATOM     27  H   UNL     1       2.224   1.365  22.418  0.00  0.00    +0.000 HD
ENDBRANCH   7  21
TORSDOF 3
ENDMDL
MODEL 7
REMARK VINA RESULT:      -6.4      7.911     11.025
REMARK  Name = 
REMARK  5 active torsions:
REMARK  status: ('A' for Active; 'I' for Inactive)
REMARK    1  A    between atoms: C_1  and  O_2
REMARK    2  A    between atoms: O_2  and  C_3
REMARK    3  A    between atoms: C_9  and  C_10
REMARK    4  A    between atoms: C_16  and  C_17
REMARK    5  A    between atoms: C_23  and  C_24
REMARK                            x       y       z     vdW  Elec       q    Type
REMARK                         _______ _______ _______ _____ _____    ______ ____
ROOT
ATOM      1  C   UNL     1      -4.397  11.495  17.244  0.00  0.00    +0.000 A 
ATOM      2  C   UNL     1      -4.064  10.704  16.126  0.00  0.00    +0.000 A 
ATOM      3  C   UNL     1      -2.845  10.047  16.071  0.00  0.00    +0.000 A 
ATOM      4  N   UNL     1      -1.886  10.108  17.010  0.00  0.00    +0.000 NA
ATOM      5  C   UNL     1      -2.226  10.877  18.060  0.00  0.00    +0.000 A 
ATOM      6  N   UNL     1      -1.385  11.076  19.113  0.00  0.00    +0.000 N 
ATOM      7  C   UNL     1      -1.956  11.900  20.050  0.00  0.00    +0.000 A 
ATOM      8  C   UNL     1      -3.247  12.187  19.599  0.00  0.00    +0.000 A 
ATOM      9  C   UNL     1      -4.235  12.997  20.368  0.00  0.00    +0.000 C 
ATOM     10  C   UNL     1      -3.407  11.575  18.283  0.00  0.00    +0.000 A 
ATOM     11  H   UNL     1      -0.465  10.655  19.150  0.00  0.00    +0.000 HD
ENDROOT
BRANCH   1  18
ATOM     12  C   UNL     1      -6.732  11.794  18.261  0.00  0.00    +0.000 A 
ATOM     13  C   UNL     1      -7.811  12.658  18.522  0.00  0.00    +0.000 A 
ATOM     14  C   UNL     1      -7.914  13.879  17.865  0.00  0.00    +0.000 A 
ATOM     15  C   UNL     1      -7.002  14.182  16.871  0.00  0.00    +0.000 A 
ATOM     16  F   UNL     1      -7.079  15.361  16.239  0.00  0.00    +0.000 F 
ATOM     17  C   UNL     1      -5.958  13.315  16.572  0.00  0.00    +0.000 A 
ATOM     18  C   UNL     1      -5.709  12.177  17.357  0.00  0.00    +0.000 A 
BRANCH  12  20
ATOM     19  C   UNL     1      -7.209  10.572  20.224  0.00  0.00    +0.000 C 
ATOM     20  O   UNL     1      -6.615  10.594  18.923  0.00  0.00    +0.000 OA
ENDBRANCH  12  20
ENDBRANCH   1  18
BRANCH   7  21
ATOM     21  C   UNL     1      -1.238  12.329  21.312  0.00  0.00    +0.000 C 
ATOM     22  C   UNL     1      -0.494  13.657  21.172  0.00  0.00    +0.000 C 
ATOM     23  C   UNL     1       0.840  13.526  20.431  0.00  0.00    +0.000 C 
ATOM     24  N   UNL     1       1.693  12.450  20.933  0.00  0.00    +0.000 NA
ATOM     25  C   UNL     1       1.013  11.164  21.088  0.00  0.00    +0.000 C 
ATOM     26  C   UNL     1      -0.297  11.258  21.867  0.00  0.00    +0.000 C 
ATOM     27  H   UNL     1       2.083  12.729  21.832  0.00  0.00    +0.000 HD
ENDBRANCH   7  21
TORSDOF 3
ENDMDL
MODEL 8
REMARK VINA RESULT:      -6.4      4.875      7.336
REMARK  Name = 
REMARK  5 active torsions:
REMARK  status: ('A' for Active; 'I' for Inactive)
REMARK    1  A    between atoms: C_1  and  O_2
REMARK    2  A    between atoms: O_2  and  C_3
REMARK    3  A    between atoms: C_9  and  C_10
REMARK    4  A    between atoms: C_16  and  C_17
REMARK    5  A    between atoms: C_23  and  C_24
REMARK                            x       y       z     vdW  Elec       q    Type
REMARK                         _______ _______ _______ _____ _____    ______ ____
ROOT
ATOM      1  C   UNL     1      -0.201  10.177  18.353  0.00  0.00    +0.000 A 
ATOM      2  C   UNL     1      -1.257   9.715  17.543  0.00  0.00    +0.000 A 
ATOM      3  C   UNL     1      -2.262  10.579  17.140  0.00  0.00    +0.000 A 
ATOM      4  N   UNL     1      -2.355  11.876  17.482  0.00  0.00    +0.000 NA
ATOM      5  C   UNL     1      -1.342  12.288  18.263  0.00  0.00    +0.000 A 
ATOM      6  N   UNL     1      -1.259  13.566  18.727  0.00  0.00    +0.000 N 
ATOM      7  C   UNL     1      -0.142  13.736  19.505  0.00  0.00    +0.000 A 
ATOM      8  C   UNL     1       0.551  12.523  19.483  0.00  0.00    +0.000 A 
ATOM      9  C   UNL     1       1.868  12.306  20.149  0.00  0.00    +0.000 C 
ATOM     10  C   UNL     1      -0.250  11.564  18.728  0.00  0.00    +0.000 A 
ATOM     11  H   UNL     1      -1.959  14.263  18.504  0.00  0.00    +0.000 HD
ENDROOT
BRANCH   1  18
ATOM     12  C   UNL     1       1.021   8.688  20.045  0.00  0.00    +0.000 A 
ATOM     13  C   UNL     1       1.930   7.636  20.261  0.00  0.00    +0.000 A 
ATOM     14  C   UNL     1       2.768   7.204  19.238  0.00  0.00    +0.000 A 
ATOM     15  C   UNL     1       2.772   7.896  18.041  0.00  0.00    +0.000 A 
ATOM     16  F   UNL     1       3.562   7.483  17.041  0.00  0.00    +0.000 F 
ATOM     17  C   UNL     1       1.910   8.966  17.832  0.00  0.00    +0.000 A 
ATOM     18  C   UNL     1       0.914   9.291  18.767  0.00  0.00    +0.000 A 
BRANCH  12  20
ATOM     19  C   UNL     1       0.819   9.352  22.302  0.00  0.00    +0.000 C 
ATOM     20  O   UNL     1       0.177   9.106  21.048  0.00  0.00    +0.000 OA
ENDBRANCH  12  20
ENDBRANCH   1  18
BRANCH   7  21
ATOM     21  C   UNL     1       0.191  15.046  20.188  0.00  0.00    +0.000 C 
ATOM     22  C   UNL     1      -0.795  16.170  19.871  0.00  0.00    +0.000 C 
ATOM     23  C   UNL     1      -0.568  16.803  18.496  0.00  0.00    +0.000 C 
ATOM     24  N   UNL     1       0.821  17.181  18.241  0.00  0.00    +0.000 NA
ATOM     25  C   UNL     1       1.797  16.133  18.540  0.00  0.00    +0.000 C 
ATOM     26  C   UNL     1       1.623  15.518  19.926  0.00  0.00    +0.000 C 
ATOM     27  H   UNL     1       1.045  18.009  18.791  0.00  0.00    +0.000 HD
ENDBRANCH   7  21
TORSDOF 3
ENDMDL
MODEL 9
REMARK VINA RESULT:      -6.4      7.123      9.659
REMARK  Name = 
REMARK  5 active torsions:
REMARK  status: ('A' for Active; 'I' for Inactive)
REMARK    1  A    between atoms: C_1  and  O_2
REMARK    2  A    between atoms: O_2  and  C_3
REMARK    3  A    between atoms: C_9  and  C_10
REMARK    4  A    between atoms: C_16  and  C_17
REMARK    5  A    between atoms: C_23  and  C_24
REMARK                            x       y       z     vdW  Elec       q    Type
REMARK                         _______ _______ _______ _____ _____    ______ ____
ROOT
ATOM      1  C   UNL     1      -2.038  10.917  18.003  0.00  0.00    +0.000 A 
ATOM      2  C   UNL     1      -1.965  10.335  16.721  0.00  0.00    +0.000 A 
ATOM      3  C   UNL     1      -3.049  10.392  15.862  0.00  0.00    +0.000 A 
ATOM      4  N   UNL     1      -4.238  10.953  16.146  0.00  0.00    +0.000 NA
ATOM      5  C   UNL     1      -4.284  11.491  17.377  0.00  0.00    +0.000 A 
ATOM      6  N   UNL     1      -5.404  12.096  17.860  0.00  0.00    +0.000 N 
ATOM      7  C   UNL     1      -5.204  12.558  19.137  0.00  0.00    +0.000 A 
ATOM      8  C   UNL     1      -3.870  12.287  19.456  0.00  0.00    +0.000 A 
ATOM      9  C   UNL     1      -3.222  12.697  20.736  0.00  0.00    +0.000 C 
ATOM     10  C   UNL     1      -3.286  11.544  18.343  0.00  0.00    +0.000 A 
ATOM     11  H   UNL     1      -6.253  12.167  17.312  0.00  0.00    +0.000 HD
ENDROOT
BRANCH   1  18
ATOM     12  C   UNL     1      -0.012  12.014  19.126  0.00  0.00    +0.000 A 
ATOM     13  C   UNL     1       0.863  12.043  20.228  0.00  0.00    +0.000 A 
ATOM     14  C   UNL     1       0.919  10.974  21.115  0.00  0.00    +0.000 A 
ATOM     15  C   UNL     1       0.184   9.836  20.838  0.00  0.00    +0.000 A 
ATOM     16  F   UNL     1       0.215   8.804  21.691  0.00  0.00    +0.000 F 
ATOM     17  C   UNL     1      -0.650   9.778  19.727  0.00  0.00    +0.000 A 
ATOM     18  C   UNL     1      -0.883  10.912  18.933  0.00  0.00    +0.000 A 
BRANCH  12  20
ATOM     19  C   UNL     1      -0.281  14.347  18.885  0.00  0.00    +0.000 C 
ATOM     20  O   UNL     1      -0.085  13.078  18.257  0.00  0.00    +0.000 OA
ENDBRANCH  12  20
ENDBRANCH   1  18
BRANCH   7  21
ATOM     21  C   UNL     1      -6.287  13.242  19.942  0.00  0.00    +0.000 C 
ATOM     22  C   UNL     1      -7.681  13.114  19.327  0.00  0.00    +0.000 C 
ATOM     23  C   UNL     1      -7.914  14.072  18.157  0.00  0.00    +0.000 C 
ATOM     24  N   UNL     1      -7.548  15.459  18.445  0.00  0.00    +0.000 NA
ATOM     25  C   UNL     1      -6.223  15.621  19.042  0.00  0.00    +0.000 C 
ATOM     26  C   UNL     1      -5.982  14.711  20.244  0.00  0.00    +0.000 C 
ATOM     27  H   UNL     1      -8.245  15.862  19.070  0.00  0.00    +0.000 HD
ENDBRANCH   7  21
TORSDOF 3
ENDMDL
