MODEL 1
REMARK VINA RESULT:      -6.8      0.000      0.000
REMARK  Name = 
REMARK  5 active torsions:
REMARK  status: ('A' for Active; 'I' for Inactive)
REMARK    1  A    between atoms: C_1  and  C_2
REMARK    2  A    between atoms: C_2  and  N_3
REMARK    3  A    between atoms: N_6  and  C_7
REMARK    4  A    between atoms: C_7  and  C_8
REMARK    5  A    between atoms: C_7  and  C_9
REMARK                            x       y       z     vdW  Elec       q    Type
REMARK                         _______ _______ _______ _____ _____    ______ ____
ROOT
ATOM      1  N   UNL     1       0.772  13.670  20.198  0.00  0.00    +0.000 N 
ATOM      2  C   UNL     1       0.942  12.391  20.642  0.00  0.00    +0.000 C 
ATOM      3  O   UNL     1       1.904  11.983  21.277  0.00  0.00    +0.000 OA
ATOM      4  N   UNL     1      -0.161  11.629  20.281  0.00  0.00    +0.000 N 
ATOM      5  C   UNL     1      -1.059  12.393  19.445  0.00  0.00    +0.000 C 
ATOM      6  O   UNL     1      -1.081  11.855  18.121  0.00  0.00    +0.000 OA
ATOM      7  C   UNL     1      -2.362  11.639  17.696  0.00  0.00    +0.000 C 
ATOM      8  O   UNL     1      -2.699  11.182  16.627  0.00  0.00    +0.000 OA
ATOM      9  C   UNL     1      -3.247  12.008  18.795  0.00  0.00    +0.000 A 
ATOM     10  C   UNL     1      -4.628  11.919  18.852  0.00  0.00    +0.000 A 
ATOM     11  C   UNL     1      -5.249  12.338  20.029  0.00  0.00    +0.000 A 
ATOM     12  C   UNL     1      -4.486  12.837  21.099  0.00  0.00    +0.000 A 
ATOM     13  C   UNL     1      -3.090  12.908  21.011  0.00  0.00    +0.000 A 
ATOM     14  C   UNL     1      -2.482  12.466  19.848  0.00  0.00    +0.000 A 
ATOM     15  C   UNL     1      -0.370  13.775  19.455  0.00  0.00    +0.000 C 
ATOM     16  O   UNL     1      -0.775  14.789  18.901  0.00  0.00    +0.000 OA
ENDROOT
BRANCH   1  18
ATOM     17  C   UNL     1       2.776  14.943  19.490  0.00  0.00    +0.000 C 
ATOM     18  C   UNL     1       1.665  14.770  20.510  0.00  0.00    +0.000 C 
ENDBRANCH   1  18
BRANCH   4  19
ATOM     19  C   UNL     1      -0.285  10.210  20.635  0.00  0.00    +0.000 C 
ATOM     20  C   UNL     1      -0.334   9.953  22.142  0.00  0.00    +0.000 C 
BRANCH  19  21
ATOM     21  C   UNL     1       0.690   9.324  19.867  0.00  0.00    +0.000 A 
ATOM     22  C   UNL     1       1.305   8.249  20.534  0.00  0.00    +0.000 A 
ATOM     23  C   UNL     1       2.223   7.427  19.877  0.00  0.00    +0.000 A 
ATOM     24  C   UNL     1       2.529   7.654  18.538  0.00  0.00    +0.000 A 
ATOM     25  C   UNL     1       1.918   8.703  17.857  0.00  0.00    +0.000 A 
ATOM     26  C   UNL     1       1.010   9.535  18.517  0.00  0.00    +0.000 A 
ENDBRANCH  19  21
ENDBRANCH   4  19
TORSDOF 3
ENDMDL
MODEL 2
REMARK VINA RESULT:      -6.6      2.280      5.957
REMARK  Name = 
REMARK  5 active torsions:
REMARK  status: ('A' for Active; 'I' for Inactive)
REMARK    1  A    between atoms: C_1  and  C_2
REMARK    2  A    between atoms: C_2  and  N_3
REMARK    3  A    between atoms: N_6  and  C_7
REMARK    4  A    between atoms: C_7  and  C_8
REMARK    5  A    between atoms: C_7  and  C_9
REMARK                            x       y       z     vdW  Elec       q    Type
REMARK                         _______ _______ _______ _____ _____    ______ ____
ROOT
ATOM      1  N   UNL     1      -0.423   9.899  21.355  0.00  0.00    +0.000 N 
ATOM      2  C   UNL     1      -0.935  10.548  20.270  0.00  0.00    +0.000 C 
ATOM      3  O   UNL     1      -1.075  10.065  19.156  0.00  0.00    +0.000 OA
ATOM      4  N   UNL     1      -1.297  11.837  20.635  0.00  0.00    +0.000 N 
ATOM      5  C   UNL     1      -0.895  12.116  21.995  0.00  0.00    +0.000 C 
ATOM      6  O   UNL     1       0.135  13.107  22.014  0.00  0.00    +0.000 OA
ATOM      7  C   UNL     1      -0.168  14.118  22.882  0.00  0.00    +0.000 C 
ATOM      8  O   UNL     1       0.504  15.101  23.106  0.00  0.00    +0.000 OA
ATOM      9  C   UNL     1      -1.478  13.821  23.448  0.00  0.00    +0.000 A 
ATOM     10  C   UNL     1      -2.221  14.578  24.339  0.00  0.00    +0.000 A 
ATOM     11  C   UNL     1      -3.461  14.073  24.731  0.00  0.00    +0.000 A 
ATOM     12  C   UNL     1      -3.915  12.838  24.238  0.00  0.00    +0.000 A 
ATOM     13  C   UNL     1      -3.144  12.100  23.332  0.00  0.00    +0.000 A 
ATOM     14  C   UNL     1      -1.925  12.623  22.929  0.00  0.00    +0.000 A 
ATOM     15  C   UNL     1      -0.331  10.744  22.425  0.00  0.00    +0.000 C 
ATOM     16  O   UNL     1       0.115  10.458  23.529  0.00  0.00    +0.000 OA
ENDROOT
BRANCH   1  18
ATOM     17  C   UNL     1       1.371   8.238  20.951  0.00  0.00    +0.000 C 
ATOM     18  C   UNL     1      -0.066   8.492  21.374  0.00  0.00    +0.000 C 
ENDBRANCH   1  18
BRANCH   4  19
ATOM     19  C   UNL     1      -1.901  12.782  19.687  0.00  0.00    +0.000 C 
ATOM     20  C   UNL     1      -0.921  13.826  19.150  0.00  0.00    +0.000 C 
BRANCH  19  21
ATOM     21  C   UNL     1      -3.227  13.345  20.183  0.00  0.00    +0.000 A 
ATOM     22  C   UNL     1      -4.374  12.532  20.134  0.00  0.00    +0.000 A 
ATOM     23  C   UNL     1      -5.616  13.015  20.554  0.00  0.00    +0.000 A 
ATOM     24  C   UNL     1      -5.730  14.312  21.046  0.00  0.00    +0.000 A 
ATOM     25  C   UNL     1      -4.603  15.126  21.119  0.00  0.00    +0.000 A 
ATOM     26  C   UNL     1      -3.363  14.649  20.685  0.00  0.00    +0.000 A 
ENDBRANCH  19  21
ENDBRANCH   4  19
TORSDOF 3
ENDMDL
MODEL 3
REMARK VINA RESULT:      -6.5      3.217      5.506
REMARK  Name = 
REMARK  5 active torsions:
REMARK  status: ('A' for Active; 'I' for Inactive)
REMARK    1  A    between atoms: C_1  and  C_2
REMARK    2  A    between atoms: C_2  and  N_3
REMARK    3  A    between atoms: N_6  and  C_7
REMARK    4  A    between atoms: C_7  and  C_8
REMARK    5  A    between atoms: C_7  and  C_9
REMARK                            x       y       z     vdW  Elec       q    Type
REMARK                         _______ _______ _______ _____ _____    ______ ____
ROOT
ATOM      1  N   UNL     1      -5.041  12.338  19.535  0.00  0.00    +0.000 N 
ATOM      2  C   UNL     1      -3.678  12.270  19.521  0.00  0.00    +0.000 C 
ATOM      3  O   UNL     1      -3.000  11.836  18.601  0.00  0.00    +0.000 OA
ATOM      4  N   UNL     1      -3.180  12.795  20.706  0.00  0.00    +0.000 N 
ATOM      5  C   UNL     1      -4.256  13.115  21.616  0.00  0.00    +0.000 C 
ATOM      6  O   UNL     1      -4.217  12.249  22.753  0.00  0.00    +0.000 OA
ATOM      7  C   UNL     1      -4.265  12.962  23.918  0.00  0.00    +0.000 C 
ATOM      8  O   UNL     1      -4.238  12.509  25.041  0.00  0.00    +0.000 OA
ATOM      9  C   UNL     1      -4.298  14.375  23.558  0.00  0.00    +0.000 A 
ATOM     10  C   UNL     1      -4.304  15.476  24.398  0.00  0.00    +0.000 A 
ATOM     11  C   UNL     1      -4.334  16.737  23.801  0.00  0.00    +0.000 A 
ATOM     12  C   UNL     1      -4.367  16.863  22.403  0.00  0.00    +0.000 A 
ATOM     13  C   UNL     1      -4.353  15.729  21.580  0.00  0.00    +0.000 A 
ATOM     14  C   UNL     1      -4.297  14.483  22.182  0.00  0.00    +0.000 A 
ATOM     15  C   UNL     1      -5.489  12.801  20.741  0.00  0.00    +0.000 C 
ATOM     16  O   UNL     1      -6.662  12.945  21.063  0.00  0.00    +0.000 OA
ENDROOT
BRANCH   1  18
ATOM     17  C   UNL     1      -6.606  10.674  18.576  0.00  0.00    +0.000 C 
ATOM     18  C   UNL     1      -5.889  12.002  18.407  0.00  0.00    +0.000 C 
ENDBRANCH   1  18
BRANCH   4  19
ATOM     19  C   UNL     1      -1.741  12.881  20.983  0.00  0.00    +0.000 C 
ATOM     20  C   UNL     1      -0.954  13.648  19.920  0.00  0.00    +0.000 C 
BRANCH  19  21
ATOM     21  C   UNL     1      -1.138  11.539  21.381  0.00  0.00    +0.000 A 
ATOM     22  C   UNL     1      -1.134  11.169  22.738  0.00  0.00    +0.000 A 
ATOM     23  C   UNL     1      -0.569   9.959  23.151  0.00  0.00    +0.000 A 
ATOM     24  C   UNL     1      -0.015   9.092  22.214  0.00  0.00    +0.000 A 
ATOM     25  C   UNL     1      -0.025   9.433  20.865  0.00  0.00    +0.000 A 
ATOM     26  C   UNL     1      -0.576  10.649  20.452  0.00  0.00    +0.000 A 
ENDBRANCH  19  21
ENDBRANCH   4  19
TORSDOF 3
ENDMDL
MODEL 4
REMARK VINA RESULT:      -6.4      2.106      4.288
REMARK  Name = 
REMARK  5 active torsions:
REMARK  status: ('A' for Active; 'I' for Inactive)
REMARK    1  A    between atoms: C_1  and  C_2
REMARK    2  A    between atoms: C_2  and  N_3
REMARK    3  A    between atoms: N_6  and  C_7
REMARK    4  A    between atoms: C_7  and  C_8
REMARK    5  A    between atoms: C_7  and  C_9
REMARK                            x       y       z     vdW  Elec       q    Type
REMARK                         _______ _______ _______ _____ _____    ______ ____
ROOT
ATOM      1  N   UNL     1      -2.250  10.700  18.056  0.00  0.00    +0.000 N 
ATOM      2  C   UNL     1      -0.968  10.238  17.981  0.00  0.00    +0.000 C 
ATOM      3  O   UNL     1      -0.570   9.372  17.216  0.00  0.00    +0.000 OA
ATOM      4  N   UNL     1      -0.179  10.923  18.895  0.00  0.00    +0.000 N 
ATOM      5  C   UNL     1      -0.988  11.799  19.714  0.00  0.00    +0.000 C 
ATOM      6  O   UNL     1      -1.000  11.339  21.067  0.00  0.00    +0.000 OA
ATOM      7  C   UNL     1      -0.688  12.348  21.934  0.00  0.00    +0.000 C 
ATOM      8  O   UNL     1      -0.609  12.263  23.140  0.00  0.00    +0.000 OA
ATOM      9  C   UNL     1      -0.413  13.535  21.133  0.00  0.00    +0.000 A 
ATOM     10  C   UNL     1      -0.010  14.788  21.563  0.00  0.00    +0.000 A 
ATOM     11  C   UNL     1       0.193  15.766  20.588  0.00  0.00    +0.000 A 
ATOM     12  C   UNL     1      -0.017  15.473  19.231  0.00  0.00    +0.000 A 
ATOM     13  C   UNL     1      -0.417  14.193  18.827  0.00  0.00    +0.000 A 
ATOM     14  C   UNL     1      -0.592  13.223  19.800  0.00  0.00    +0.000 A 
ATOM     15  C   UNL     1      -2.377  11.610  19.067  0.00  0.00    +0.000 C 
ATOM     16  O   UNL     1      -3.412  12.177  19.395  0.00  0.00    +0.000 OA
ENDROOT
BRANCH   1  18
ATOM     17  C   UNL     1      -3.250  11.006  15.809  0.00  0.00    +0.000 C 
ATOM     18  C   UNL     1      -3.316  10.304  17.154  0.00  0.00    +0.000 C 
ENDBRANCH   1  18
BRANCH   4  19
ATOM     19  C   UNL     1       1.258  10.666  19.040  0.00  0.00    +0.000 C 
ATOM     20  C   UNL     1       2.115  11.326  17.959  0.00  0.00    +0.000 C 
BRANCH  19  21
ATOM     21  C   UNL     1       1.570   9.196  19.294  0.00  0.00    +0.000 A 
ATOM     22  C   UNL     1       1.207   8.625  20.527  0.00  0.00    +0.000 A 
ATOM     23  C   UNL     1       1.495   7.288  20.813  0.00  0.00    +0.000 A 
ATOM     24  C   UNL     1       2.136   6.495  19.864  0.00  0.00    +0.000 A 
ATOM     25  C   UNL     1       2.487   7.037  18.632  0.00  0.00    +0.000 A 
ATOM     26  C   UNL     1       2.212   8.378  18.352  0.00  0.00    +0.000 A 
ENDBRANCH  19  21
ENDBRANCH   4  19
TORSDOF 3
ENDMDL
MODEL 5
REMARK VINA RESULT:      -6.4      1.042      1.292
REMARK  Name = 
REMARK  5 active torsions:
REMARK  status: ('A' for Active; 'I' for Inactive)
REMARK    1  A    between atoms: C_1  and  C_2
REMARK    2  A    between atoms: C_2  and  N_3
REMARK    3  A    between atoms: N_6  and  C_7
REMARK    4  A    between atoms: C_7  and  C_8
REMARK    5  A    between atoms: C_7  and  C_9
REMARK                            x       y       z     vdW  Elec       q    Type
REMARK                         _______ _______ _______ _____ _____    ______ ____
ROOT
ATOM      1  N   UNL     1       0.391  14.094  20.689  0.00  0.00    +0.000 N 
ATOM      2  C   UNL     1       0.654  12.789  20.992  0.00  0.00    +0.000 C 
ATOM      3  O   UNL     1       1.748  12.339  21.299  0.00  0.00    +0.000 OA
ATOM      4  N   UNL     1      -0.523  12.056  20.922  0.00  0.00    +0.000 N 
ATOM      5  C   UNL     1      -1.607  12.873  20.424  0.00  0.00    +0.000 C 
ATOM      6  O   UNL     1      -2.019  12.416  19.134  0.00  0.00    +0.000 OA
ATOM      7  C   UNL     1      -3.373  12.233  19.086  0.00  0.00    +0.000 C 
ATOM      8  O   UNL     1      -4.013  11.843  18.134  0.00  0.00    +0.000 OA
ATOM      9  C   UNL     1      -3.897  12.540  20.412  0.00  0.00    +0.000 A 
ATOM     10  C   UNL     1      -5.204  12.454  20.860  0.00  0.00    +0.000 A 
ATOM     11  C   UNL     1      -5.451  12.804  22.188  0.00  0.00    +0.000 A 
ATOM     12  C   UNL     1      -4.403  13.234  23.018  0.00  0.00    +0.000 A 
ATOM     13  C   UNL     1      -3.090  13.303  22.536  0.00  0.00    +0.000 A 
ATOM     14  C   UNL     1      -2.851  12.929  21.224  0.00  0.00    +0.000 A 
ATOM     15  C   UNL     1      -0.914  14.249  20.314  0.00  0.00    +0.000 C 
ATOM     16  O   UNL     1      -1.438  15.297  19.958  0.00  0.00    +0.000 OA
ENDROOT
BRANCH   1  18
ATOM     17  C   UNL     1       2.102  15.428  19.493  0.00  0.00    +0.000 C 
ATOM     18  C   UNL     1       1.360  15.169  20.792  0.00  0.00    +0.000 C 
ENDBRANCH   1  18
BRANCH   4  19
ATOM     19  C   UNL     1      -0.571  10.619  21.216  0.00  0.00    +0.000 C 
ATOM     20  C   UNL     1      -0.421  10.289  22.702  0.00  0.00    +0.000 C 
BRANCH  19  21
ATOM     21  C   UNL     1       0.315   9.798  20.286  0.00  0.00    +0.000 A 
ATOM     22  C   UNL     1       1.074   8.742  20.823  0.00  0.00    +0.000 A 
ATOM     23  C   UNL     1       1.919   7.979  20.013  0.00  0.00    +0.000 A 
ATOM     24  C   UNL     1       2.006   8.247  18.650  0.00  0.00    +0.000 A 
ATOM     25  C   UNL     1       1.250   9.276  18.097  0.00  0.00    +0.000 A 
ATOM     26  C   UNL     1       0.416  10.049  18.909  0.00  0.00    +0.000 A 
ENDBRANCH  19  21
ENDBRANCH   4  19
TORSDOF 3
ENDMDL
MODEL 6
REMARK VINA RESULT:      -6.4      1.898      5.815
REMARK  Name = 
REMARK  5 active torsions:
REMARK  status: ('A' for Active; 'I' for Inactive)
REMARK    1  A    between atoms: C_1  and  C_2
REMARK    2  A    between atoms: C_2  and  N_3
REMARK    3  A    between atoms: N_6  and  C_7
REMARK    4  A    between atoms: C_7  and  C_8
REMARK    5  A    between atoms: C_7  and  C_9
REMARK                            x       y       z     vdW  Elec       q    Type
REMARK                         _______ _______ _______ _____ _____    ______ ____
ROOT
ATOM      1  N   UNL     1       0.234  14.514  20.890  0.00  0.00    +0.000 N 
ATOM      2  C   UNL     1      -1.083  14.183  20.754  0.00  0.00    +0.000 C 
ATOM      3  O   UNL     1      -1.994  14.971  20.548  0.00  0.00    +0.000 OA
ATOM      4  N   UNL     1      -1.224  12.806  20.863  0.00  0.00    +0.000 N 
ATOM      5  C   UNL     1       0.035  12.189  21.215  0.00  0.00    +0.000 C 
ATOM      6  O   UNL     1      -0.035  11.638  22.532  0.00  0.00    +0.000 OA
ATOM      7  C   UNL     1       0.389  10.339  22.547  0.00  0.00    +0.000 C 
ATOM      8  O   UNL     1       0.435   9.607  23.511  0.00  0.00    +0.000 OA
ATOM      9  C   UNL     1       0.724   9.979  21.174  0.00  0.00    +0.000 A 
ATOM     10  C   UNL     1       1.153   8.757  20.686  0.00  0.00    +0.000 A 
ATOM     11  C   UNL     1       1.407   8.666  19.317  0.00  0.00    +0.000 A 
ATOM     12  C   UNL     1       1.237   9.785  18.485  0.00  0.00    +0.000 A 
ATOM     13  C   UNL     1       0.794  11.006  19.008  0.00  0.00    +0.000 A 
ATOM     14  C   UNL     1       0.521  11.079  20.364  0.00  0.00    +0.000 A 
ATOM     15  C   UNL     1       0.981  13.409  21.190  0.00  0.00    +0.000 C 
ATOM     16  O   UNL     1       2.188  13.395  21.397  0.00  0.00    +0.000 OA
ENDROOT
BRANCH   1  18
ATOM     17  C   UNL     1       1.229  16.109  19.276  0.00  0.00    +0.000 C 
ATOM     18  C   UNL     1       0.766  15.850  20.699  0.00  0.00    +0.000 C 
ENDBRANCH   1  18
BRANCH   4  19
ATOM     19  C   UNL     1      -2.525  12.138  20.740  0.00  0.00    +0.000 C 
ATOM     20  C   UNL     1      -3.144  12.247  19.346  0.00  0.00    +0.000 C 
BRANCH  19  21
ATOM     21  C   UNL     1      -3.470  12.473  21.887  0.00  0.00    +0.000 A 
ATOM     22  C   UNL     1      -4.740  13.001  21.593  0.00  0.00    +0.000 A 
ATOM     23  C   UNL     1      -5.629  13.347  22.613  0.00  0.00    +0.000 A 
ATOM     24  C   UNL     1      -5.271  13.155  23.945  0.00  0.00    +0.000 A 
ATOM     25  C   UNL     1      -4.025  12.618  24.256  0.00  0.00    +0.000 A 
ATOM     26  C   UNL     1      -3.130  12.286  23.236  0.00  0.00    +0.000 A 
ENDBRANCH  19  21
ENDBRANCH   4  19
TORSDOF 3
ENDMDL
MODEL 7
REMARK VINA RESULT:      -6.4      1.426      5.610
REMARK  Name = 
REMARK  5 active torsions:
REMARK  status: ('A' for Active; 'I' for Inactive)
REMARK    1  A    between atoms: C_1  and  C_2
REMARK    2  A    between atoms: C_2  and  N_3
REMARK    3  A    between atoms: N_6  and  C_7
REMARK    4  A    between atoms: C_7  and  C_8
REMARK    5  A    between atoms: C_7  and  C_9
REMARK                            x       y       z     vdW  Elec       q    Type
REMARK                         _______ _______ _______ _____ _____    ______ ____
ROOT
ATOM      1  N   UNL     1       0.844  13.102  19.257  0.00  0.00    +0.000 N 
ATOM      2  C   UNL     1      -0.301  12.705  18.630  0.00  0.00    +0.000 C 
ATOM      3  O   UNL     1      -0.912  13.352  17.792  0.00  0.00    +0.000 OA
ATOM      4  N   UNL     1      -0.651  11.437  19.074  0.00  0.00    +0.000 N 
ATOM      5  C   UNL     1       0.224  11.009  20.143  0.00  0.00    +0.000 C 
ATOM      6  O   UNL     1      -0.502  10.921  21.371  0.00  0.00    +0.000 OA
ATOM      7  C   UNL     1      -0.301   9.713  21.977  0.00  0.00    +0.000 C 
ATOM      8  O   UNL     1      -0.788   9.341  23.022  0.00  0.00    +0.000 OA
ATOM      9  C   UNL     1       0.567   8.932  21.104  0.00  0.00    +0.000 A 
ATOM     10  C   UNL     1       1.009   7.630  21.273  0.00  0.00    +0.000 A 
ATOM     11  C   UNL     1       1.838   7.102  20.283  0.00  0.00    +0.000 A 
ATOM     12  C   UNL     1       2.206   7.878  19.172  0.00  0.00    +0.000 A 
ATOM     13  C   UNL     1       1.736   9.190  19.026  0.00  0.00    +0.000 A 
ATOM     14  C   UNL     1       0.893   9.696  20.002  0.00  0.00    +0.000 A 
ATOM     15  C   UNL     1       1.227  12.182  20.192  0.00  0.00    +0.000 C 
ATOM     16  O   UNL     1       2.198  12.273  20.932  0.00  0.00    +0.000 OA
ENDROOT
BRANCH   1  18
ATOM     17  C   UNL     1       2.780  14.073  18.053  0.00  0.00    +0.000 C 
ATOM     18  C   UNL     1       1.571  14.317  18.939  0.00  0.00    +0.000 C 
ENDBRANCH   1  18
BRANCH   4  19
ATOM     19  C   UNL     1      -1.831  10.725  18.568  0.00  0.00    +0.000 C 
ATOM     20  C   UNL     1      -1.659  10.179  17.150  0.00  0.00    +0.000 C 
BRANCH  19  21
ATOM     21  C   UNL     1      -3.127  11.491  18.805  0.00  0.00    +0.000 A 
ATOM     22  C   UNL     1      -4.134  11.449  17.824  0.00  0.00    +0.000 A 
ATOM     23  C   UNL     1      -5.327  12.156  17.988  0.00  0.00    +0.000 A 
ATOM     24  C   UNL     1      -5.542  12.904  19.142  0.00  0.00    +0.000 A 
ATOM     25  C   UNL     1      -4.565  12.944  20.132  0.00  0.00    +0.000 A 
ATOM     26  C   UNL     1      -3.365  12.249  19.962  0.00  0.00    +0.000 A 
ENDBRANCH  19  21
ENDBRANCH   4  19
TORSDOF 3
ENDMDL
MODEL 8
REMARK VINA RESULT:      -6.3      8.048     11.307
REMARK  Name = 
REMARK  5 active torsions:
REMARK  status: ('A' for Active; 'I' for Inactive)
REMARK    1  A    between atoms: C_1  and  C_2
REMARK    2  A    between atoms: C_2  and  N_3
REMARK    3  A    between atoms: N_6  and  C_7
REMARK    4  A    between atoms: C_7  and  C_8
REMARK    5  A    between atoms: C_7  and  C_9
REMARK                            x       y       z     vdW  Elec       q    Type
REMARK                         _______ _______ _______ _____ _____    ______ ____
ROOT
ATOM      1  N   UNL     1       6.633  16.472  20.019  0.00  0.00    +0.000 N 
ATOM      2  C   UNL     1       6.767  15.233  20.575  0.00  0.00    +0.000 C 
ATOM      3  O   UNL     1       5.847  14.523  20.954  0.00  0.00    +0.000 OA
ATOM      4  N   UNL     1       8.112  14.894  20.621  0.00  0.00    +0.000 N 
ATOM      5  C   UNL     1       8.935  16.003  20.195  0.00  0.00    +0.000 C 
ATOM      6  O   UNL     1       9.702  16.502  21.294  0.00  0.00    +0.000 OA
ATOM      7  C   UNL     1      11.025  16.603  20.967  0.00  0.00    +0.000 C 
ATOM      8  O   UNL     1      11.918  16.983  21.691  0.00  0.00    +0.000 OA
ATOM      9  C   UNL     1      11.170  16.115  19.600  0.00  0.00    +0.000 A 
ATOM     10  C   UNL     1      12.328  15.982  18.854  0.00  0.00    +0.000 A 
ATOM     11  C   UNL     1      12.202  15.482  17.558  0.00  0.00    +0.000 A 
ATOM     12  C   UNL     1      10.939  15.143  17.045  0.00  0.00    +0.000 A 
ATOM     13  C   UNL     1       9.786  15.283  17.828  0.00  0.00    +0.000 A 
ATOM     14  C   UNL     1       9.926  15.756  19.123  0.00  0.00    +0.000 A 
ATOM     15  C   UNL     1       7.858  17.028  19.779  0.00  0.00    +0.000 C 
ATOM     16  O   UNL     1       8.061  18.142  19.311  0.00  0.00    +0.000 OA
ENDROOT
BRANCH   1  18
ATOM     17  C   UNL     1       4.695  16.474  18.475  0.00  0.00    +0.000 C 
ATOM     18  C   UNL     1       5.361  17.090  19.693  0.00  0.00    +0.000 C 
ENDBRANCH   1  18
BRANCH   4  19
ATOM     19  C   UNL     1       8.580  13.606  21.149  0.00  0.00    +0.000 C 
ATOM     20  C   UNL     1       9.127  13.688  22.574  0.00  0.00    +0.000 C 
BRANCH  19  21
ATOM     21  C   UNL     1       9.468  12.855  20.165  0.00  0.00    +0.000 A 
ATOM     22  C   UNL     1      10.839  12.718  20.450  0.00  0.00    +0.000 A 
ATOM     23  C   UNL     1      11.695  12.058  19.565  0.00  0.00    +0.000 A 
ATOM     24  C   UNL     1      11.193  11.510  18.388  0.00  0.00    +0.000 A 
ATOM     25  C   UNL     1       9.837  11.620  18.096  0.00  0.00    +0.000 A 
ATOM     26  C   UNL     1       8.983  12.292  18.974  0.00  0.00    +0.000 A 
ENDBRANCH  19  21
ENDBRANCH   4  19
TORSDOF 3
ENDMDL
MODEL 9
REMARK VINA RESULT:      -6.3      2.143      5.686
REMARK  Name = 
REMARK  5 active torsions:
REMARK  status: ('A' for Active; 'I' for Inactive)
REMARK    1  A    between atoms: C_1  and  C_2
REMARK    2  A    between atoms: C_2  and  N_3
REMARK    3  A    between atoms: N_6  and  C_7
REMARK    4  A    between atoms: C_7  and  C_8
REMARK    5  A    between atoms: C_7  and  C_9
REMARK                            x       y       z     vdW  Elec       q    Type
REMARK                         _______ _______ _______ _____ _____    ______ ____
ROOT
ATOM      1  N   UNL     1      -0.300   9.812  21.348  0.00  0.00    +0.000 N 
ATOM      2  C   UNL     1      -0.809  10.427  20.242  0.00  0.00    +0.000 C 
ATOM      3  O   UNL     1      -0.928   9.917  19.137  0.00  0.00    +0.000 OA
ATOM      4  N   UNL     1      -1.197  11.719  20.573  0.00  0.00    +0.000 N 
ATOM      5  C   UNL     1      -0.815  12.035  21.931  0.00  0.00    +0.000 C 
ATOM      6  O   UNL     1       0.199  13.043  21.939  0.00  0.00    +0.000 OA
ATOM      7  C   UNL     1      -0.131  14.068  22.780  0.00  0.00    +0.000 C 
ATOM      8  O   UNL     1       0.522  15.067  22.989  0.00  0.00    +0.000 OA
ATOM      9  C   UNL     1      -1.443  13.763  23.338  0.00  0.00    +0.000 A 
ATOM     10  C   UNL     1      -2.209  14.527  24.202  0.00  0.00    +0.000 A 
ATOM     11  C   UNL     1      -3.445  14.011  24.592  0.00  0.00    +0.000 A 
ATOM     12  C   UNL     1      -3.873  12.758  24.122  0.00  0.00    +0.000 A 
ATOM     13  C   UNL     1      -3.079  12.012  23.242  0.00  0.00    +0.000 A 
ATOM     14  C   UNL     1      -1.865  12.546  22.842  0.00  0.00    +0.000 A 
ATOM     15  C   UNL     1      -0.234  10.683  22.398  0.00  0.00    +0.000 C 
ATOM     16  O   UNL     1       0.203  10.429  23.514  0.00  0.00    +0.000 OA
ENDROOT
BRANCH   1  18
ATOM     17  C   UNL     1       1.499   8.162  20.921  0.00  0.00    +0.000 C 
ATOM     18  C   UNL     1       0.081   8.412  21.402  0.00  0.00    +0.000 C 
ENDBRANCH   1  18
BRANCH   4  19
ATOM     19  C   UNL     1      -1.804  12.632  19.597  0.00  0.00    +0.000 C 
ATOM     20  C   UNL     1      -1.280  14.066  19.686  0.00  0.00    +0.000 C 
BRANCH  19  21
ATOM     21  C   UNL     1      -3.322  12.508  19.542  0.00  0.00    +0.000 A 
ATOM     22  C   UNL     1      -3.903  11.656  18.585  0.00  0.00    +0.000 A 
ATOM     23  C   UNL     1      -5.290  11.531  18.481  0.00  0.00    +0.000 A 
ATOM     24  C   UNL     1      -6.121  12.241  19.344  0.00  0.00    +0.000 A 
ATOM     25  C   UNL     1      -5.565  13.075  20.309  0.00  0.00    +0.000 A 
ATOM     26  C   UNL     1      -4.177  13.212  20.403  0.00  0.00    +0.000 A 
ENDBRANCH  19  21
ENDBRANCH   4  19
TORSDOF 3
ENDMDL
