MODEL 1
REMARK VINA RESULT:      -7.5      0.000      0.000
REMARK  Name = 
REMARK  3 active torsions:
REMARK  status: ('A' for Active; 'I' for Inactive)
REMARK    1  A    between atoms: C_1  and  C_2
REMARK    2  A    between atoms: C_5  and  N_6
REMARK    3  A    between atoms: C_7  and  C_9
REMARK                            x       y       z     vdW  Elec       q    Type
REMARK                         _______ _______ _______ _____ _____    ______ ____
ROOT
ATOM      1  N   UNL     1       4.686   3.569  17.237  0.00  0.00    +0.000 N 
ATOM      2  C   UNL     1       3.728   4.377  17.834  0.00  0.00    +0.000 C 
ATOM      3  O   UNL     1       3.407   5.502  17.452  0.00  0.00    +0.000 OA
ATOM      4  H   UNL     1       4.857   2.656  17.643  0.00  0.00    +0.000 HD
ENDROOT
BRANCH   2   5
ATOM      5  C   UNL     1       3.011   3.863  19.037  0.00  0.00    +0.000 A 
ATOM      6  C   UNL     1       1.651   4.202  19.175  0.00  0.00    +0.000 A 
ATOM      7  C   UNL     1       0.905   3.753  20.266  0.00  0.00    +0.000 A 
ATOM      8  C   UNL     1       1.519   2.957  21.224  0.00  0.00    +0.000 A 
ATOM      9  F   UNL     1       0.803   2.511  22.263  0.00  0.00    +0.000 F 
ATOM     10  C   UNL     1       2.864   2.619  21.118  0.00  0.00    +0.000 A 
ATOM     11  C   UNL     1       3.604   3.078  20.029  0.00  0.00    +0.000 A 
ATOM     12  F   UNL     1       4.903   2.750  19.961  0.00  0.00    +0.000 F 
ENDBRANCH   2   5
BRANCH   1  17
ATOM     13  C   UNL     1       7.953   5.354  12.856  0.00  0.00    +0.000 C 
ATOM     14  C   UNL     1       7.137   4.821  13.996  0.00  0.00    +0.000 A 
ATOM     15  C   UNL     1       5.974   4.095  13.751  0.00  0.00    +0.000 A 
ATOM     16  C   UNL     1       5.175   3.654  14.808  0.00  0.00    +0.000 A 
ATOM     17  C   UNL     1       5.506   3.930  16.136  0.00  0.00    +0.000 A 
ATOM     18  C   UNL     1       6.696   4.626  16.386  0.00  0.00    +0.000 A 
ATOM     19  C   UNL     1       7.502   5.071  15.325  0.00  0.00    +0.000 A 
ENDBRANCH   1  17
TORSDOF 2
ENDMDL
MODEL 2
REMARK VINA RESULT:      -7.4      2.838      7.210
REMARK  Name = 
REMARK  3 active torsions:
REMARK  status: ('A' for Active; 'I' for Inactive)
REMARK    1  A    between atoms: C_1  and  C_2
REMARK    2  A    between atoms: C_5  and  N_6
REMARK    3  A    between atoms: C_7  and  C_9
REMARK                            x       y       z     vdW  Elec       q    Type
REMARK                         _______ _______ _______ _____ _____    ______ ____
ROOT
ATOM      1  N   UNL     1       4.629   3.130  16.996  0.00  0.00    +0.000 N 
ATOM      2  C   UNL     1       4.870   4.351  16.381  0.00  0.00    +0.000 C 
ATOM      3  O   UNL     1       4.496   5.445  16.801  0.00  0.00    +0.000 OA
ATOM      4  H   UNL     1       4.996   2.295  16.553  0.00  0.00    +0.000 HD
ENDROOT
BRANCH   2   5
ATOM      5  C   UNL     1       5.648   4.367  15.109  0.00  0.00    +0.000 A 
ATOM      6  C   UNL     1       5.128   3.639  14.021  0.00  0.00    +0.000 A 
ATOM      7  C   UNL     1       5.790   3.611  12.792  0.00  0.00    +0.000 A 
ATOM      8  C   UNL     1       6.976   4.318  12.646  0.00  0.00    +0.000 A 
ATOM      9  F   UNL     1       7.605   4.307  11.465  0.00  0.00    +0.000 F 
ATOM     10  C   UNL     1       7.518   5.034  13.709  0.00  0.00    +0.000 A 
ATOM     11  C   UNL     1       6.855   5.051  14.935  0.00  0.00    +0.000 A 
ATOM     12  F   UNL     1       7.408   5.736  15.947  0.00  0.00    +0.000 F 
ENDBRANCH   2   5
BRANCH   1  17
ATOM     13  C   UNL     1       1.317   2.609  21.666  0.00  0.00    +0.000 C 
ATOM     14  C   UNL     1       2.192   2.669  20.450  0.00  0.00    +0.000 A 
ATOM     15  C   UNL     1       3.573   2.797  20.582  0.00  0.00    +0.000 A 
ATOM     16  C   UNL     1       4.388   2.920  19.454  0.00  0.00    +0.000 A 
ATOM     17  C   UNL     1       3.850   2.930  18.165  0.00  0.00    +0.000 A 
ATOM     18  C   UNL     1       2.466   2.762  18.029  0.00  0.00    +0.000 A 
ATOM     19  C   UNL     1       1.644   2.638  19.162  0.00  0.00    +0.000 A 
ENDBRANCH   1  17
TORSDOF 2
ENDMDL
MODEL 3
REMARK VINA RESULT:      -7.4      1.160      1.611
REMARK  Name = 
REMARK  3 active torsions:
REMARK  status: ('A' for Active; 'I' for Inactive)
REMARK    1  A    between atoms: C_1  and  C_2
REMARK    2  A    between atoms: C_5  and  N_6
REMARK    3  A    between atoms: C_7  and  C_9
REMARK                            x       y       z     vdW  Elec       q    Type
REMARK                         _______ _______ _______ _____ _____    ______ ____
ROOT
ATOM      1  N   UNL     1       4.600   3.553  17.029  0.00  0.00    +0.000 N 
ATOM      2  C   UNL     1       3.736   4.401  17.708  0.00  0.00    +0.000 C 
ATOM      3  O   UNL     1       3.566   5.593  17.457  0.00  0.00    +0.000 OA
ATOM      4  H   UNL     1       4.647   2.585  17.327  0.00  0.00    +0.000 HD
ENDROOT
BRANCH   2   5
ATOM      5  C   UNL     1       2.931   3.846  18.835  0.00  0.00    +0.000 A 
ATOM      6  C   UNL     1       3.631   3.385  19.967  0.00  0.00    +0.000 A 
ATOM      7  C   UNL     1       2.952   2.861  21.068  0.00  0.00    +0.000 A 
ATOM      8  C   UNL     1       1.566   2.800  21.041  0.00  0.00    +0.000 A 
ATOM      9  F   UNL     1       0.910   2.313  22.102  0.00  0.00    +0.000 F 
ATOM     10  C   UNL     1       0.851   3.236  19.930  0.00  0.00    +0.000 A 
ATOM     11  C   UNL     1       1.537   3.751  18.831  0.00  0.00    +0.000 A 
ATOM     12  F   UNL     1       0.823   4.149  17.767  0.00  0.00    +0.000 F 
ENDBRANCH   2   5
BRANCH   1  17
ATOM     13  C   UNL     1       8.128   5.409  12.887  0.00  0.00    +0.000 C 
ATOM     14  C   UNL     1       7.244   4.857  13.966  0.00  0.00    +0.000 A 
ATOM     15  C   UNL     1       6.093   4.146  13.637  0.00  0.00    +0.000 A 
ATOM     16  C   UNL     1       5.231   3.687  14.635  0.00  0.00    +0.000 A 
ATOM     17  C   UNL     1       5.486   3.932  15.986  0.00  0.00    +0.000 A 
ATOM     18  C   UNL     1       6.663   4.613  16.321  0.00  0.00    +0.000 A 
ATOM     19  C   UNL     1       7.532   5.076  15.318  0.00  0.00    +0.000 A 
ENDBRANCH   1  17
TORSDOF 2
ENDMDL
MODEL 4
REMARK VINA RESULT:      -7.3      0.175      1.143
REMARK  Name = 
REMARK  3 active torsions:
REMARK  status: ('A' for Active; 'I' for Inactive)
REMARK    1  A    between atoms: C_1  and  C_2
REMARK    2  A    between atoms: C_5  and  N_6
REMARK    3  A    between atoms: C_7  and  C_9
REMARK                            x       y       z     vdW  Elec       q    Type
REMARK                         _______ _______ _______ _____ _____    ______ ____
ROOT
ATOM      1  N   UNL     1       4.680   3.704  17.355  0.00  0.00    +0.000 N 
ATOM      2  C   UNL     1       3.690   4.452  17.977  0.00  0.00    +0.000 C 
ATOM      3  O   UNL     1       3.318   5.571  17.627  0.00  0.00    +0.000 OA
ATOM      4  H   UNL     1       4.893   2.788  17.736  0.00  0.00    +0.000 HD
ENDROOT
BRANCH   2   5
ATOM      5  C   UNL     1       3.000   3.874  19.167  0.00  0.00    +0.000 A 
ATOM      6  C   UNL     1       1.646   4.212  19.360  0.00  0.00    +0.000 A 
ATOM      7  C   UNL     1       0.926   3.706  20.443  0.00  0.00    +0.000 A 
ATOM      8  C   UNL     1       1.559   2.853  21.337  0.00  0.00    +0.000 A 
ATOM      9  F   UNL     1       0.867   2.352  22.368  0.00  0.00    +0.000 F 
ATOM     10  C   UNL     1       2.899   2.514  21.177  0.00  0.00    +0.000 A 
ATOM     11  C   UNL     1       3.613   3.030  20.097  0.00  0.00    +0.000 A 
ATOM     12  F   UNL     1       4.908   2.699  19.976  0.00  0.00    +0.000 F 
ENDBRANCH   2   5
BRANCH   1  17
ATOM     13  C   UNL     1       7.962   5.109  12.849  0.00  0.00    +0.000 C 
ATOM     14  C   UNL     1       7.075   4.813  14.023  0.00  0.00    +0.000 A 
ATOM     15  C   UNL     1       7.491   5.126  15.315  0.00  0.00    +0.000 A 
ATOM     16  C   UNL     1       6.699   4.793  16.417  0.00  0.00    +0.000 A 
ATOM     17  C   UNL     1       5.479   4.131  16.263  0.00  0.00    +0.000 A 
ATOM     18  C   UNL     1       5.042   3.850  14.962  0.00  0.00    +0.000 A 
ATOM     19  C   UNL     1       5.836   4.184  13.852  0.00  0.00    +0.000 A 
ENDBRANCH   1  17
TORSDOF 2
ENDMDL
MODEL 5
REMARK VINA RESULT:      -7.3      2.835      7.146
REMARK  Name = 
REMARK  3 active torsions:
REMARK  status: ('A' for Active; 'I' for Inactive)
REMARK    1  A    between atoms: C_1  and  C_2
REMARK    2  A    between atoms: C_5  and  N_6
REMARK    3  A    between atoms: C_7  and  C_9
REMARK                            x       y       z     vdW  Elec       q    Type
REMARK                         _______ _______ _______ _____ _____    ______ ____
ROOT
ATOM      1  N   UNL     1       4.520   3.335  16.949  0.00  0.00    +0.000 N 
ATOM      2  C   UNL     1       4.849   4.520  16.307  0.00  0.00    +0.000 C 
ATOM      3  O   UNL     1       4.538   5.647  16.691  0.00  0.00    +0.000 OA
ATOM      4  H   UNL     1       4.841   2.466  16.536  0.00  0.00    +0.000 HD
ENDROOT
BRANCH   2   5
ATOM      5  C   UNL     1       5.648   4.452  15.049  0.00  0.00    +0.000 A 
ATOM      6  C   UNL     1       5.104   3.723  13.974  0.00  0.00    +0.000 A 
ATOM      7  C   UNL     1       5.783   3.619  12.759  0.00  0.00    +0.000 A 
ATOM      8  C   UNL     1       7.012   4.250  12.614  0.00  0.00    +0.000 A 
ATOM      9  F   UNL     1       7.659   4.166  11.446  0.00  0.00    +0.000 F 
ATOM     10  C   UNL     1       7.577   4.964  13.665  0.00  0.00    +0.000 A 
ATOM     11  C   UNL     1       6.895   5.058  14.878  0.00  0.00    +0.000 A 
ATOM     12  F   UNL     1       7.472   5.739  15.879  0.00  0.00    +0.000 F 
ENDBRANCH   2   5
BRANCH   1  17
ATOM     13  C   UNL     1       1.347   2.538  21.677  0.00  0.00    +0.000 C 
ATOM     14  C   UNL     1       2.172   2.822  20.456  0.00  0.00    +0.000 A 
ATOM     15  C   UNL     1       1.555   3.091  19.237  0.00  0.00    +0.000 A 
ATOM     16  C   UNL     1       2.316   3.290  18.083  0.00  0.00    +0.000 A 
ATOM     17  C   UNL     1       3.710   3.217  18.109  0.00  0.00    +0.000 A 
ATOM     18  C   UNL     1       4.334   2.985  19.342  0.00  0.00    +0.000 A 
ATOM     19  C   UNL     1       3.571   2.784  20.504  0.00  0.00    +0.000 A 
ENDBRANCH   1  17
TORSDOF 2
ENDMDL
MODEL 6
REMARK VINA RESULT:      -7.2      1.093      1.652
REMARK  Name = 
REMARK  3 active torsions:
REMARK  status: ('A' for Active; 'I' for Inactive)
REMARK    1  A    between atoms: C_1  and  C_2
REMARK    2  A    between atoms: C_5  and  N_6
REMARK    3  A    between atoms: C_7  and  C_9
REMARK                            x       y       z     vdW  Elec       q    Type
REMARK                         _______ _______ _______ _____ _____    ______ ____
ROOT
ATOM      1  N   UNL     1       4.574   3.755  17.143  0.00  0.00    +0.000 N 
ATOM      2  C   UNL     1       3.627   4.533  17.793  0.00  0.00    +0.000 C 
ATOM      3  O   UNL     1       3.336   5.692  17.500  0.00  0.00    +0.000 OA
ATOM      4  H   UNL     1       4.719   2.808  17.476  0.00  0.00    +0.000 HD
ENDROOT
BRANCH   2   5
ATOM      5  C   UNL     1       2.882   3.940  18.941  0.00  0.00    +0.000 A 
ATOM      6  C   UNL     1       2.911   4.639  20.164  0.00  0.00    +0.000 A 
ATOM      7  C   UNL     1       2.232   4.156  21.284  0.00  0.00    +0.000 A 
ATOM      8  C   UNL     1       1.515   2.972  21.182  0.00  0.00    +0.000 A 
ATOM      9  F   UNL     1       0.849   2.515  22.249  0.00  0.00    +0.000 F 
ATOM     10  C   UNL     1       1.481   2.256  19.990  0.00  0.00    +0.000 A 
ATOM     11  C   UNL     1       2.168   2.741  18.878  0.00  0.00    +0.000 A 
ATOM     12  F   UNL     1       2.131   2.021  17.746  0.00  0.00    +0.000 F 
ENDBRANCH   2   5
BRANCH   1  17
ATOM     13  C   UNL     1       8.062   5.173  12.799  0.00  0.00    +0.000 C 
ATOM     14  C   UNL     1       7.117   4.870  13.924  0.00  0.00    +0.000 A 
ATOM     15  C   UNL     1       7.412   5.283  15.221  0.00  0.00    +0.000 A 
ATOM     16  C   UNL     1       6.570   4.947  16.283  0.00  0.00    +0.000 A 
ATOM     17  C   UNL     1       5.417   4.184  16.085  0.00  0.00    +0.000 A 
ATOM     18  C   UNL     1       5.098   3.802  14.775  0.00  0.00    +0.000 A 
ATOM     19  C   UNL     1       5.944   4.138  13.705  0.00  0.00    +0.000 A 
ENDBRANCH   1  17
TORSDOF 2
ENDMDL
MODEL 7
REMARK VINA RESULT:      -7.1      1.059      1.158
REMARK  Name = 
REMARK  3 active torsions:
REMARK  status: ('A' for Active; 'I' for Inactive)
REMARK    1  A    between atoms: C_1  and  C_2
REMARK    2  A    between atoms: C_5  and  N_6
REMARK    3  A    between atoms: C_7  and  C_9
REMARK                            x       y       z     vdW  Elec       q    Type
REMARK                         _______ _______ _______ _____ _____    ______ ____
ROOT
ATOM      1  N   UNL     1       4.673   3.637  17.213  0.00  0.00    +0.000 N 
ATOM      2  C   UNL     1       3.691   4.452  17.760  0.00  0.00    +0.000 C 
ATOM      3  O   UNL     1       3.358   5.554  17.327  0.00  0.00    +0.000 OA
ATOM      4  H   UNL     1       4.852   2.744  17.659  0.00  0.00    +0.000 HD
ENDROOT
BRANCH   2   5
ATOM      5  C   UNL     1       2.959   3.973  18.969  0.00  0.00    +0.000 A 
ATOM      6  C   UNL     1       2.322   2.719  18.887  0.00  0.00    +0.000 A 
ATOM      7  C   UNL     1       1.624   2.195  19.977  0.00  0.00    +0.000 A 
ATOM      8  C   UNL     1       1.565   2.924  21.157  0.00  0.00    +0.000 A 
ATOM      9  F   UNL     1       0.911   2.418  22.209  0.00  0.00    +0.000 F 
ATOM     10  C   UNL     1       2.174   4.171  21.259  0.00  0.00    +0.000 A 
ATOM     11  C   UNL     1       2.863   4.691  20.164  0.00  0.00    +0.000 A 
ATOM     12  F   UNL     1       3.426   5.902  20.285  0.00  0.00    +0.000 F 
ENDBRANCH   2   5
BRANCH   1  17
ATOM     13  C   UNL     1       8.002   5.304  12.832  0.00  0.00    +0.000 C 
ATOM     14  C   UNL     1       7.169   4.801  13.975  0.00  0.00    +0.000 A 
ATOM     15  C   UNL     1       6.004   4.078  13.732  0.00  0.00    +0.000 A 
ATOM     16  C   UNL     1       5.190   3.665  14.789  0.00  0.00    +0.000 A 
ATOM     17  C   UNL     1       5.508   3.969  16.115  0.00  0.00    +0.000 A 
ATOM     18  C   UNL     1       6.700   4.662  16.363  0.00  0.00    +0.000 A 
ATOM     19  C   UNL     1       7.521   5.079  15.302  0.00  0.00    +0.000 A 
ENDBRANCH   1  17
TORSDOF 2
ENDMDL
MODEL 8
REMARK VINA RESULT:      -6.9      1.522      1.891
REMARK  Name = 
REMARK  3 active torsions:
REMARK  status: ('A' for Active; 'I' for Inactive)
REMARK    1  A    between atoms: C_1  and  C_2
REMARK    2  A    between atoms: C_5  and  N_6
REMARK    3  A    between atoms: C_7  and  C_9
REMARK                            x       y       z     vdW  Elec       q    Type
REMARK                         _______ _______ _______ _____ _____    ______ ____
ROOT
ATOM      1  N   UNL     1       4.465   4.043  17.602  0.00  0.00    +0.000 N 
ATOM      2  C   UNL     1       3.892   2.838  17.983  0.00  0.00    +0.000 C 
ATOM      3  O   UNL     1       4.066   1.758  17.421  0.00  0.00    +0.000 OA
ATOM      4  H   UNL     1       4.248   4.867  18.152  0.00  0.00    +0.000 HD
ENDROOT
BRANCH   2   5
ATOM      5  C   UNL     1       2.992   2.820  19.173  0.00  0.00    +0.000 A 
ATOM      6  C   UNL     1       3.554   2.433  20.405  0.00  0.00    +0.000 A 
ATOM      7  C   UNL     1       2.782   2.400  21.568  0.00  0.00    +0.000 A 
ATOM      8  C   UNL     1       1.443   2.759  21.502  0.00  0.00    +0.000 A 
ATOM      9  F   UNL     1       0.704   2.744  22.617  0.00  0.00    +0.000 F 
ATOM     10  C   UNL     1       0.861   3.132  20.295  0.00  0.00    +0.000 A 
ATOM     11  C   UNL     1       1.636   3.156  19.136  0.00  0.00    +0.000 A 
ATOM     12  F   UNL     1       1.045   3.504  17.984  0.00  0.00    +0.000 F 
ENDBRANCH   2   5
BRANCH   1  17
ATOM     13  C   UNL     1       7.801   5.199  13.065  0.00  0.00    +0.000 C 
ATOM     14  C   UNL     1       6.950   4.824  14.242  0.00  0.00    +0.000 A 
ATOM     15  C   UNL     1       5.638   4.396  14.054  0.00  0.00    +0.000 A 
ATOM     16  C   UNL     1       4.820   4.109  15.149  0.00  0.00    +0.000 A 
ATOM     17  C   UNL     1       5.282   4.249  16.460  0.00  0.00    +0.000 A 
ATOM     18  C   UNL     1       6.613   4.641  16.650  0.00  0.00    +0.000 A 
ATOM     19  C   UNL     1       7.439   4.931  15.550  0.00  0.00    +0.000 A 
ENDBRANCH   1  17
TORSDOF 2
ENDMDL
MODEL 9
REMARK VINA RESULT:      -6.8      1.510      2.183
REMARK  Name = 
REMARK  3 active torsions:
REMARK  status: ('A' for Active; 'I' for Inactive)
REMARK    1  A    between atoms: C_1  and  C_2
REMARK    2  A    between atoms: C_5  and  N_6
REMARK    3  A    between atoms: C_7  and  C_9
REMARK                            x       y       z     vdW  Elec       q    Type
REMARK                         _______ _______ _______ _____ _____    ______ ____
ROOT
ATOM      1  N   UNL     1       4.493   4.201  17.690  0.00  0.00    +0.000 N 
ATOM      2  C   UNL     1       3.880   2.988  17.972  0.00  0.00    +0.000 C 
ATOM      3  O   UNL     1       4.016   1.953  17.321  0.00  0.00    +0.000 OA
ATOM      4  H   UNL     1       4.306   4.983  18.308  0.00  0.00    +0.000 HD
ENDROOT
BRANCH   2   5
ATOM      5  C   UNL     1       2.981   2.902  19.160  0.00  0.00    +0.000 A 
ATOM      6  C   UNL     1       3.550   2.468  20.374  0.00  0.00    +0.000 A 
ATOM      7  C   UNL     1       2.780   2.371  21.534  0.00  0.00    +0.000 A 
ATOM      8  C   UNL     1       1.435   2.711  21.484  0.00  0.00    +0.000 A 
ATOM      9  F   UNL     1       0.698   2.634  22.598  0.00  0.00    +0.000 F 
ATOM     10  C   UNL     1       0.846   3.130  20.296  0.00  0.00    +0.000 A 
ATOM     11  C   UNL     1       1.620   3.218  19.139  0.00  0.00    +0.000 A 
ATOM     12  F   UNL     1       1.022   3.608  18.004  0.00  0.00    +0.000 F 
ENDBRANCH   2   5
BRANCH   1  17
ATOM     13  C   UNL     1       7.780   4.982  13.038  0.00  0.00    +0.000 C 
ATOM     14  C   UNL     1       6.911   4.854  14.255  0.00  0.00    +0.000 A 
ATOM     15  C   UNL     1       7.462   4.976  15.528  0.00  0.00    +0.000 A 
ATOM     16  C   UNL     1       6.671   4.792  16.665  0.00  0.00    +0.000 A 
ATOM     17  C   UNL     1       5.316   4.472  16.566  0.00  0.00    +0.000 A 
ATOM     18  C   UNL     1       4.752   4.388  15.286  0.00  0.00    +0.000 A 
ATOM     19  C   UNL     1       5.544   4.572  14.140  0.00  0.00    +0.000 A 
ENDBRANCH   1  17
TORSDOF 2
ENDMDL
