MODEL 1
REMARK VINA RESULT:      -7.4      0.000      0.000
REMARK  Name = 
REMARK  11 active torsions:
REMARK  status: ('A' for Active; 'I' for Inactive)
REMARK    1  A    between atoms: C_1  and  N_2
REMARK    2  A    between atoms: N_2  and  C_3
REMARK    3  A    between atoms: N_2  and  C_4
REMARK    4  A    between atoms: C_4  and  C_5
REMARK    5  A    between atoms: C_5  and  N_6
REMARK    6  A    between atoms: N_16  and  C_17
REMARK    7  A    between atoms: C_17  and  C_18
REMARK    8  A    between atoms: C_18  and  N_19
REMARK    9  A    between atoms: N_19  and  C_20
REMARK   10  A    between atoms: N_19  and  C_21
REMARK   11  A    between atoms: C_24  and  O_25
REMARK                            x       y       z     vdW  Elec       q    Type
REMARK                         _______ _______ _______ _____ _____    ______ ____
ROOT
ATOM      1  N   UNL     1       1.818   8.445  19.301  0.00  0.00    +0.000 N 
ATOM      2  C   UNL     1       2.578   8.699  18.160  0.00  0.00    +0.000 A 
ATOM      3  O   UNL     1       2.672   9.779  17.582  0.00  0.00    +0.000 OA
ATOM      4  C   UNL     1       3.313   7.562  17.649  0.00  0.00    +0.000 A 
ATOM      5  C   UNL     1       4.099   7.714  16.508  0.00  0.00    +0.000 A 
ATOM      6  C   UNL     1       4.791   6.648  16.014  0.00  0.00    +0.000 A 
ATOM      7  C   UNL     1       4.676   5.452  16.681  0.00  0.00    +0.000 A 
ATOM      8  C   UNL     1       3.906   5.317  17.798  0.00  0.00    +0.000 A 
ATOM      9  C   UNL     1       4.047   3.996  18.174  0.00  0.00    +0.000 A 
ATOM     10  N   UNL     1       4.868   3.258  17.360  0.00  0.00    +0.000 NA
ATOM     11  N   UNL     1       5.283   4.260  16.346  0.00  0.00    +0.000 N 
ATOM     12  C   UNL     1       3.300   3.702  19.345  0.00  0.00    +0.000 A 
ATOM     13  C   UNL     1       3.300   2.468  19.898  0.00  0.00    +0.000 A 
ATOM     14  C   UNL     1       2.474   2.368  21.052  0.00  0.00    +0.000 A 
ATOM     15  C   UNL     1       1.773   2.238  22.048  0.00  0.00    +0.000 A 
ATOM     16  C   UNL     1       1.903   3.940  21.127  0.00  0.00    +0.000 A 
ATOM     17  C   UNL     1       2.520   4.666  19.989  0.00  0.00    +0.000 A 
ATOM     18  N   UNL     1       2.428   6.122  19.489  0.00  0.00    +0.000 N 
ATOM     19  C   UNL     1       1.715   7.206  20.002  0.00  0.00    +0.000 A 
ATOM     20  O   UNL     1       1.037   7.135  20.998  0.00  0.00    +0.000 OA
ATOM     21  C   UNL     1       3.197   6.355  18.332  0.00  0.00    +0.000 A 
ENDROOT
BRANCH  14  22
ATOM     22  O   UNL     1       1.331   2.943  22.439  0.00  0.00    +0.000 OA
ATOM     23  H   UNL     1       1.074   3.867  22.685  0.00  0.00    +0.000 HD
ENDBRANCH  14  22
BRANCH   1  24
ATOM     24  C   UNL     1       1.122   9.616  19.833  0.00  0.00    +0.000 C 
BRANCH  24  25
ATOM     25  C   UNL     1      -0.195   9.888  19.099  0.00  0.00    +0.000 C 
BRANCH  25  27
ATOM     26  C   UNL     1       0.317  12.210  18.860  0.00  0.00    +0.000 C 
ATOM     27  N   UNL     1      -0.675  11.256  19.347  0.00  0.00    +0.000 NA
ATOM     28  C   UNL     1      -1.931  11.472  18.630  0.00  0.00    +0.000 C 
ENDBRANCH  25  27
ENDBRANCH  24  25
ENDBRANCH   1  24
BRANCH  11  29
ATOM     29  C   UNL     1       6.171   4.388  15.063  0.00  0.00    +0.000 C 
BRANCH  29  30
ATOM     30  C   UNL     1       5.558   4.133  13.715  0.00  0.00    +0.000 C 
BRANCH  30  31
ATOM     31  N   UNL     1       6.435   3.404  12.759  0.00  0.00    +0.000 NA
ATOM     32  C   UNL     1       5.638   2.680  11.765  0.00  0.00    +0.000 C 
ATOM     33  C   UNL     1       7.258   4.394  12.054  0.00  0.00    +0.000 C 
ENDBRANCH  30  31
ENDBRANCH  29  30
ENDBRANCH  11  29
TORSDOF 7
ENDMDL
MODEL 2
REMARK VINA RESULT:      -6.8      3.825     10.736
REMARK  Name = 
REMARK  11 active torsions:
REMARK  status: ('A' for Active; 'I' for Inactive)
REMARK    1  A    between atoms: C_1  and  N_2
REMARK    2  A    between atoms: N_2  and  C_3
REMARK    3  A    between atoms: N_2  and  C_4
REMARK    4  A    between atoms: C_4  and  C_5
REMARK    5  A    between atoms: C_5  and  N_6
REMARK    6  A    between atoms: N_16  and  C_17
REMARK    7  A    between atoms: C_17  and  C_18
REMARK    8  A    between atoms: C_18  and  N_19
REMARK    9  A    between atoms: N_19  and  C_20
REMARK   10  A    between atoms: N_19  and  C_21
REMARK   11  A    between atoms: C_24  and  O_25
REMARK                            x       y       z     vdW  Elec       q    Type
REMARK                         _______ _______ _______ _____ _____    ______ ____
ROOT
ATOM      1  N   UNL     1       0.991   9.290  19.776  0.00  0.00    +0.000 N 
ATOM      2  C   UNL     1       0.834   9.946  20.996  0.00  0.00    +0.000 A 
ATOM      3  O   UNL     1       1.580   9.849  21.968  0.00  0.00    +0.000 OA
ATOM      4  C   UNL     1      -0.318  10.816  21.079  0.00  0.00    +0.000 A 
ATOM      5  C   UNL     1      -0.565  11.513  22.261  0.00  0.00    +0.000 A 
ATOM      6  C   UNL     1      -1.652  12.332  22.351  0.00  0.00    +0.000 A 
ATOM      7  C   UNL     1      -2.467  12.430  21.250  0.00  0.00    +0.000 A 
ATOM      8  C   UNL     1      -2.215  11.744  20.098  0.00  0.00    +0.000 A 
ATOM      9  C   UNL     1      -3.234  12.099  19.238  0.00  0.00    +0.000 A 
ATOM     10  N   UNL     1      -4.143  12.979  19.766  0.00  0.00    +0.000 NA
ATOM     11  N   UNL     1      -3.612  13.190  21.137  0.00  0.00    +0.000 N 
ATOM     12  C   UNL     1      -3.100  11.462  17.975  0.00  0.00    +0.000 A 
ATOM     13  C   UNL     1      -3.983  11.673  16.974  0.00  0.00    +0.000 A 
ATOM     14  C   UNL     1      -3.689  10.930  15.798  0.00  0.00    +0.000 A 
ATOM     15  C   UNL     1      -3.474  10.306  14.766  0.00  0.00    +0.000 A 
ATOM     16  C   UNL     1      -2.306  10.135  16.304  0.00  0.00    +0.000 A 
ATOM     17  C   UNL     1      -2.052  10.580  17.697  0.00  0.00    +0.000 A 
ATOM     18  N   UNL     1      -0.956  10.248  18.731  0.00  0.00    +0.000 N 
ATOM     19  C   UNL     1       0.153   9.407  18.627  0.00  0.00    +0.000 A 
ATOM     20  O   UNL     1       0.424   8.798  17.621  0.00  0.00    +0.000 OA
ATOM     21  C   UNL     1      -1.138  10.916  19.958  0.00  0.00    +0.000 A 
ENDROOT
BRANCH  14  22
ATOM     22  O   UNL     1      -2.727   9.784  14.649  0.00  0.00    +0.000 OA
ATOM     23  H   UNL     1      -2.165  10.021  13.868  0.00  0.00    +0.000 HD
ENDBRANCH  14  22
BRANCH   1  24
ATOM     24  C   UNL     1       2.189   8.454  19.692  0.00  0.00    +0.000 C 
BRANCH  24  25
ATOM     25  C   UNL     1       1.942   7.037  20.220  0.00  0.00    +0.000 C 
BRANCH  25  27
ATOM     26  C   UNL     1       3.830   5.836  19.380  0.00  0.00    +0.000 C 
ATOM     27  N   UNL     1       2.387   6.020  19.254  0.00  0.00    +0.000 NA
ATOM     28  C   UNL     1       1.721   4.749  19.539  0.00  0.00    +0.000 C 
ENDBRANCH  25  27
ENDBRANCH  24  25
ENDBRANCH   1  24
BRANCH  11  29
ATOM     29  C   UNL     1      -3.927  13.984  22.448  0.00  0.00    +0.000 C 
BRANCH  29  30
ATOM     30  C   UNL     1      -5.311  13.927  23.029  0.00  0.00    +0.000 C 
BRANCH  30  31
ATOM     31  N   UNL     1      -5.686  12.613  23.619  0.00  0.00    +0.000 NA
ATOM     32  C   UNL     1      -4.789  12.259  24.722  0.00  0.00    +0.000 C 
ATOM     33  C   UNL     1      -7.048  12.729  24.154  0.00  0.00    +0.000 C 
ENDBRANCH  30  31
ENDBRANCH  29  30
ENDBRANCH  11  29
TORSDOF 7
ENDMDL
MODEL 3
REMARK VINA RESULT:      -6.7      3.782     11.093
REMARK  Name = 
REMARK  11 active torsions:
REMARK  status: ('A' for Active; 'I' for Inactive)
REMARK    1  A    between atoms: C_1  and  N_2
REMARK    2  A    between atoms: N_2  and  C_3
REMARK    3  A    between atoms: N_2  and  C_4
REMARK    4  A    between atoms: C_4  and  C_5
REMARK    5  A    between atoms: C_5  and  N_6
REMARK    6  A    between atoms: N_16  and  C_17
REMARK    7  A    between atoms: C_17  and  C_18
REMARK    8  A    between atoms: C_18  and  N_19
REMARK    9  A    between atoms: N_19  and  C_20
REMARK   10  A    between atoms: N_19  and  C_21
REMARK   11  A    between atoms: C_24  and  O_25
REMARK                            x       y       z     vdW  Elec       q    Type
REMARK                         _______ _______ _______ _____ _____    ______ ____
ROOT
ATOM      1  N   UNL     1       0.826   9.599  19.938  0.00  0.00    +0.000 N 
ATOM      2  C   UNL     1       0.627  10.224  21.169  0.00  0.00    +0.000 A 
ATOM      3  O   UNL     1       1.369  10.147  22.145  0.00  0.00    +0.000 OA
ATOM      4  C   UNL     1      -0.569  11.033  21.258  0.00  0.00    +0.000 A 
ATOM      5  C   UNL     1      -0.859  11.695  22.450  0.00  0.00    +0.000 A 
ATOM      6  C   UNL     1      -1.988  12.455  22.546  0.00  0.00    +0.000 A 
ATOM      7  C   UNL     1      -2.798  12.532  21.440  0.00  0.00    +0.000 A 
ATOM      8  C   UNL     1      -2.503  11.882  20.279  0.00  0.00    +0.000 A 
ATOM      9  C   UNL     1      -3.532  12.200  19.416  0.00  0.00    +0.000 A 
ATOM     10  N   UNL     1      -4.489  13.023  19.953  0.00  0.00    +0.000 NA
ATOM     11  N   UNL     1      -3.979  13.235  21.332  0.00  0.00    +0.000 N 
ATOM     12  C   UNL     1      -3.356  11.594  18.144  0.00  0.00    +0.000 A 
ATOM     13  C   UNL     1      -4.242  11.779  17.139  0.00  0.00    +0.000 A 
ATOM     14  C   UNL     1      -3.902  11.074  15.952  0.00  0.00    +0.000 A 
ATOM     15  C   UNL     1      -3.648  10.481  14.910  0.00  0.00    +0.000 A 
ATOM     16  C   UNL     1      -2.484  10.341  16.455  0.00  0.00    +0.000 A 
ATOM     17  C   UNL     1      -2.263  10.772  17.858  0.00  0.00    +0.000 A 
ATOM     18  N   UNL     1      -1.160  10.477  18.895  0.00  0.00    +0.000 N 
ATOM     19  C   UNL     1      -0.009   9.695  18.785  0.00  0.00    +0.000 A 
ATOM     20  O   UNL     1       0.300   9.119  17.771  0.00  0.00    +0.000 OA
ATOM     21  C   UNL     1      -1.384  11.111  20.132  0.00  0.00    +0.000 A 
ENDROOT
BRANCH  14  22
ATOM     22  O   UNL     1      -2.874  10.000  14.790  0.00  0.00    +0.000 OA
ATOM     23  H   UNL     1      -2.145   9.368  15.015  0.00  0.00    +0.000 HD
ENDBRANCH  14  22
BRANCH   1  24
ATOM     24  C   UNL     1       2.065   8.827  19.850  0.00  0.00    +0.000 C 
BRANCH  24  25
ATOM     25  C   UNL     1       1.863   7.363  20.252  0.00  0.00    +0.000 C 
BRANCH  25  27
ATOM     26  C   UNL     1       2.368   5.104  19.656  0.00  0.00    +0.000 C 
ATOM     27  N   UNL     1       2.838   6.484  19.587  0.00  0.00    +0.000 NA
ATOM     28  C   UNL     1       2.966   6.870  18.182  0.00  0.00    +0.000 C 
ENDBRANCH  25  27
ENDBRANCH  24  25
ENDBRANCH   1  24
BRANCH  11  29
ATOM     29  C   UNL     1      -4.344  13.988  22.654  0.00  0.00    +0.000 C 
BRANCH  29  30
ATOM     30  C   UNL     1      -5.480  13.484  23.499  0.00  0.00    +0.000 C 
BRANCH  30  31
ATOM     31  N   UNL     1      -6.630  14.421  23.622  0.00  0.00    +0.000 NA
ATOM     32  C   UNL     1      -7.050  14.910  22.306  0.00  0.00    +0.000 C 
ATOM     33  C   UNL     1      -7.751  13.685  24.218  0.00  0.00    +0.000 C 
ENDBRANCH  30  31
ENDBRANCH  29  30
ENDBRANCH  11  29
TORSDOF 7
ENDMDL
MODEL 4
REMARK VINA RESULT:      -6.5      3.985      8.600
REMARK  Name = 
REMARK  11 active torsions:
REMARK  status: ('A' for Active; 'I' for Inactive)
REMARK    1  A    between atoms: C_1  and  N_2
REMARK    2  A    between atoms: N_2  and  C_3
REMARK    3  A    between atoms: N_2  and  C_4
REMARK    4  A    between atoms: C_4  and  C_5
REMARK    5  A    between atoms: C_5  and  N_6
REMARK    6  A    between atoms: N_16  and  C_17
REMARK    7  A    between atoms: C_17  and  C_18
REMARK    8  A    between atoms: C_18  and  N_19
REMARK    9  A    between atoms: N_19  and  C_20
REMARK   10  A    between atoms: N_19  and  C_21
REMARK   11  A    between atoms: C_24  and  O_25
REMARK                            x       y       z     vdW  Elec       q    Type
REMARK                         _______ _______ _______ _____ _____    ______ ____
ROOT
ATOM      1  N   UNL     1      -0.704  13.337  22.646  0.00  0.00    +0.000 N 
ATOM      2  C   UNL     1      -0.882  11.969  22.439  0.00  0.00    +0.000 A 
ATOM      3  O   UNL     1      -1.578  11.222  23.121  0.00  0.00    +0.000 OA
ATOM      4  C   UNL     1      -0.171  11.426  21.302  0.00  0.00    +0.000 A 
ATOM      5  C   UNL     1      -0.281  10.067  21.014  0.00  0.00    +0.000 A 
ATOM      6  C   UNL     1       0.389   9.543  19.948  0.00  0.00    +0.000 A 
ATOM      7  C   UNL     1       1.156  10.400  19.196  0.00  0.00    +0.000 A 
ATOM      8  C   UNL     1       1.254  11.729  19.486  0.00  0.00    +0.000 A 
ATOM      9  C   UNL     1       2.094  12.247  18.521  0.00  0.00    +0.000 A 
ATOM     10  N   UNL     1       2.554  11.327  17.615  0.00  0.00    +0.000 NA
ATOM     11  N   UNL     1       1.912  10.074  18.090  0.00  0.00    +0.000 N 
ATOM     12  C   UNL     1       2.287  13.644  18.689  0.00  0.00    +0.000 A 
ATOM     13  C   UNL     1       3.066  14.361  17.849  0.00  0.00    +0.000 A 
ATOM     14  C   UNL     1       3.150  15.738  18.196  0.00  0.00    +0.000 A 
ATOM     15  C   UNL     1       3.252  16.929  18.461  0.00  0.00    +0.000 A 
ATOM     16  C   UNL     1       2.168  15.748  19.551  0.00  0.00    +0.000 A 
ATOM     17  C   UNL     1       1.687  14.355  19.733  0.00  0.00    +0.000 A 
ATOM     18  N   UNL     1       0.759  13.681  20.765  0.00  0.00    +0.000 N 
ATOM     19  C   UNL     1       0.078  14.229  21.853  0.00  0.00    +0.000 A 
ATOM     20  O   UNL     1       0.122  15.401  22.134  0.00  0.00    +0.000 OA
ATOM     21  C   UNL     1       0.599  12.300  20.540  0.00  0.00    +0.000 A 
ENDROOT
BRANCH  14  22
ATOM     22  O   UNL     1       2.778  17.329  19.139  0.00  0.00    +0.000 OA
ATOM     23  H   UNL     1       3.198  17.667  19.971  0.00  0.00    +0.000 HD
ENDBRANCH  14  22
BRANCH   1  24
ATOM     24  C   UNL     1      -1.469  13.879  23.769  0.00  0.00    +0.000 C 
BRANCH  24  25
ATOM     25  C   UNL     1      -2.745  14.591  23.308  0.00  0.00    +0.000 C 
BRANCH  25  27
ATOM     26  C   UNL     1      -4.049  13.061  24.601  0.00  0.00    +0.000 C 
ATOM     27  N   UNL     1      -3.894  13.671  23.284  0.00  0.00    +0.000 NA
ATOM     28  C   UNL     1      -5.110  14.416  22.960  0.00  0.00    +0.000 C 
ENDBRANCH  25  27
ENDBRANCH  24  25
ENDBRANCH   1  24
BRANCH  11  29
ATOM     29  C   UNL     1       1.820   8.552  17.738  0.00  0.00    +0.000 C 
BRANCH  29  30
ATOM     30  C   UNL     1       3.037   7.685  17.898  0.00  0.00    +0.000 C 
BRANCH  30  31
ATOM     31  N   UNL     1       2.749   6.249  18.167  0.00  0.00    +0.000 NA
ATOM     32  C   UNL     1       3.784   5.390  17.585  0.00  0.00    +0.000 C 
ATOM     33  C   UNL     1       2.753   6.051  19.621  0.00  0.00    +0.000 C 
ENDBRANCH  30  31
ENDBRANCH  29  30
ENDBRANCH  11  29
TORSDOF 7
ENDMDL
MODEL 5
REMARK VINA RESULT:      -6.5      4.821      9.394
REMARK  Name = 
REMARK  11 active torsions:
REMARK  status: ('A' for Active; 'I' for Inactive)
REMARK    1  A    between atoms: C_1  and  N_2
REMARK    2  A    between atoms: N_2  and  C_3
REMARK    3  A    between atoms: N_2  and  C_4
REMARK    4  A    between atoms: C_4  and  C_5
REMARK    5  A    between atoms: C_5  and  N_6
REMARK    6  A    between atoms: N_16  and  C_17
REMARK    7  A    between atoms: C_17  and  C_18
REMARK    8  A    between atoms: C_18  and  N_19
REMARK    9  A    between atoms: N_19  and  C_20
REMARK   10  A    between atoms: N_19  and  C_21
REMARK   11  A    between atoms: C_24  and  O_25
REMARK                            x       y       z     vdW  Elec       q    Type
REMARK                         _______ _______ _______ _____ _____    ______ ____
ROOT
ATOM      1  N   UNL     1      -5.463  12.403  18.251  0.00  0.00    +0.000 N 
ATOM      2  C   UNL     1      -4.605  11.613  17.486  0.00  0.00    +0.000 A 
ATOM      3  O   UNL     1      -4.834  11.187  16.356  0.00  0.00    +0.000 OA
ATOM      4  C   UNL     1      -3.340  11.299  18.113  0.00  0.00    +0.000 A 
ATOM      5  C   UNL     1      -2.416  10.510  17.430  0.00  0.00    +0.000 A 
ATOM      6  C   UNL     1      -1.223  10.202  18.015  0.00  0.00    +0.000 A 
ATOM      7  C   UNL     1      -0.988  10.696  19.275  0.00  0.00    +0.000 A 
ATOM      8  C   UNL     1      -1.899  11.468  19.933  0.00  0.00    +0.000 A 
ATOM      9  C   UNL     1      -1.309  11.768  21.145  0.00  0.00    +0.000 A 
ATOM     10  N   UNL     1      -0.060  11.229  21.317  0.00  0.00    +0.000 NA
ATOM     11  N   UNL     1       0.142  10.498  20.040  0.00  0.00    +0.000 N 
ATOM     12  C   UNL     1      -2.147  12.586  21.948  0.00  0.00    +0.000 A 
ATOM     13  C   UNL     1      -1.765  13.009  23.173  0.00  0.00    +0.000 A 
ATOM     14  C   UNL     1      -2.749  13.800  23.828  0.00  0.00    +0.000 A 
ATOM     15  C   UNL     1      -3.570  14.483  24.428  0.00  0.00    +0.000 A 
ATOM     16  C   UNL     1      -3.942  13.796  22.654  0.00  0.00    +0.000 A 
ATOM     17  C   UNL     1      -3.413  12.997  21.520  0.00  0.00    +0.000 A 
ATOM     18  N   UNL     1      -3.984  12.608  20.141  0.00  0.00    +0.000 N 
ATOM     19  C   UNL     1      -5.209  12.929  19.553  0.00  0.00    +0.000 A 
ATOM     20  O   UNL     1      -6.035  13.624  20.091  0.00  0.00    +0.000 OA
ATOM     21  C   UNL     1      -3.105  11.806  19.388  0.00  0.00    +0.000 A 
ENDROOT
BRANCH  14  22
ATOM     22  O   UNL     1      -4.363  14.752  24.050  0.00  0.00    +0.000 OA
ATOM     23  H   UNL     1      -5.281  14.396  24.157  0.00  0.00    +0.000 HD
ENDBRANCH  14  22
BRANCH   1  24
ATOM     24  C   UNL     1      -6.715  12.753  17.581  0.00  0.00    +0.000 C 
BRANCH  24  25
ATOM     25  C   UNL     1      -6.550  13.945  16.634  0.00  0.00    +0.000 C 
BRANCH  25  27
ATOM     26  C   UNL     1      -6.750  16.008  17.824  0.00  0.00    +0.000 C 
ATOM     27  N   UNL     1      -7.461  15.044  16.990  0.00  0.00    +0.000 NA
ATOM     28  C   UNL     1      -7.916  15.716  15.774  0.00  0.00    +0.000 C 
ENDBRANCH  25  27
ENDBRANCH  24  25
ENDBRANCH   1  24
BRANCH  11  29
ATOM     29  C   UNL     1       1.204   9.610  19.308  0.00  0.00    +0.000 C 
BRANCH  29  30
ATOM     30  C   UNL     1       1.666   8.334  19.953  0.00  0.00    +0.000 C 
BRANCH  30  31
ATOM     31  N   UNL     1       2.643   7.547  19.152  0.00  0.00    +0.000 NA
ATOM     32  C   UNL     1       2.375   6.111  19.263  0.00  0.00    +0.000 C 
ATOM     33  C   UNL     1       2.491   7.935  17.745  0.00  0.00    +0.000 C 
ENDBRANCH  30  31
ENDBRANCH  29  30
ENDBRANCH  11  29
TORSDOF 7
ENDMDL
MODEL 6
REMARK VINA RESULT:      -6.5      4.954      9.627
REMARK  Name = 
REMARK  11 active torsions:
REMARK  status: ('A' for Active; 'I' for Inactive)
REMARK    1  A    between atoms: C_1  and  N_2
REMARK    2  A    between atoms: N_2  and  C_3
REMARK    3  A    between atoms: N_2  and  C_4
REMARK    4  A    between atoms: C_4  and  C_5
REMARK    5  A    between atoms: C_5  and  N_6
REMARK    6  A    between atoms: N_16  and  C_17
REMARK    7  A    between atoms: C_17  and  C_18
REMARK    8  A    between atoms: C_18  and  N_19
REMARK    9  A    between atoms: N_19  and  C_20
REMARK   10  A    between atoms: N_19  and  C_21
REMARK   11  A    between atoms: C_24  and  O_25
REMARK                            x       y       z     vdW  Elec       q    Type
REMARK                         _______ _______ _______ _____ _____    ______ ____
ROOT
ATOM      1  N   UNL     1      -3.193  13.857  23.055  0.00  0.00    +0.000 N 
ATOM      2  C   UNL     1      -1.840  13.521  23.076  0.00  0.00    +0.000 A 
ATOM      3  O   UNL     1      -1.048  13.774  23.980  0.00  0.00    +0.000 OA
ATOM      4  C   UNL     1      -1.370  12.801  21.912  0.00  0.00    +0.000 A 
ATOM      5  C   UNL     1      -0.030  12.425  21.836  0.00  0.00    +0.000 A 
ATOM      6  C   UNL     1       0.424  11.752  20.740  0.00  0.00    +0.000 A 
ATOM      7  C   UNL     1      -0.481  11.473  19.745  0.00  0.00    +0.000 A 
ATOM      8  C   UNL     1      -1.790  11.845  19.831  0.00  0.00    +0.000 A 
ATOM      9  C   UNL     1      -2.371  11.393  18.663  0.00  0.00    +0.000 A 
ATOM     10  N   UNL     1      -1.509  10.746  17.815  0.00  0.00    +0.000 NA
ATOM     11  N   UNL     1      -0.227  10.814  18.561  0.00  0.00    +0.000 N 
ATOM     12  C   UNL     1      -3.755  11.703  18.612  0.00  0.00    +0.000 A 
ATOM     13  C   UNL     1      -4.526  11.344  17.561  0.00  0.00    +0.000 A 
ATOM     14  C   UNL     1      -5.880  11.763  17.687  0.00  0.00    +0.000 A 
ATOM     15  C   UNL     1      -7.054  12.107  17.753  0.00  0.00    +0.000 A 
ATOM     16  C   UNL     1      -5.803  12.526  19.174  0.00  0.00    +0.000 A 
ATOM     17  C   UNL     1      -4.399  12.397  19.640  0.00  0.00    +0.000 A 
ATOM     18  N   UNL     1      -3.659  12.861  20.912  0.00  0.00    +0.000 N 
ATOM     19  C   UNL     1      -4.135  13.551  22.028  0.00  0.00    +0.000 A 
ATOM     20  O   UNL     1      -5.289  13.882  22.153  0.00  0.00    +0.000 OA
ATOM     21  C   UNL     1      -2.293  12.518  20.909  0.00  0.00    +0.000 A 
ENDROOT
BRANCH  14  22
ATOM     22  O   UNL     1      -7.408  12.517  18.495  0.00  0.00    +0.000 OA
ATOM     23  H   UNL     1      -8.289  12.096  18.665  0.00  0.00    +0.000 HD
ENDBRANCH  14  22
BRANCH   1  24
ATOM     24  C   UNL     1      -3.662  14.539  24.261  0.00  0.00    +0.000 C 
BRANCH  24  25
ATOM     25  C   UNL     1      -3.587  16.063  24.129  0.00  0.00    +0.000 C 
BRANCH  25  27
ATOM     26  C   UNL     1      -4.961  17.658  25.261  0.00  0.00    +0.000 C 
ATOM     27  N   UNL     1      -4.925  16.673  24.184  0.00  0.00    +0.000 NA
ATOM     28  C   UNL     1      -5.209  17.346  22.918  0.00  0.00    +0.000 C 
ENDBRANCH  25  27
ENDBRANCH  24  25
ENDBRANCH   1  24
BRANCH  11  29
ATOM     29  C   UNL     1       1.271  10.380  18.435  0.00  0.00    +0.000 C 
BRANCH  29  30
ATOM     30  C   UNL     1       1.600   9.020  17.886  0.00  0.00    +0.000 C 
BRANCH  30  31
ATOM     31  N   UNL     1       2.383   8.148  18.804  0.00  0.00    +0.000 NA
ATOM     32  C   UNL     1       1.711   8.018  20.100  0.00  0.00    +0.000 C 
ATOM     33  C   UNL     1       2.472   6.816  18.197  0.00  0.00    +0.000 C 
ENDBRANCH  30  31
ENDBRANCH  29  30
ENDBRANCH  11  29
TORSDOF 7
ENDMDL
MODEL 7
REMARK VINA RESULT:      -6.5      3.852     10.799
REMARK  Name = 
REMARK  11 active torsions:
REMARK  status: ('A' for Active; 'I' for Inactive)
REMARK    1  A    between atoms: C_1  and  N_2
REMARK    2  A    between atoms: N_2  and  C_3
REMARK    3  A    between atoms: N_2  and  C_4
REMARK    4  A    between atoms: C_4  and  C_5
REMARK    5  A    between atoms: C_5  and  N_6
REMARK    6  A    between atoms: N_16  and  C_17
REMARK    7  A    between atoms: C_17  and  C_18
REMARK    8  A    between atoms: C_18  and  N_19
REMARK    9  A    between atoms: N_19  and  C_20
REMARK   10  A    between atoms: N_19  and  C_21
REMARK   11  A    between atoms: C_24  and  O_25
REMARK                            x       y       z     vdW  Elec       q    Type
REMARK                         _______ _______ _______ _____ _____    ______ ____
ROOT
ATOM      1  N   UNL     1       0.811   9.762  19.706  0.00  0.00    +0.000 N 
ATOM      2  C   UNL     1       0.577  10.390  20.929  0.00  0.00    +0.000 A 
ATOM      3  O   UNL     1       1.319  10.362  21.907  0.00  0.00    +0.000 OA
ATOM      4  C   UNL     1      -0.659  11.138  21.004  0.00  0.00    +0.000 A 
ATOM      5  C   UNL     1      -0.986  11.798  22.188  0.00  0.00    +0.000 A 
ATOM      6  C   UNL     1      -2.152  12.501  22.273  0.00  0.00    +0.000 A 
ATOM      7  C   UNL     1      -2.962  12.524  21.163  0.00  0.00    +0.000 A 
ATOM      8  C   UNL     1      -2.630  11.876  20.010  0.00  0.00    +0.000 A 
ATOM      9  C   UNL     1      -3.672  12.132  19.141  0.00  0.00    +0.000 A 
ATOM     10  N   UNL     1      -4.671  12.911  19.666  0.00  0.00    +0.000 NA
ATOM     11  N   UNL     1      -4.177  13.165  21.044  0.00  0.00    +0.000 N 
ATOM     12  C   UNL     1      -3.462  11.521  17.877  0.00  0.00    +0.000 A 
ATOM     13  C   UNL     1      -4.352  11.649  16.868  0.00  0.00    +0.000 A 
ATOM     14  C   UNL     1      -3.973  10.947  15.690  0.00  0.00    +0.000 A 
ATOM     15  C   UNL     1      -3.686  10.356  14.656  0.00  0.00    +0.000 A 
ATOM     16  C   UNL     1      -2.521  10.293  16.205  0.00  0.00    +0.000 A 
ATOM     17  C   UNL     1      -2.327  10.752  17.604  0.00  0.00    +0.000 A 
ATOM     18  N   UNL     1      -1.213  10.525  18.647  0.00  0.00    +0.000 N 
ATOM     19  C   UNL     1      -0.024   9.802  18.549  0.00  0.00    +0.000 A 
ATOM     20  O   UNL     1       0.317   9.230  17.543  0.00  0.00    +0.000 OA
ATOM     21  C   UNL     1      -1.474  11.162  19.876  0.00  0.00    +0.000 A 
ENDROOT
BRANCH  14  22
ATOM     22  O   UNL     1      -2.889   9.913  14.544  0.00  0.00    +0.000 OA
ATOM     23  H   UNL     1      -2.005  10.141  14.157  0.00  0.00    +0.000 HD
ENDBRANCH  14  22
BRANCH   1  24
ATOM     24  C   UNL     1       2.088   9.053  19.630  0.00  0.00    +0.000 C 
BRANCH  24  25
ATOM     25  C   UNL     1       1.952   7.576  20.013  0.00  0.00    +0.000 C 
BRANCH  25  27
ATOM     26  C   UNL     1       3.165   7.506  17.955  0.00  0.00    +0.000 C 
ATOM     27  N   UNL     1       2.473   6.697  18.954  0.00  0.00    +0.000 NA
ATOM     28  C   UNL     1       3.422   5.745  19.531  0.00  0.00    +0.000 C 
ENDBRANCH  25  27
ENDBRANCH  24  25
ENDBRANCH   1  24
BRANCH  11  29
ATOM     29  C   UNL     1      -4.584  13.914  22.356  0.00  0.00    +0.000 C 
BRANCH  29  30
ATOM     30  C   UNL     1      -4.653  15.414  22.356  0.00  0.00    +0.000 C 
BRANCH  30  31
ATOM     31  N   UNL     1      -3.473  16.094  21.754  0.00  0.00    +0.000 NA
ATOM     32  C   UNL     1      -3.838  16.761  20.501  0.00  0.00    +0.000 C 
ATOM     33  C   UNL     1      -3.006  17.114  22.699  0.00  0.00    +0.000 C 
ENDBRANCH  30  31
ENDBRANCH  29  30
ENDBRANCH  11  29
TORSDOF 7
ENDMDL
MODEL 8
REMARK VINA RESULT:      -6.4      8.748     11.873
REMARK  Name = 
REMARK  11 active torsions:
REMARK  status: ('A' for Active; 'I' for Inactive)
REMARK    1  A    between atoms: C_1  and  N_2
REMARK    2  A    between atoms: N_2  and  C_3
REMARK    3  A    between atoms: N_2  and  C_4
REMARK    4  A    between atoms: C_4  and  C_5
REMARK    5  A    between atoms: C_5  and  N_6
REMARK    6  A    between atoms: N_16  and  C_17
REMARK    7  A    between atoms: C_17  and  C_18
REMARK    8  A    between atoms: C_18  and  N_19
REMARK    9  A    between atoms: N_19  and  C_20
REMARK   10  A    between atoms: N_19  and  C_21
REMARK   11  A    between atoms: C_24  and  O_25
REMARK                            x       y       z     vdW  Elec       q    Type
REMARK                         _______ _______ _______ _____ _____    ______ ____
ROOT
ATOM      1  N   UNL     1       0.864  13.632  20.491  0.00  0.00    +0.000 N 
ATOM      2  C   UNL     1       0.394  13.965  21.761  0.00  0.00    +0.000 A 
ATOM      3  O   UNL     1       1.056  14.469  22.665  0.00  0.00    +0.000 OA
ATOM      4  C   UNL     1      -1.007  13.683  21.987  0.00  0.00    +0.000 A 
ATOM      5  C   UNL     1      -1.570  13.975  23.228  0.00  0.00    +0.000 A 
ATOM      6  C   UNL     1      -2.888  13.707  23.455  0.00  0.00    +0.000 A 
ATOM      7  C   UNL     1      -3.609  13.150  22.427  0.00  0.00    +0.000 A 
ATOM      8  C   UNL     1      -3.047  12.870  21.216  0.00  0.00    +0.000 A 
ATOM      9  C   UNL     1      -4.070  12.334  20.460  0.00  0.00    +0.000 A 
ATOM     10  N   UNL     1      -5.272  12.245  21.113  0.00  0.00    +0.000 NA
ATOM     11  N   UNL     1      -4.942  12.798  22.451  0.00  0.00    +0.000 N 
ATOM     12  C   UNL     1      -3.633  11.996  19.152  0.00  0.00    +0.000 A 
ATOM     13  C   UNL     1      -4.474  11.464  18.236  0.00  0.00    +0.000 A 
ATOM     14  C   UNL     1      -3.844  11.177  16.994  0.00  0.00    +0.000 A 
ATOM     15  C   UNL     1      -3.340  10.911  15.909  0.00  0.00    +0.000 A 
ATOM     16  C   UNL     1      -2.288  11.688  17.340  0.00  0.00    +0.000 A 
ATOM     17  C   UNL     1      -2.313  12.190  18.737  0.00  0.00    +0.000 A 
ATOM     18  N   UNL     1      -1.239  12.801  19.662  0.00  0.00    +0.000 N 
ATOM     19  C   UNL     1       0.109  13.070  19.418  0.00  0.00    +0.000 A 
ATOM     20  O   UNL     1       0.641  12.855  18.357  0.00  0.00    +0.000 OA
ATOM     21  C   UNL     1      -1.733  13.123  20.940  0.00  0.00    +0.000 A 
ENDROOT
BRANCH  14  22
ATOM     22  O   UNL     1      -2.470  11.121  15.702  0.00  0.00    +0.000 OA
ATOM     23  H   UNL     1      -2.193  11.826  15.063  0.00  0.00    +0.000 HD
ENDBRANCH  14  22
BRANCH   1  24
ATOM     24  C   UNL     1       2.268  13.971  20.262  0.00  0.00    +0.000 C 
BRANCH  24  25
ATOM     25  C   UNL     1       2.440  15.403  19.747  0.00  0.00    +0.000 C 
BRANCH  25  27
ATOM     26  C   UNL     1       3.787  16.653  18.218  0.00  0.00    +0.000 C 
ATOM     27  N   UNL     1       3.024  15.421  18.396  0.00  0.00    +0.000 NA
ATOM     28  C   UNL     1       3.924  14.280  18.236  0.00  0.00    +0.000 C 
ENDBRANCH  25  27
ENDBRANCH  24  25
ENDBRANCH   1  24
BRANCH  11  29
ATOM     29  C   UNL     1      -5.610  13.106  23.833  0.00  0.00    +0.000 C 
BRANCH  29  30
ATOM     30  C   UNL     1      -7.086  13.383  23.891  0.00  0.00    +0.000 C 
BRANCH  30  31
ATOM     31  N   UNL     1      -7.463  14.807  23.672  0.00  0.00    +0.000 NA
ATOM     32  C   UNL     1      -6.309  15.689  23.869  0.00  0.00    +0.000 C 
ATOM     33  C   UNL     1      -7.917  14.947  22.284  0.00  0.00    +0.000 C 
ENDBRANCH  30  31
ENDBRANCH  29  30
ENDBRANCH  11  29
TORSDOF 7
ENDMDL
MODEL 9
REMARK VINA RESULT:      -6.4      4.430      8.701
REMARK  Name = 
REMARK  11 active torsions:
REMARK  status: ('A' for Active; 'I' for Inactive)
REMARK    1  A    between atoms: C_1  and  N_2
REMARK    2  A    between atoms: N_2  and  C_3
REMARK    3  A    between atoms: N_2  and  C_4
REMARK    4  A    between atoms: C_4  and  C_5
REMARK    5  A    between atoms: C_5  and  N_6
REMARK    6  A    between atoms: N_16  and  C_17
REMARK    7  A    between atoms: C_17  and  C_18
REMARK    8  A    between atoms: C_18  and  N_19
REMARK    9  A    between atoms: N_19  and  C_20
REMARK   10  A    between atoms: N_19  and  C_21
REMARK   11  A    between atoms: C_24  and  O_25
REMARK                            x       y       z     vdW  Elec       q    Type
REMARK                         _______ _______ _______ _____ _____    ______ ____
ROOT
ATOM      1  N   UNL     1      -1.860  14.137  22.044  0.00  0.00    +0.000 N 
ATOM      2  C   UNL     1      -0.542  13.685  21.975  0.00  0.00    +0.000 A 
ATOM      3  O   UNL     1       0.386  14.060  22.688  0.00  0.00    +0.000 OA
ATOM      4  C   UNL     1      -0.292  12.679  20.967  0.00  0.00    +0.000 A 
ATOM      5  C   UNL     1       0.996  12.168  20.816  0.00  0.00    +0.000 A 
ATOM      6  C   UNL     1       1.244  11.224  19.864  0.00  0.00    +0.000 A 
ATOM      7  C   UNL     1       0.190  10.815  19.085  0.00  0.00    +0.000 A 
ATOM      8  C   UNL     1      -1.067  11.321  19.242  0.00  0.00    +0.000 A 
ATOM      9  C   UNL     1      -1.837  10.673  18.297  0.00  0.00    +0.000 A 
ATOM     10  N   UNL     1      -1.149   9.771  17.526  0.00  0.00    +0.000 NA
ATOM     11  N   UNL     1       0.229   9.883  18.069  0.00  0.00    +0.000 N 
ATOM     12  C   UNL     1      -3.192  11.094  18.347  0.00  0.00    +0.000 A 
ATOM     13  C   UNL     1      -4.127  10.583  17.515  0.00  0.00    +0.000 A 
ATOM     14  C   UNL     1      -5.419  11.147  17.706  0.00  0.00    +0.000 A 
ATOM     15  C   UNL     1      -6.546  11.608  17.834  0.00  0.00    +0.000 A 
ATOM     16  C   UNL     1      -5.080  12.216  18.947  0.00  0.00    +0.000 A 
ATOM     17  C   UNL     1      -3.635  12.063  19.252  0.00  0.00    +0.000 A 
ATOM     18  N   UNL     1      -2.692  12.730  20.274  0.00  0.00    +0.000 N 
ATOM     19  C   UNL     1      -2.958  13.697  21.244  0.00  0.00    +0.000 A 
ATOM     20  O   UNL     1      -4.058  14.157  21.430  0.00  0.00    +0.000 OA
ATOM     21  C   UNL     1      -1.366  12.265  20.183  0.00  0.00    +0.000 A 
ENDROOT
BRANCH  14  22
ATOM     22  O   UNL     1      -6.764  12.208  18.495  0.00  0.00    +0.000 OA
ATOM     23  H   UNL     1      -7.666  11.936  18.802  0.00  0.00    +0.000 HD
ENDBRANCH  14  22
BRANCH   1  24
ATOM     24  C   UNL     1      -2.106  15.116  23.102  0.00  0.00    +0.000 C 
BRANCH  24  25
ATOM     25  C   UNL     1      -2.647  14.463  24.378  0.00  0.00    +0.000 C 
BRANCH  25  27
ATOM     26  C   UNL     1      -1.175  15.760  25.744  0.00  0.00    +0.000 C 
ATOM     27  N   UNL     1      -2.568  15.382  25.525  0.00  0.00    +0.000 NA
ATOM     28  C   UNL     1      -3.346  16.587  25.241  0.00  0.00    +0.000 C 
ENDBRANCH  25  27
ENDBRANCH  24  25
ENDBRANCH   1  24
BRANCH  11  29
ATOM     29  C   UNL     1       1.662   9.289  17.865  0.00  0.00    +0.000 C 
BRANCH  29  30
ATOM     30  C   UNL     1       2.119   8.153  18.735  0.00  0.00    +0.000 C 
BRANCH  30  31
ATOM     31  N   UNL     1       2.560   6.939  17.995  0.00  0.00    +0.000 NA
ATOM     32  C   UNL     1       3.914   7.114  17.461  0.00  0.00    +0.000 C 
ATOM     33  C   UNL     1       2.581   5.816  18.939  0.00  0.00    +0.000 C 
ENDBRANCH  30  31
ENDBRANCH  29  30
ENDBRANCH  11  29
TORSDOF 7
ENDMDL
