MODEL 1
REMARK VINA RESULT:      -6.9      0.000      0.000
REMARK  Name = 
REMARK  7 active torsions:
REMARK  status: ('A' for Active; 'I' for Inactive)
REMARK    1  A    between atoms: C_1  and  C_2
REMARK    2  A    between atoms: C_2  and  C_3
REMARK    3  A    between atoms: C_3  and  C_4
REMARK    4  A    between atoms: C_4  and  O_5
REMARK    5  A    between atoms: N_9  and  C_10
REMARK    6  A    between atoms: C_10  and  C_11
REMARK    7  A    between atoms: N_17  and  C_18
REMARK                            x       y       z     vdW  Elec       q    Type
REMARK                         _______ _______ _______ _____ _____    ______ ____
ROOT
ATOM      1  C   UNL     1       6.291   5.213  17.873  0.00  0.00    +0.000 C 
ATOM      2  C   UNL     1       6.005   4.225  16.711  0.00  0.00    +0.000 C 
ATOM      3  C   UNL     1       4.511   4.046  16.446  0.00  0.00    +0.000 C 
ATOM      4  C   UNL     1       3.762   3.687  17.727  0.00  0.00    +0.000 C 
ATOM      5  N   UNL     1       3.997   4.701  18.766  0.00  0.00    +0.000 NA
ATOM      6  C   UNL     1       5.431   4.788  19.096  0.00  0.00    +0.000 C 
ENDROOT
BRANCH   1   8
ATOM      7  C   UNL     1       7.101   7.653  17.421  0.00  0.00    +0.000 C 
ATOM      8  C   UNL     1       5.929   6.681  17.493  0.00  0.00    +0.000 C 
ENDBRANCH   1   8
BRANCH   1   9
ATOM      9  C   UNL     1       7.786   5.088  18.258  0.00  0.00    +0.000 C 
BRANCH   9  10
ATOM     10  O   UNL     1       8.400   3.949  17.667  0.00  0.00    +0.000 OA
ATOM     11  H   UNL     1       9.342   4.155  17.541  0.00  0.00    +0.000 HD
ENDBRANCH   9  10
ENDBRANCH   1   9
BRANCH   5  12
ATOM     12  C   UNL     1       3.164   4.459  19.964  0.00  0.00    +0.000 C 
BRANCH  12  13
ATOM     13  C   UNL     1       2.137   5.568  20.201  0.00  0.00    +0.000 C 
ATOM     14  O   UNL     1       0.998   5.303  20.606  0.00  0.00    +0.000 OA
ATOM     15  N   UNL     1       2.613   6.837  19.955  0.00  0.00    +0.000 N 
ATOM     16  C   UNL     1       1.788   7.917  20.166  0.00  0.00    +0.000 A 
ATOM     17  C   UNL     1       1.083   8.231  21.348  0.00  0.00    +0.000 A 
ATOM     18  C   UNL     1       0.329   9.334  21.030  0.00  0.00    +0.000 A 
ATOM     19  N   UNL     1       0.573   9.568  19.708  0.00  0.00    +0.000 N 
ATOM     20  C   UNL     1      -0.189  10.432  18.840  0.00  0.00    +0.000 C 
ATOM     21  N   UNL     1       1.579   8.820  19.207  0.00  0.00    +0.000 NA
ATOM     22  H   UNL     1       3.272   6.961  19.204  0.00  0.00    +0.000 HD
ENDBRANCH  12  13
ENDBRANCH   5  12
TORSDOF 5
ENDMDL
MODEL 2
REMARK VINA RESULT:      -6.6      1.337      1.597
REMARK  Name = 
REMARK  7 active torsions:
REMARK  status: ('A' for Active; 'I' for Inactive)
REMARK    1  A    between atoms: C_1  and  C_2
REMARK    2  A    between atoms: C_2  and  C_3
REMARK    3  A    between atoms: C_3  and  C_4
REMARK    4  A    between atoms: C_4  and  O_5
REMARK    5  A    between atoms: N_9  and  C_10
REMARK    6  A    between atoms: C_10  and  C_11
REMARK    7  A    between atoms: N_17  and  C_18
REMARK                            x       y       z     vdW  Elec       q    Type
REMARK                         _______ _______ _______ _____ _____    ______ ____
ROOT
ATOM      1  C   UNL     1       6.943   5.478  17.774  0.00  0.00    +0.000 C 
ATOM      2  C   UNL     1       7.443   4.830  16.456  0.00  0.00    +0.000 C 
ATOM      3  C   UNL     1       6.344   4.723  15.400  0.00  0.00    +0.000 C 
ATOM      4  C   UNL     1       5.102   4.035  15.963  0.00  0.00    +0.000 C 
ATOM      5  N   UNL     1       4.619   4.739  17.161  0.00  0.00    +0.000 NA
ATOM      6  C   UNL     1       5.647   4.741  18.217  0.00  0.00    +0.000 C 
ENDROOT
BRANCH   1   8
ATOM      7  C   UNL     1       7.825   7.927  17.593  0.00  0.00    +0.000 C 
ATOM      8  C   UNL     1       6.621   6.993  17.596  0.00  0.00    +0.000 C 
ENDBRANCH   1   8
BRANCH   1   9
ATOM      9  C   UNL     1       8.024   5.260  18.861  0.00  0.00    +0.000 C 
BRANCH   9  10
ATOM     10  O   UNL     1       7.556   5.602  20.161  0.00  0.00    +0.000 OA
ATOM     11  H   UNL     1       6.591   5.482  20.167  0.00  0.00    +0.000 HD
ENDBRANCH   9  10
ENDBRANCH   1   9
BRANCH   5  12
ATOM     12  C   UNL     1       3.332   4.187  17.637  0.00  0.00    +0.000 C 
BRANCH  12  13
ATOM     13  C   UNL     1       2.481   5.225  18.371  0.00  0.00    +0.000 C 
ATOM     14  O   UNL     1       1.499   4.881  19.041  0.00  0.00    +0.000 OA
ATOM     15  N   UNL     1       2.931   6.520  18.233  0.00  0.00    +0.000 N 
ATOM     16  C   UNL     1       2.263   7.535  18.877  0.00  0.00    +0.000 A 
ATOM     17  C   UNL     1       1.954   7.613  20.252  0.00  0.00    +0.000 A 
ATOM     18  C   UNL     1       1.200   8.753  20.384  0.00  0.00    +0.000 A 
ATOM     19  N   UNL     1       1.057   9.238  19.117  0.00  0.00    +0.000 N 
ATOM     20  C   UNL     1       0.120  10.250  18.692  0.00  0.00    +0.000 C 
ATOM     21  N   UNL     1       1.829   8.605  18.210  0.00  0.00    +0.000 NA
ATOM     22  H   UNL     1       3.345   6.789  17.356  0.00  0.00    +0.000 HD
ENDBRANCH  12  13
ENDBRANCH   5  12
TORSDOF 5
ENDMDL
MODEL 3
REMARK VINA RESULT:      -6.5      3.307      7.051
REMARK  Name = 
REMARK  7 active torsions:
REMARK  status: ('A' for Active; 'I' for Inactive)
REMARK    1  A    between atoms: C_1  and  C_2
REMARK    2  A    between atoms: C_2  and  C_3
REMARK    3  A    between atoms: C_3  and  C_4
REMARK    4  A    between atoms: C_4  and  O_5
REMARK    5  A    between atoms: N_9  and  C_10
REMARK    6  A    between atoms: C_10  and  C_11
REMARK    7  A    between atoms: N_17  and  C_18
REMARK                            x       y       z     vdW  Elec       q    Type
REMARK                         _______ _______ _______ _____ _____    ______ ____
ROOT
ATOM      1  C   UNL     1       3.441   3.601  19.424  0.00  0.00    +0.000 C 
ATOM      2  C   UNL     1       2.582   4.602  20.243  0.00  0.00    +0.000 C 
ATOM      3  C   UNL     1       2.381   5.933  19.519  0.00  0.00    +0.000 C 
ATOM      4  C   UNL     1       3.715   6.525  19.072  0.00  0.00    +0.000 C 
ATOM      5  N   UNL     1       4.450   5.570  18.229  0.00  0.00    +0.000 NA
ATOM      6  C   UNL     1       4.738   4.330  18.972  0.00  0.00    +0.000 C 
ENDROOT
BRANCH   1   8
ATOM      7  C   UNL     1       1.403   2.312  18.425  0.00  0.00    +0.000 C 
ATOM      8  C   UNL     1       2.689   3.085  18.159  0.00  0.00    +0.000 C 
ENDBRANCH   1   8
BRANCH   1   9
ATOM      9  C   UNL     1       3.837   2.429  20.355  0.00  0.00    +0.000 C 
BRANCH   9  10
ATOM     10  O   UNL     1       5.170   1.988  20.126  0.00  0.00    +0.000 OA
ATOM     11  H   UNL     1       5.153   1.017  20.062  0.00  0.00    +0.000 HD
ENDBRANCH   9  10
ENDBRANCH   1   9
BRANCH   5  12
ATOM     12  C   UNL     1       5.674   6.174  17.657  0.00  0.00    +0.000 C 
BRANCH  12  13
ATOM     13  C   UNL     1       5.807   5.923  16.154  0.00  0.00    +0.000 C 
ATOM     14  O   UNL     1       5.469   6.787  15.334  0.00  0.00    +0.000 OA
ATOM     15  N   UNL     1       6.351   4.698  15.834  0.00  0.00    +0.000 N 
ATOM     16  C   UNL     1       6.550   4.377  14.511  0.00  0.00    +0.000 A 
ATOM     17  C   UNL     1       7.259   5.129  13.550  0.00  0.00    +0.000 A 
ATOM     18  C   UNL     1       7.088   4.447  12.370  0.00  0.00    +0.000 A 
ATOM     19  N   UNL     1       6.267   3.401  12.673  0.00  0.00    +0.000 N 
ATOM     20  C   UNL     1       5.568   2.563  11.729  0.00  0.00    +0.000 C 
ATOM     21  N   UNL     1       6.062   3.247  13.998  0.00  0.00    +0.000 NA
ATOM     22  H   UNL     1       6.131   3.912  16.423  0.00  0.00    +0.000 HD
ENDBRANCH  12  13
ENDBRANCH   5  12
TORSDOF 5
ENDMDL
MODEL 4
REMARK VINA RESULT:      -6.5      2.704      4.221
REMARK  Name = 
REMARK  7 active torsions:
REMARK  status: ('A' for Active; 'I' for Inactive)
REMARK    1  A    between atoms: C_1  and  C_2
REMARK    2  A    between atoms: C_2  and  C_3
REMARK    3  A    between atoms: C_3  and  C_4
REMARK    4  A    between atoms: C_4  and  O_5
REMARK    5  A    between atoms: N_9  and  C_10
REMARK    6  A    between atoms: C_10  and  C_11
REMARK    7  A    between atoms: N_17  and  C_18
REMARK                            x       y       z     vdW  Elec       q    Type
REMARK                         _______ _______ _______ _____ _____    ______ ____
ROOT
ATOM      1  C   UNL     1       2.112   3.723  19.230  0.00  0.00    +0.000 C 
ATOM      2  C   UNL     1       3.487   3.024  19.056  0.00  0.00    +0.000 C 
ATOM      3  C   UNL     1       4.662   3.974  19.286  0.00  0.00    +0.000 C 
ATOM      4  C   UNL     1       4.527   5.235  18.435  0.00  0.00    +0.000 C 
ATOM      5  N   UNL     1       3.245   5.905  18.703  0.00  0.00    +0.000 NA
ATOM      6  C   UNL     1       2.114   5.020  18.373  0.00  0.00    +0.000 C 
ENDROOT
BRANCH   1   8
ATOM      7  C   UNL     1       1.941   2.966  21.722  0.00  0.00    +0.000 C 
ATOM      8  C   UNL     1       1.836   4.106  20.716  0.00  0.00    +0.000 C 
ENDBRANCH   1   8
BRANCH   1   9
ATOM      9  C   UNL     1       1.015   2.776  18.684  0.00  0.00    +0.000 C 
BRANCH   9  10
ATOM     10  O   UNL     1       1.469   1.432  18.579  0.00  0.00    +0.000 OA
ATOM     11  H   UNL     1       2.437   1.454  18.485  0.00  0.00    +0.000 HD
ENDBRANCH   9  10
ENDBRANCH   1   9
BRANCH   5  12
ATOM     12  C   UNL     1       3.154   7.208  18.007  0.00  0.00    +0.000 C 
BRANCH  12  13
ATOM     13  C   UNL     1       2.139   8.151  18.656  0.00  0.00    +0.000 C 
ATOM     14  O   UNL     1       1.896   8.086  19.867  0.00  0.00    +0.000 OA
ATOM     15  N   UNL     1       1.580   9.060  17.784  0.00  0.00    +0.000 N 
ATOM     16  C   UNL     1       0.677   9.981  18.262  0.00  0.00    +0.000 A 
ATOM     17  C   UNL     1       0.864  10.877  19.337  0.00  0.00    +0.000 A 
ATOM     18  C   UNL     1      -0.346  11.509  19.488  0.00  0.00    +0.000 A 
ATOM     19  N   UNL     1      -1.171  10.930  18.569  0.00  0.00    +0.000 N 
ATOM     20  C   UNL     1      -2.609  11.043  18.522  0.00  0.00    +0.000 C 
ATOM     21  N   UNL     1      -0.527  10.117  17.705  0.00  0.00    +0.000 NA
ATOM     22  H   UNL     1       1.409   8.766  16.836  0.00  0.00    +0.000 HD
ENDBRANCH  12  13
ENDBRANCH   5  12
TORSDOF 5
ENDMDL
MODEL 5
REMARK VINA RESULT:      -6.4      1.028      1.208
REMARK  Name = 
REMARK  7 active torsions:
REMARK  status: ('A' for Active; 'I' for Inactive)
REMARK    1  A    between atoms: C_1  and  C_2
REMARK    2  A    between atoms: C_2  and  C_3
REMARK    3  A    between atoms: C_3  and  C_4
REMARK    4  A    between atoms: C_4  and  O_5
REMARK    5  A    between atoms: N_9  and  C_10
REMARK    6  A    between atoms: C_10  and  C_11
REMARK    7  A    between atoms: N_17  and  C_18
REMARK                            x       y       z     vdW  Elec       q    Type
REMARK                         _______ _______ _______ _____ _____    ______ ____
ROOT
ATOM      1  C   UNL     1       6.409   5.473  17.437  0.00  0.00    +0.000 C 
ATOM      2  C   UNL     1       5.642   6.110  16.248  0.00  0.00    +0.000 C 
ATOM      3  C   UNL     1       4.443   6.943  16.700  0.00  0.00    +0.000 C 
ATOM      4  C   UNL     1       3.534   6.143  17.630  0.00  0.00    +0.000 C 
ATOM      5  N   UNL     1       4.292   5.635  18.784  0.00  0.00    +0.000 NA
ATOM      6  C   UNL     1       5.379   4.742  18.345  0.00  0.00    +0.000 C 
ENDROOT
BRANCH   1   8
ATOM      7  C   UNL     1       7.737   7.719  17.513  0.00  0.00    +0.000 C 
ATOM      8  C   UNL     1       7.157   6.543  18.290  0.00  0.00    +0.000 C 
ENDBRANCH   1   8
BRANCH   1   9
ATOM      9  C   UNL     1       7.394   4.421  16.870  0.00  0.00    +0.000 C 
BRANCH   9  10
ATOM     10  O   UNL     1       8.364   4.021  17.831  0.00  0.00    +0.000 OA
ATOM     11  H   UNL     1       9.023   4.734  17.899  0.00  0.00    +0.000 HD
ENDBRANCH   9  10
ENDBRANCH   1   9
BRANCH   5  12
ATOM     12  C   UNL     1       3.406   4.988  19.777  0.00  0.00    +0.000 C 
BRANCH  12  13
ATOM     13  C   UNL     1       2.236   5.881  20.194  0.00  0.00    +0.000 C 
ATOM     14  O   UNL     1       1.169   5.389  20.582  0.00  0.00    +0.000 OA
ATOM     15  N   UNL     1       2.506   7.230  20.122  0.00  0.00    +0.000 N 
ATOM     16  C   UNL     1       1.538   8.130  20.505  0.00  0.00    +0.000 A 
ATOM     17  C   UNL     1       0.847   8.164  21.735  0.00  0.00    +0.000 A 
ATOM     18  C   UNL     1      -0.077   9.171  21.596  0.00  0.00    +0.000 A 
ATOM     19  N   UNL     1       0.070   9.620  20.317  0.00  0.00    +0.000 N 
ATOM     20  C   UNL     1      -0.851  10.468  19.599  0.00  0.00    +0.000 C 
ATOM     21  N   UNL     1       1.153   9.114  19.691  0.00  0.00    +0.000 NA
ATOM     22  H   UNL     1       3.105   7.557  19.382  0.00  0.00    +0.000 HD
ENDBRANCH  12  13
ENDBRANCH   5  12
TORSDOF 5
ENDMDL
MODEL 6
REMARK VINA RESULT:      -6.4      1.934      2.263
REMARK  Name = 
REMARK  7 active torsions:
REMARK  status: ('A' for Active; 'I' for Inactive)
REMARK    1  A    between atoms: C_1  and  C_2
REMARK    2  A    between atoms: C_2  and  C_3
REMARK    3  A    between atoms: C_3  and  C_4
REMARK    4  A    between atoms: C_4  and  O_5
REMARK    5  A    between atoms: N_9  and  C_10
REMARK    6  A    between atoms: C_10  and  C_11
REMARK    7  A    between atoms: N_17  and  C_18
REMARK                            x       y       z     vdW  Elec       q    Type
REMARK                         _______ _______ _______ _____ _____    ______ ____
ROOT
ATOM      1  C   UNL     1       7.298   5.939  18.196  0.00  0.00    +0.000 C 
ATOM      2  C   UNL     1       7.567   4.617  17.428  0.00  0.00    +0.000 C 
ATOM      3  C   UNL     1       6.476   4.299  16.407  0.00  0.00    +0.000 C 
ATOM      4  C   UNL     1       5.091   4.339  17.048  0.00  0.00    +0.000 C 
ATOM      5  N   UNL     1       4.854   5.643  17.686  0.00  0.00    +0.000 NA
ATOM      6  C   UNL     1       5.845   5.894  18.748  0.00  0.00    +0.000 C 
ENDROOT
BRANCH   1   8
ATOM      7  C   UNL     1       8.115   8.401  17.912  0.00  0.00    +0.000 C 
ATOM      8  C   UNL     1       7.445   7.189  17.276  0.00  0.00    +0.000 C 
ENDBRANCH   1   8
BRANCH   1   9
ATOM      9  C   UNL     1       8.275   6.010  19.395  0.00  0.00    +0.000 C 
BRANCH   9  10
ATOM     10  O   UNL     1       7.794   5.288  20.523  0.00  0.00    +0.000 OA
ATOM     11  H   UNL     1       7.909   5.854  21.306  0.00  0.00    +0.000 HD
ENDBRANCH   9  10
ENDBRANCH   1   9
BRANCH   5  12
ATOM     12  C   UNL     1       3.465   5.765  18.181  0.00  0.00    +0.000 C 
BRANCH  12  13
ATOM     13  C   UNL     1       2.961   7.210  18.174  0.00  0.00    +0.000 C 
ATOM     14  O   UNL     1       3.428   8.041  17.384  0.00  0.00    +0.000 OA
ATOM     15  N   UNL     1       1.956   7.459  19.082  0.00  0.00    +0.000 N 
ATOM     16  C   UNL     1       1.402   8.717  19.142  0.00  0.00    +0.000 A 
ATOM     17  C   UNL     1       0.847   9.454  18.074  0.00  0.00    +0.000 A 
ATOM     18  C   UNL     1       0.524  10.675  18.615  0.00  0.00    +0.000 A 
ATOM     19  N   UNL     1       0.946  10.618  19.910  0.00  0.00    +0.000 N 
ATOM     20  C   UNL     1       1.094  11.736  20.810  0.00  0.00    +0.000 C 
ATOM     21  N   UNL     1       1.332   9.383  20.296  0.00  0.00    +0.000 NA
ATOM     22  H   UNL     1       1.981   6.975  19.965  0.00  0.00    +0.000 HD
ENDBRANCH  12  13
ENDBRANCH   5  12
TORSDOF 5
ENDMDL
MODEL 7
REMARK VINA RESULT:      -6.2      3.473      6.858
REMARK  Name = 
REMARK  7 active torsions:
REMARK  status: ('A' for Active; 'I' for Inactive)
REMARK    1  A    between atoms: C_1  and  C_2
REMARK    2  A    between atoms: C_2  and  C_3
REMARK    3  A    between atoms: C_3  and  C_4
REMARK    4  A    between atoms: C_4  and  O_5
REMARK    5  A    between atoms: N_9  and  C_10
REMARK    6  A    between atoms: C_10  and  C_11
REMARK    7  A    between atoms: N_17  and  C_18
REMARK                            x       y       z     vdW  Elec       q    Type
REMARK                         _______ _______ _______ _____ _____    ______ ____
ROOT
ATOM      1  C   UNL     1       2.745   3.001  19.982  0.00  0.00    +0.000 C 
ATOM      2  C   UNL     1       1.271   3.008  19.499  0.00  0.00    +0.000 C 
ATOM      3  C   UNL     1       1.123   3.527  18.070  0.00  0.00    +0.000 C 
ATOM      4  C   UNL     1       1.807   4.882  17.901  0.00  0.00    +0.000 C 
ATOM      5  N   UNL     1       3.223   4.799  18.290  0.00  0.00    +0.000 NA
ATOM      6  C   UNL     1       3.355   4.405  19.705  0.00  0.00    +0.000 C 
ENDROOT
BRANCH   1   8
ATOM      7  C   UNL     1       4.836   1.439  19.982  0.00  0.00    +0.000 C 
ATOM      8  C   UNL     1       3.599   1.929  19.239  0.00  0.00    +0.000 C 
ENDBRANCH   1   8
BRANCH   1   9
ATOM      9  C   UNL     1       2.753   2.759  21.512  0.00  0.00    +0.000 C 
BRANCH   9  10
ATOM     10  O   UNL     1       1.439   2.707  22.054  0.00  0.00    +0.000 OA
ATOM     11  H   UNL     1       0.829   3.065  21.386  0.00  0.00    +0.000 HD
ENDBRANCH   9  10
ENDBRANCH   1   9
BRANCH   5  12
ATOM     12  C   UNL     1       3.946   6.055  17.993  0.00  0.00    +0.000 C 
BRANCH  12  13
ATOM     13  C   UNL     1       4.750   5.978  16.693  0.00  0.00    +0.000 C 
ATOM     14  O   UNL     1       4.963   6.993  16.017  0.00  0.00    +0.000 OA
ATOM     15  N   UNL     1       5.216   4.716  16.394  0.00  0.00    +0.000 N 
ATOM     16  C   UNL     1       5.981   4.533  15.266  0.00  0.00    +0.000 A 
ATOM     17  C   UNL     1       7.155   5.230  14.911  0.00  0.00    +0.000 A 
ATOM     18  C   UNL     1       7.484   4.761  13.663  0.00  0.00    +0.000 A 
ATOM     19  N   UNL     1       6.490   3.887  13.333  0.00  0.00    +0.000 N 
ATOM     20  C   UNL     1       6.227   3.350  12.020  0.00  0.00    +0.000 C 
ATOM     21  N   UNL     1       5.656   3.611  14.357  0.00  0.00    +0.000 NA
ATOM     22  H   UNL     1       4.640   3.927  16.637  0.00  0.00    +0.000 HD
ENDBRANCH  12  13
ENDBRANCH   5  12
TORSDOF 5
ENDMDL
MODEL 8
REMARK VINA RESULT:      -6.2      1.881      2.477
REMARK  Name = 
REMARK  7 active torsions:
REMARK  status: ('A' for Active; 'I' for Inactive)
REMARK    1  A    between atoms: C_1  and  C_2
REMARK    2  A    between atoms: C_2  and  C_3
REMARK    3  A    between atoms: C_3  and  C_4
REMARK    4  A    between atoms: C_4  and  O_5
REMARK    5  A    between atoms: N_9  and  C_10
REMARK    6  A    between atoms: C_10  and  C_11
REMARK    7  A    between atoms: N_17  and  C_18
REMARK                            x       y       z     vdW  Elec       q    Type
REMARK                         _______ _______ _______ _____ _____    ______ ____
ROOT
ATOM      1  C   UNL     1       5.088   5.108  17.984  0.00  0.00    +0.000 C 
ATOM      2  C   UNL     1       4.404   3.777  17.572  0.00  0.00    +0.000 C 
ATOM      3  C   UNL     1       2.887   3.911  17.443  0.00  0.00    +0.000 C 
ATOM      4  C   UNL     1       2.279   4.523  18.702  0.00  0.00    +0.000 C 
ATOM      5  N   UNL     1       2.901   5.823  18.999  0.00  0.00    +0.000 NA
ATOM      6  C   UNL     1       4.348   5.668  19.232  0.00  0.00    +0.000 C 
ENDROOT
BRANCH   1   8
ATOM      7  C   UNL     1       5.477   5.695  15.471  0.00  0.00    +0.000 C 
ATOM      8  C   UNL     1       5.027   6.173  16.847  0.00  0.00    +0.000 C 
ENDBRANCH   1   8
BRANCH   1   9
ATOM      9  C   UNL     1       6.552   4.798  18.381  0.00  0.00    +0.000 C 
BRANCH   9  10
ATOM     10  O   UNL     1       6.845   5.204  19.713  0.00  0.00    +0.000 OA
ATOM     11  H   UNL     1       6.102   5.750  20.025  0.00  0.00    +0.000 HD
ENDBRANCH   9  10
ENDBRANCH   1   9
BRANCH   5  12
ATOM     12  C   UNL     1       2.226   6.508  20.123  0.00  0.00    +0.000 C 
BRANCH  12  13
ATOM     13  C   UNL     1       1.794   7.933  19.770  0.00  0.00    +0.000 C 
ATOM     14  O   UNL     1       2.016   8.403  18.647  0.00  0.00    +0.000 OA
ATOM     15  N   UNL     1       1.132   8.587  20.786  0.00  0.00    +0.000 N 
ATOM     16  C   UNL     1       0.666   9.863  20.571  0.00  0.00    +0.000 A 
ATOM     17  C   UNL     1      -0.170  10.299  19.521  0.00  0.00    +0.000 A 
ATOM     18  C   UNL     1      -0.267  11.659  19.684  0.00  0.00    +0.000 A 
ATOM     19  N   UNL     1       0.538  11.952  20.745  0.00  0.00    +0.000 N 
ATOM     20  C   UNL     1       0.996  13.265  21.131  0.00  0.00    +0.000 C 
ATOM     21  N   UNL     1       0.984  10.860  21.399  0.00  0.00    +0.000 NA
ATOM     22  H   UNL     1       1.416   8.404  21.734  0.00  0.00    +0.000 HD
ENDBRANCH  12  13
ENDBRANCH   5  12
TORSDOF 5
ENDMDL
MODEL 9
REMARK VINA RESULT:      -6.2      2.260      3.301
REMARK  Name = 
REMARK  7 active torsions:
REMARK  status: ('A' for Active; 'I' for Inactive)
REMARK    1  A    between atoms: C_1  and  C_2
REMARK    2  A    between atoms: C_2  and  C_3
REMARK    3  A    between atoms: C_3  and  C_4
REMARK    4  A    between atoms: C_4  and  O_5
REMARK    5  A    between atoms: N_9  and  C_10
REMARK    6  A    between atoms: C_10  and  C_11
REMARK    7  A    between atoms: N_17  and  C_18
REMARK                            x       y       z     vdW  Elec       q    Type
REMARK                         _______ _______ _______ _____ _____    ______ ____
ROOT
ATOM      1  C   UNL     1       3.404   3.537  18.761  0.00  0.00    +0.000 C 
ATOM      2  C   UNL     1       2.373   2.392  18.947  0.00  0.00    +0.000 C 
ATOM      3  C   UNL     1       0.950   2.910  19.152  0.00  0.00    +0.000 C 
ATOM      4  C   UNL     1       0.895   3.943  20.274  0.00  0.00    +0.000 C 
ATOM      5  N   UNL     1       1.827   5.049  20.006  0.00  0.00    +0.000 NA
ATOM      6  C   UNL     1       3.213   4.556  19.920  0.00  0.00    +0.000 C 
ENDROOT
BRANCH   1   8
ATOM      7  C   UNL     1       4.110   5.493  17.184  0.00  0.00    +0.000 C 
ATOM      8  C   UNL     1       3.212   4.281  17.405  0.00  0.00    +0.000 C 
ENDBRANCH   1   8
BRANCH   1   9
ATOM      9  C   UNL     1       4.825   2.932  18.871  0.00  0.00    +0.000 C 
BRANCH   9  10
ATOM     10  O   UNL     1       4.936   2.013  19.951  0.00  0.00    +0.000 OA
ATOM     11  H   UNL     1       5.817   2.129  20.347  0.00  0.00    +0.000 HD
ENDBRANCH   9  10
ENDBRANCH   1   9
BRANCH   5  12
ATOM     12  C   UNL     1       1.683   6.137  20.998  0.00  0.00    +0.000 C 
BRANCH  12  13
ATOM     13  C   UNL     1       1.647   7.523  20.350  0.00  0.00    +0.000 C 
ATOM     14  O   UNL     1       2.217   7.735  19.273  0.00  0.00    +0.000 OA
ATOM     15  N   UNL     1       0.915   8.454  21.055  0.00  0.00    +0.000 N 
ATOM     16  C   UNL     1       0.785   9.727  20.550  0.00  0.00    +0.000 A 
ATOM     17  C   UNL     1       0.324  10.091  19.267  0.00  0.00    +0.000 A 
ATOM     18  C   UNL     1       0.474  11.455  19.209  0.00  0.00    +0.000 A 
ATOM     19  N   UNL     1       1.050  11.805  20.395  0.00  0.00    +0.000 N 
ATOM     20  C   UNL     1       1.665  13.073  20.704  0.00  0.00    +0.000 C 
ATOM     21  N   UNL     1       1.097  10.794  21.287  0.00  0.00    +0.000 NA
ATOM     22  H   UNL     1       0.926   8.406  22.060  0.00  0.00    +0.000 HD
ENDBRANCH  12  13
ENDBRANCH   5  12
TORSDOF 5
ENDMDL
