MODEL 1
REMARK VINA RESULT:      -5.9      0.000      0.000
REMARK  Name = 
REMARK  1 active torsions:
REMARK  status: ('A' for Active; 'I' for Inactive)
REMARK    1  A    between atoms: C_5  and  C_6
REMARK                            x       y       z     vdW  Elec       q    Type
REMARK                         _______ _______ _______ _____ _____    ______ ____
ROOT
ATOM      1 CL   UNL     1       0.593   2.219  18.721  0.00  0.00    +0.000 Cl
ATOM      2  C   UNL     1       1.965   3.145  18.253  0.00  0.00    +0.000 A 
ATOM      3  C   UNL     1       3.170   2.505  17.980  0.00  0.00    +0.000 A 
ATOM      4  C   UNL     1       4.289   3.258  17.614  0.00  0.00    +0.000 A 
ATOM      5  C   UNL     1       4.221   4.657  17.531  0.00  0.00    +0.000 A 
ATOM      6  C   UNL     1       2.986   5.281  17.787  0.00  0.00    +0.000 A 
ATOM      7  C   UNL     1       1.865   4.529  18.149  0.00  0.00    +0.000 A 
ENDROOT
BRANCH   5   8
ATOM      8  C   UNL     1       5.420   5.522  17.172  0.00  0.00    +0.000 C 
ATOM      9  C   UNL     1       5.308   6.115  15.772  0.00  0.00    +0.000 C 
ATOM     10  C   UNL     1       6.041   5.114  14.901  0.00  0.00    +0.000 C 
ATOM     11  N   UNL     1       7.156   4.624  15.717  0.00  0.00    +0.000 NA
ATOM     12  C   UNL     1       6.777   4.803  17.132  0.00  0.00    +0.000 C 
ATOM     13  H   UNL     1       7.981   5.192  15.527  0.00  0.00    +0.000 HD
ENDBRANCH   5   8
TORSDOF 1
ENDMDL
MODEL 2
REMARK VINA RESULT:      -5.9      0.741      1.545
REMARK  Name = 
REMARK  1 active torsions:
REMARK  status: ('A' for Active; 'I' for Inactive)
REMARK    1  A    between atoms: C_5  and  C_6
REMARK                            x       y       z     vdW  Elec       q    Type
REMARK                         _______ _______ _______ _____ _____    ______ ____
ROOT
ATOM      1 CL   UNL     1       0.707   2.385  18.678  0.00  0.00    +0.000 Cl
ATOM      2  C   UNL     1       2.137   3.291  18.376  0.00  0.00    +0.000 A 
ATOM      3  C   UNL     1       2.042   4.613  17.953  0.00  0.00    +0.000 A 
ATOM      4  C   UNL     1       3.205   5.345  17.694  0.00  0.00    +0.000 A 
ATOM      5  C   UNL     1       4.472   4.761  17.839  0.00  0.00    +0.000 A 
ATOM      6  C   UNL     1       4.545   3.431  18.292  0.00  0.00    +0.000 A 
ATOM      7  C   UNL     1       3.384   2.699  18.556  0.00  0.00    +0.000 A 
ENDROOT
BRANCH   5   8
ATOM      8  C   UNL     1       5.763   5.505  17.535  0.00  0.00    +0.000 C 
ATOM      9  C   UNL     1       5.997   5.673  16.038  0.00  0.00    +0.000 C 
ATOM     10  C   UNL     1       6.853   4.477  15.674  0.00  0.00    +0.000 C 
ATOM     11  N   UNL     1       7.732   4.255  16.826  0.00  0.00    +0.000 NA
ATOM     12  C   UNL     1       7.056   4.824  18.009  0.00  0.00    +0.000 C 
ATOM     13  H   UNL     1       8.606   4.757  16.679  0.00  0.00    +0.000 HD
ENDBRANCH   5   8
TORSDOF 1
ENDMDL
MODEL 3
REMARK VINA RESULT:      -5.9      1.195      1.212
REMARK  Name = 
REMARK  1 active torsions:
REMARK  status: ('A' for Active; 'I' for Inactive)
REMARK    1  A    between atoms: C_5  and  C_6
REMARK                            x       y       z     vdW  Elec       q    Type
REMARK                         _______ _______ _______ _____ _____    ______ ____
ROOT
ATOM      1 CL   UNL     1       0.810   3.091  19.692  0.00  0.00    +0.000 Cl
ATOM      2  C   UNL     1       2.270   3.783  19.102  0.00  0.00    +0.000 A 
ATOM      3  C   UNL     1       3.492   3.356  19.610  0.00  0.00    +0.000 A 
ATOM      4  C   UNL     1       4.679   3.929  19.141  0.00  0.00    +0.000 A 
ATOM      5  C   UNL     1       4.655   4.944  18.173  0.00  0.00    +0.000 A 
ATOM      6  C   UNL     1       3.409   5.343  17.655  0.00  0.00    +0.000 A 
ATOM      7  C   UNL     1       2.223   4.767  18.120  0.00  0.00    +0.000 A 
ENDROOT
BRANCH   5   8
ATOM      8  C   UNL     1       5.916   5.622  17.658  0.00  0.00    +0.000 C 
ATOM      9  C   UNL     1       6.027   5.561  16.139  0.00  0.00    +0.000 C 
ATOM     10  C   UNL     1       6.855   4.316  15.892  0.00  0.00    +0.000 C 
ATOM     11  N   UNL     1       7.825   4.262  16.990  0.00  0.00    +0.000 NA
ATOM     12  C   UNL     1       7.245   5.009  18.124  0.00  0.00    +0.000 C 
ATOM     13  H   UNL     1       8.683   4.729  16.699  0.00  0.00    +0.000 HD
ENDBRANCH   5   8
TORSDOF 1
ENDMDL
MODEL 4
REMARK VINA RESULT:      -5.8      3.424      5.079
REMARK  Name = 
REMARK  1 active torsions:
REMARK  status: ('A' for Active; 'I' for Inactive)
REMARK    1  A    between atoms: C_5  and  C_6
REMARK                            x       y       z     vdW  Elec       q    Type
REMARK                         _______ _______ _______ _____ _____    ______ ____
ROOT
ATOM      1 CL   UNL     1       6.069   5.561  15.650  0.00  0.00    +0.000 Cl
ATOM      2  C   UNL     1       4.753   5.149  16.677  0.00  0.00    +0.000 A 
ATOM      3  C   UNL     1       4.306   3.832  16.735  0.00  0.00    +0.000 A 
ATOM      4  C   UNL     1       3.227   3.500  17.559  0.00  0.00    +0.000 A 
ATOM      5  C   UNL     1       2.573   4.480  18.320  0.00  0.00    +0.000 A 
ATOM      6  C   UNL     1       3.056   5.800  18.265  0.00  0.00    +0.000 A 
ATOM      7  C   UNL     1       4.139   6.133  17.446  0.00  0.00    +0.000 A 
ENDROOT
BRANCH   5   8
ATOM      8  C   UNL     1       1.372   4.174  19.203  0.00  0.00    +0.000 C 
ATOM      9  C   UNL     1       1.484   4.823  20.578  0.00  0.00    +0.000 C 
ATOM     10  C   UNL     1       2.116   3.742  21.432  0.00  0.00    +0.000 C 
ATOM     11  N   UNL     1       1.561   2.477  20.941  0.00  0.00    +0.000 NA
ATOM     12  C   UNL     1       1.149   2.692  19.541  0.00  0.00    +0.000 C 
ATOM     13  H   UNL     1       0.734   2.241  21.490  0.00  0.00    +0.000 HD
ENDBRANCH   5   8
TORSDOF 1
ENDMDL
MODEL 5
REMARK VINA RESULT:      -5.8      3.410      5.239
REMARK  Name = 
REMARK  1 active torsions:
REMARK  status: ('A' for Active; 'I' for Inactive)
REMARK    1  A    between atoms: C_5  and  C_6
REMARK                            x       y       z     vdW  Elec       q    Type
REMARK                         _______ _______ _______ _____ _____    ______ ____
ROOT
ATOM      1 CL   UNL     1       6.291   5.508  15.893  0.00  0.00    +0.000 Cl
ATOM      2  C   UNL     1       4.885   5.142  16.814  0.00  0.00    +0.000 A 
ATOM      3  C   UNL     1       4.236   6.152  17.517  0.00  0.00    +0.000 A 
ATOM      4  C   UNL     1       3.102   5.852  18.277  0.00  0.00    +0.000 A 
ATOM      5  C   UNL     1       2.613   4.540  18.355  0.00  0.00    +0.000 A 
ATOM      6  C   UNL     1       3.269   3.539  17.615  0.00  0.00    +0.000 A 
ATOM      7  C   UNL     1       4.401   3.838  16.851  0.00  0.00    +0.000 A 
ENDROOT
BRANCH   5   8
ATOM      8  C   UNL     1       1.404   4.158  19.196  0.00  0.00    +0.000 C 
ATOM      9  C   UNL     1       1.459   4.759  20.596  0.00  0.00    +0.000 C 
ATOM     10  C   UNL     1       2.110   3.671  21.426  0.00  0.00    +0.000 C 
ATOM     11  N   UNL     1       1.615   2.405  20.876  0.00  0.00    +0.000 NA
ATOM     12  C   UNL     1       1.229   2.657  19.474  0.00  0.00    +0.000 C 
ATOM     13  H   UNL     1       0.785   2.119  21.395  0.00  0.00    +0.000 HD
ENDBRANCH   5   8
TORSDOF 1
ENDMDL
MODEL 6
REMARK VINA RESULT:      -5.8      3.546      5.178
REMARK  Name = 
REMARK  1 active torsions:
REMARK  status: ('A' for Active; 'I' for Inactive)
REMARK    1  A    between atoms: C_5  and  C_6
REMARK                            x       y       z     vdW  Elec       q    Type
REMARK                         _______ _______ _______ _____ _____    ______ ____
ROOT
ATOM      1 CL   UNL     1       7.129   4.459  16.569  0.00  0.00    +0.000 Cl
ATOM      2  C   UNL     1       5.603   4.469  17.361  0.00  0.00    +0.000 A 
ATOM      3  C   UNL     1       4.522   3.805  16.789  0.00  0.00    +0.000 A 
ATOM      4  C   UNL     1       3.277   3.825  17.425  0.00  0.00    +0.000 A 
ATOM      5  C   UNL     1       3.095   4.520  18.630  0.00  0.00    +0.000 A 
ATOM      6  C   UNL     1       4.208   5.164  19.203  0.00  0.00    +0.000 A 
ATOM      7  C   UNL     1       5.454   5.140  18.570  0.00  0.00    +0.000 A 
ENDROOT
BRANCH   5   8
ATOM      8  C   UNL     1       1.753   4.601  19.341  0.00  0.00    +0.000 C 
ATOM      9  C   UNL     1       1.898   4.982  20.810  0.00  0.00    +0.000 C 
ATOM     10  C   UNL     1       1.952   3.645  21.522  0.00  0.00    +0.000 C 
ATOM     11  N   UNL     1       1.043   2.766  20.779  0.00  0.00    +0.000 NA
ATOM     12  C   UNL     1       0.948   3.295  19.404  0.00  0.00    +0.000 C 
ATOM     13  H   UNL     1       0.118   2.807  21.207  0.00  0.00    +0.000 HD
ENDBRANCH   5   8
TORSDOF 1
ENDMDL
MODEL 7
REMARK VINA RESULT:      -5.8      1.008      1.990
REMARK  Name = 
REMARK  1 active torsions:
REMARK  status: ('A' for Active; 'I' for Inactive)
REMARK    1  A    between atoms: C_5  and  C_6
REMARK                            x       y       z     vdW  Elec       q    Type
REMARK                         _______ _______ _______ _____ _____    ______ ____
ROOT
ATOM      1 CL   UNL     1       0.710   2.668  19.146  0.00  0.00    +0.000 Cl
ATOM      2  C   UNL     1       2.048   3.432  18.381  0.00  0.00    +0.000 A 
ATOM      3  C   UNL     1       2.155   4.819  18.396  0.00  0.00    +0.000 A 
ATOM      4  C   UNL     1       3.234   5.440  17.761  0.00  0.00    +0.000 A 
ATOM      5  C   UNL     1       4.209   4.685  17.093  0.00  0.00    +0.000 A 
ATOM      6  C   UNL     1       4.095   3.283  17.111  0.00  0.00    +0.000 A 
ATOM      7  C   UNL     1       3.019   2.660  17.750  0.00  0.00    +0.000 A 
ENDROOT
BRANCH   5   8
ATOM      8  C   UNL     1       5.382   5.316  16.358  0.00  0.00    +0.000 C 
ATOM      9  C   UNL     1       6.567   4.365  16.232  0.00  0.00    +0.000 C 
ATOM     10  C   UNL     1       7.421   4.699  17.438  0.00  0.00    +0.000 C 
ATOM     11  N   UNL     1       7.289   6.147  17.628  0.00  0.00    +0.000 NA
ATOM     12  C   UNL     1       6.004   6.552  17.025  0.00  0.00    +0.000 C 
ATOM     13  H   UNL     1       8.044   6.617  17.129  0.00  0.00    +0.000 HD
ENDBRANCH   5   8
TORSDOF 1
ENDMDL
MODEL 8
REMARK VINA RESULT:      -5.7      3.304      4.990
REMARK  Name = 
REMARK  1 active torsions:
REMARK  status: ('A' for Active; 'I' for Inactive)
REMARK    1  A    between atoms: C_5  and  C_6
REMARK                            x       y       z     vdW  Elec       q    Type
REMARK                         _______ _______ _______ _____ _____    ______ ____
ROOT
ATOM      1 CL   UNL     1       7.477   7.242  17.464  0.00  0.00    +0.000 Cl
ATOM      2  C   UNL     1       6.122   6.187  17.371  0.00  0.00    +0.000 A 
ATOM      3  C   UNL     1       4.835   6.701  17.494  0.00  0.00    +0.000 A 
ATOM      4  C   UNL     1       3.734   5.842  17.433  0.00  0.00    +0.000 A 
ATOM      5  C   UNL     1       3.907   4.460  17.264  0.00  0.00    +0.000 A 
ATOM      6  C   UNL     1       5.215   3.965  17.116  0.00  0.00    +0.000 A 
ATOM      7  C   UNL     1       6.317   4.824  17.172  0.00  0.00    +0.000 A 
ENDROOT
BRANCH   5   8
ATOM      8  C   UNL     1       2.743   3.481  17.227  0.00  0.00    +0.000 C 
ATOM      9  C   UNL     1       1.506   4.024  17.935  0.00  0.00    +0.000 C 
ATOM     10  C   UNL     1       1.636   3.483  19.344  0.00  0.00    +0.000 C 
ATOM     11  N   UNL     1       2.230   2.150  19.202  0.00  0.00    +0.000 NA
ATOM     12  C   UNL     1       2.977   2.136  17.930  0.00  0.00    +0.000 C 
ATOM     13  H   UNL     1       1.483   1.458  19.148  0.00  0.00    +0.000 HD
ENDBRANCH   5   8
TORSDOF 1
ENDMDL
MODEL 9
REMARK VINA RESULT:      -5.7      1.045      1.473
REMARK  Name = 
REMARK  1 active torsions:
REMARK  status: ('A' for Active; 'I' for Inactive)
REMARK    1  A    between atoms: C_5  and  C_6
REMARK                            x       y       z     vdW  Elec       q    Type
REMARK                         _______ _______ _______ _____ _____    ______ ____
ROOT
ATOM      1 CL   UNL     1       0.719   2.847  19.292  0.00  0.00    +0.000 Cl
ATOM      2  C   UNL     1       2.038   3.555  18.446  0.00  0.00    +0.000 A 
ATOM      3  C   UNL     1       2.938   2.743  17.763  0.00  0.00    +0.000 A 
ATOM      4  C   UNL     1       4.019   3.317  17.087  0.00  0.00    +0.000 A 
ATOM      5  C   UNL     1       4.221   4.705  17.098  0.00  0.00    +0.000 A 
ATOM      6  C   UNL     1       3.284   5.509  17.774  0.00  0.00    +0.000 A 
ATOM      7  C   UNL     1       2.201   4.937  18.446  0.00  0.00    +0.000 A 
ENDROOT
BRANCH   5   8
ATOM      8  C   UNL     1       5.400   5.373  16.408  0.00  0.00    +0.000 C 
ATOM      9  C   UNL     1       6.579   4.424  16.226  0.00  0.00    +0.000 C 
ATOM     10  C   UNL     1       7.431   4.675  17.454  0.00  0.00    +0.000 C 
ATOM     11  N   UNL     1       7.308   6.109  17.734  0.00  0.00    +0.000 NA
ATOM     12  C   UNL     1       6.028   6.560  17.154  0.00  0.00    +0.000 C 
ATOM     13  H   UNL     1       8.068   6.605  17.268  0.00  0.00    +0.000 HD
ENDBRANCH   5   8
TORSDOF 1
ENDMDL
