MODEL 1
REMARK VINA RESULT:      -8.1      0.000      0.000
REMARK  Name = 
REMARK  5 active torsions:
REMARK  status: ('A' for Active; 'I' for Inactive)
REMARK    1  A    between atoms: C_1  and  C_2
REMARK    2  A    between atoms: C_2  and  C_3
REMARK    3  A    between atoms: C_3  and  C_4
REMARK    4  A    between atoms: C_4  and  C_5
REMARK    5  A    between atoms: C_6  and  C_7
REMARK                            x       y       z     vdW  Elec       q    Type
REMARK                         _______ _______ _______ _____ _____    ______ ____
ROOT
ATOM      1  C   UNL     1       6.702   6.090  17.968  0.00  0.00    +0.000 A 
ATOM      2  C   UNL     1       5.568   5.709  17.366  0.00  0.00    +0.000 A 
ATOM      3  C   UNL     1       5.126   6.074  15.988  0.00  0.00    +0.000 C 
ATOM      4  N   UNL     1       4.838   4.874  18.171  0.00  0.00    +0.000 N 
ATOM      5  C   UNL     1       3.725   4.100  17.916  0.00  0.00    +0.000 C 
ATOM      6  O   UNL     1       3.230   4.037  16.787  0.00  0.00    +0.000 OA
ATOM      7  N   UNL     1       3.153   3.389  18.983  0.00  0.00    +0.000 N 
ATOM      8  C   UNL     1       2.113   2.394  18.696  0.00  0.00    +0.000 C 
ATOM      9  C   UNL     1       0.837   2.678  19.490  0.00  0.00    +0.000 C 
ATOM     10  C   UNL     1       1.122   2.826  20.983  0.00  0.00    +0.000 C 
ATOM     11  C   UNL     1       2.210   3.855  21.220  0.00  0.00    +0.000 C 
ATOM     12  C   UNL     1       3.457   3.539  20.409  0.00  0.00    +0.000 C 
ATOM     13  O   UNL     1       5.608   4.642  19.319  0.00  0.00    +0.000 OA
ATOM     14  C   UNL     1       6.700   5.426  19.275  0.00  0.00    +0.000 A 
ATOM     15  O   UNL     1       7.539   5.528  20.153  0.00  0.00    +0.000 OA
ENDROOT
BRANCH   1  16
ATOM     16  C   UNL     1       7.873   6.903  17.540  0.00  0.00    +0.000 C 
BRANCH  16  17
ATOM     17  C   UNL     1       7.645   8.408  17.721  0.00  0.00    +0.000 C 
BRANCH  17  19
ATOM     18  C   UNL     1       8.964  10.489  18.229  0.00  0.00    +0.000 C 
ATOM     19  C   UNL     1       8.664   9.063  18.658  0.00  0.00    +0.000 C 
ENDBRANCH  17  19
ENDBRANCH  16  17
ENDBRANCH   1  16
TORSDOF 3
ENDMDL
MODEL 2
REMARK VINA RESULT:      -7.6      1.144      1.167
REMARK  Name = 
REMARK  5 active torsions:
REMARK  status: ('A' for Active; 'I' for Inactive)
REMARK    1  A    between atoms: C_1  and  C_2
REMARK    2  A    between atoms: C_2  and  C_3
REMARK    3  A    between atoms: C_3  and  C_4
REMARK    4  A    between atoms: C_4  and  C_5
REMARK    5  A    between atoms: C_6  and  C_7
REMARK                            x       y       z     vdW  Elec       q    Type
REMARK                         _______ _______ _______ _____ _____    ______ ____
ROOT
ATOM      1  C   UNL     1       6.289   6.208  17.698  0.00  0.00    +0.000 A 
ATOM      2  C   UNL     1       4.961   6.379  17.702  0.00  0.00    +0.000 A 
ATOM      3  C   UNL     1       4.210   7.533  17.127  0.00  0.00    +0.000 C 
ATOM      4  N   UNL     1       4.327   5.309  18.282  0.00  0.00    +0.000 N 
ATOM      5  C   UNL     1       2.995   4.959  18.341  0.00  0.00    +0.000 C 
ATOM      6  O   UNL     1       2.127   5.629  17.775  0.00  0.00    +0.000 OA
ATOM      7  N   UNL     1       2.642   3.817  19.079  0.00  0.00    +0.000 N 
ATOM      8  C   UNL     1       1.273   3.301  18.975  0.00  0.00    +0.000 C 
ATOM      9  C   UNL     1       0.613   3.189  20.350  0.00  0.00    +0.000 C 
ATOM     10  C   UNL     1       1.477   2.392  21.327  0.00  0.00    +0.000 C 
ATOM     11  C   UNL     1       2.882   2.961  21.386  0.00  0.00    +0.000 C 
ATOM     12  C   UNL     1       3.496   3.060  19.998  0.00  0.00    +0.000 C 
ATOM     13  O   UNL     1       5.319   4.364  18.580  0.00  0.00    +0.000 OA
ATOM     14  C   UNL     1       6.524   4.903  18.324  0.00  0.00    +0.000 A 
ATOM     15  O   UNL     1       7.601   4.378  18.546  0.00  0.00    +0.000 OA
ENDROOT
BRANCH   1  16
ATOM     16  C   UNL     1       7.426   6.990  17.141  0.00  0.00    +0.000 C 
BRANCH  16  17
ATOM     17  C   UNL     1       8.164   7.803  18.211  0.00  0.00    +0.000 C 
BRANCH  17  19
ATOM     18  C   UNL     1       9.074  10.044  18.903  0.00  0.00    +0.000 C 
ATOM     19  C   UNL     1       8.184   9.306  17.917  0.00  0.00    +0.000 C 
ENDBRANCH  17  19
ENDBRANCH  16  17
ENDBRANCH   1  16
TORSDOF 3
ENDMDL
MODEL 3
REMARK VINA RESULT:      -7.2      2.995      6.633
REMARK  Name = 
REMARK  5 active torsions:
REMARK  status: ('A' for Active; 'I' for Inactive)
REMARK    1  A    between atoms: C_1  and  C_2
REMARK    2  A    between atoms: C_2  and  C_3
REMARK    3  A    between atoms: C_3  and  C_4
REMARK    4  A    between atoms: C_4  and  C_5
REMARK    5  A    between atoms: C_6  and  C_7
REMARK                            x       y       z     vdW  Elec       q    Type
REMARK                         _______ _______ _______ _____ _____    ______ ____
ROOT
ATOM      1  C   UNL     1       2.946   4.793  17.928  0.00  0.00    +0.000 A 
ATOM      2  C   UNL     1       3.745   5.704  17.359  0.00  0.00    +0.000 A 
ATOM      3  C   UNL     1       3.794   7.163  17.670  0.00  0.00    +0.000 C 
ATOM      4  N   UNL     1       4.585   5.123  16.445  0.00  0.00    +0.000 N 
ATOM      5  C   UNL     1       5.681   5.615  15.767  0.00  0.00    +0.000 C 
ATOM      6  O   UNL     1       6.099   6.760  15.964  0.00  0.00    +0.000 OA
ATOM      7  N   UNL     1       6.309   4.782  14.827  0.00  0.00    +0.000 N 
ATOM      8  C   UNL     1       7.596   5.197  14.259  0.00  0.00    +0.000 C 
ATOM      9  C   UNL     1       7.546   5.233  12.732  0.00  0.00    +0.000 C 
ATOM     10  C   UNL     1       7.039   3.914  12.153  0.00  0.00    +0.000 C 
ATOM     11  C   UNL     1       5.714   3.528  12.782  0.00  0.00    +0.000 C 
ATOM     12  C   UNL     1       5.807   3.510  14.299  0.00  0.00    +0.000 C 
ATOM     13  O   UNL     1       4.361   3.740  16.510  0.00  0.00    +0.000 OA
ATOM     14  C   UNL     1       3.319   3.508  17.328  0.00  0.00    +0.000 A 
ATOM     15  O   UNL     1       2.813   2.421  17.546  0.00  0.00    +0.000 OA
ENDROOT
BRANCH   1  16
ATOM     16  C   UNL     1       1.927   4.849  19.012  0.00  0.00    +0.000 C 
BRANCH  16  17
ATOM     17  C   UNL     1       2.553   4.970  20.406  0.00  0.00    +0.000 C 
BRANCH  17  19
ATOM     18  C   UNL     1       1.136   2.911  20.692  0.00  0.00    +0.000 C 
ATOM     19  C   UNL     1       2.166   3.821  21.341  0.00  0.00    +0.000 C 
ENDBRANCH  17  19
ENDBRANCH  16  17
ENDBRANCH   1  16
TORSDOF 3
ENDMDL
MODEL 4
REMARK VINA RESULT:      -6.8      5.204      6.108
REMARK  Name = 
REMARK  5 active torsions:
REMARK  status: ('A' for Active; 'I' for Inactive)
REMARK    1  A    between atoms: C_1  and  C_2
REMARK    2  A    between atoms: C_2  and  C_3
REMARK    3  A    between atoms: C_3  and  C_4
REMARK    4  A    between atoms: C_4  and  C_5
REMARK    5  A    between atoms: C_6  and  C_7
REMARK                            x       y       z     vdW  Elec       q    Type
REMARK                         _______ _______ _______ _____ _____    ______ ____
ROOT
ATOM      1  C   UNL     1       0.853   9.605  20.063  0.00  0.00    +0.000 A 
ATOM      2  C   UNL     1       1.544   8.906  19.154  0.00  0.00    +0.000 A 
ATOM      3  C   UNL     1       1.984   9.385  17.810  0.00  0.00    +0.000 C 
ATOM      4  N   UNL     1       1.858   7.657  19.624  0.00  0.00    +0.000 N 
ATOM      5  C   UNL     1       2.698   6.680  19.133  0.00  0.00    +0.000 C 
ATOM      6  O   UNL     1       3.371   6.862  18.114  0.00  0.00    +0.000 OA
ATOM      7  N   UNL     1       2.762   5.455  19.817  0.00  0.00    +0.000 N 
ATOM      8  C   UNL     1       3.803   4.489  19.447  0.00  0.00    +0.000 C 
ATOM      9  C   UNL     1       3.199   3.132  19.083  0.00  0.00    +0.000 C 
ATOM     10  C   UNL     1       2.271   2.615  20.180  0.00  0.00    +0.000 C 
ATOM     11  C   UNL     1       1.225   3.655  20.530  0.00  0.00    +0.000 C 
ATOM     12  C   UNL     1       1.867   4.989  20.880  0.00  0.00    +0.000 C 
ATOM     13  O   UNL     1       1.413   7.601  20.952  0.00  0.00    +0.000 OA
ATOM     14  C   UNL     1       0.723   8.722  21.227  0.00  0.00    +0.000 A 
ATOM     15  O   UNL     1       0.135   8.959  22.268  0.00  0.00    +0.000 OA
ENDROOT
BRANCH   1  16
ATOM     16  C   UNL     1       0.337  11.000  20.118  0.00  0.00    +0.000 C 
BRANCH  16  17
ATOM     17  C   UNL     1      -1.128  11.106  19.682  0.00  0.00    +0.000 C 
BRANCH  17  19
ATOM     18  C   UNL     1      -1.759  10.100  17.464  0.00  0.00    +0.000 C 
ATOM     19  C   UNL     1      -1.293  11.356  18.181  0.00  0.00    +0.000 C 
ENDBRANCH  17  19
ENDBRANCH  16  17
ENDBRANCH   1  16
TORSDOF 3
ENDMDL
MODEL 5
REMARK VINA RESULT:      -6.7      3.750      5.319
REMARK  Name = 
REMARK  5 active torsions:
REMARK  status: ('A' for Active; 'I' for Inactive)
REMARK    1  A    between atoms: C_1  and  C_2
REMARK    2  A    between atoms: C_2  and  C_3
REMARK    3  A    between atoms: C_3  and  C_4
REMARK    4  A    between atoms: C_4  and  C_5
REMARK    5  A    between atoms: C_6  and  C_7
REMARK                            x       y       z     vdW  Elec       q    Type
REMARK                         _______ _______ _______ _____ _____    ______ ____
ROOT
ATOM      1  C   UNL     1       4.743   5.031  16.716  0.00  0.00    +0.000 A 
ATOM      2  C   UNL     1       3.846   4.894  17.701  0.00  0.00    +0.000 A 
ATOM      3  C   UNL     1       3.416   3.616  18.342  0.00  0.00    +0.000 C 
ATOM      4  N   UNL     1       3.369   6.113  18.108  0.00  0.00    +0.000 N 
ATOM      5  C   UNL     1       2.594   6.477  19.189  0.00  0.00    +0.000 C 
ATOM      6  O   UNL     1       2.235   5.649  20.032  0.00  0.00    +0.000 OA
ATOM      7  N   UNL     1       2.206   7.821  19.305  0.00  0.00    +0.000 N 
ATOM      8  C   UNL     1       1.574   8.273  20.549  0.00  0.00    +0.000 C 
ATOM      9  C   UNL     1       0.218   8.927  20.281  0.00  0.00    +0.000 C 
ATOM     10  C   UNL     1       0.323  10.033  19.232  0.00  0.00    +0.000 C 
ATOM     11  C   UNL     1       0.992   9.514  17.973  0.00  0.00    +0.000 C 
ATOM     12  C   UNL     1       2.333   8.868  18.287  0.00  0.00    +0.000 C 
ATOM     13  O   UNL     1       4.082   7.086  17.394  0.00  0.00    +0.000 OA
ATOM     14  C   UNL     1       4.857   6.474  16.481  0.00  0.00    +0.000 A 
ATOM     15  O   UNL     1       5.546   7.030  15.644  0.00  0.00    +0.000 OA
ENDROOT
BRANCH   1  16
ATOM     16  C   UNL     1       5.612   4.078  15.974  0.00  0.00    +0.000 C 
BRANCH  16  17
ATOM     17  C   UNL     1       5.245   3.977  14.489  0.00  0.00    +0.000 C 
BRANCH  17  19
ATOM     18  C   UNL     1       6.142   3.363  12.220  0.00  0.00    +0.000 C 
ATOM     19  C   UNL     1       6.466   3.991  13.565  0.00  0.00    +0.000 C 
ENDBRANCH  17  19
ENDBRANCH  16  17
ENDBRANCH   1  16
TORSDOF 3
ENDMDL
MODEL 6
REMARK VINA RESULT:      -6.7      3.749      4.878
REMARK  Name = 
REMARK  5 active torsions:
REMARK  status: ('A' for Active; 'I' for Inactive)
REMARK    1  A    between atoms: C_1  and  C_2
REMARK    2  A    between atoms: C_2  and  C_3
REMARK    3  A    between atoms: C_3  and  C_4
REMARK    4  A    between atoms: C_4  and  C_5
REMARK    5  A    between atoms: C_6  and  C_7
REMARK                            x       y       z     vdW  Elec       q    Type
REMARK                         _______ _______ _______ _____ _____    ______ ____
ROOT
ATOM      1  C   UNL     1       4.549   5.255  16.965  0.00  0.00    +0.000 A 
ATOM      2  C   UNL     1       3.713   5.196  18.009  0.00  0.00    +0.000 A 
ATOM      3  C   UNL     1       3.396   3.990  18.830  0.00  0.00    +0.000 C 
ATOM      4  N   UNL     1       3.183   6.430  18.287  0.00  0.00    +0.000 N 
ATOM      5  C   UNL     1       2.441   6.886  19.357  0.00  0.00    +0.000 C 
ATOM      6  O   UNL     1       2.178   6.156  20.316  0.00  0.00    +0.000 OA
ATOM      7  N   UNL     1       1.977   8.211  19.324  0.00  0.00    +0.000 N 
ATOM      8  C   UNL     1       1.381   8.784  20.537  0.00  0.00    +0.000 C 
ATOM      9  C   UNL     1      -0.024   9.322  20.267  0.00  0.00    +0.000 C 
ATOM     10  C   UNL     1      -0.041  10.287  19.083  0.00  0.00    +0.000 C 
ATOM     11  C   UNL     1       0.595   9.649  17.863  0.00  0.00    +0.000 C 
ATOM     12  C   UNL     1       1.987   9.124  18.177  0.00  0.00    +0.000 C 
ATOM     13  O   UNL     1       3.797   7.341  17.416  0.00  0.00    +0.000 OA
ATOM     14  C   UNL     1       4.561   6.659  16.544  0.00  0.00    +0.000 A 
ATOM     15  O   UNL     1       5.172   7.140  15.605  0.00  0.00    +0.000 OA
ENDROOT
BRANCH   1  16
ATOM     16  C   UNL     1       5.437   4.263  16.300  0.00  0.00    +0.000 C 
BRANCH  16  17
ATOM     17  C   UNL     1       6.925   4.562  16.518  0.00  0.00    +0.000 C 
BRANCH  17  19
ATOM     18  C   UNL     1       7.728   6.096  18.344  0.00  0.00    +0.000 C 
ATOM     19  C   UNL     1       7.304   4.679  17.997  0.00  0.00    +0.000 C 
ENDBRANCH  17  19
ENDBRANCH  16  17
ENDBRANCH   1  16
TORSDOF 3
ENDMDL
MODEL 7
REMARK VINA RESULT:      -6.5      4.453      6.505
REMARK  Name = 
REMARK  5 active torsions:
REMARK  status: ('A' for Active; 'I' for Inactive)
REMARK    1  A    between atoms: C_1  and  C_2
REMARK    2  A    between atoms: C_2  and  C_3
REMARK    3  A    between atoms: C_3  and  C_4
REMARK    4  A    between atoms: C_4  and  C_5
REMARK    5  A    between atoms: C_6  and  C_7
REMARK                            x       y       z     vdW  Elec       q    Type
REMARK                         _______ _______ _______ _____ _____    ______ ____
ROOT
ATOM      1  C   UNL     1       3.558   5.341  18.697  0.00  0.00    +0.000 A 
ATOM      2  C   UNL     1       2.729   5.725  19.676  0.00  0.00    +0.000 A 
ATOM      3  C   UNL     1       2.325   4.921  20.866  0.00  0.00    +0.000 C 
ATOM      4  N   UNL     1       2.302   7.013  19.484  0.00  0.00    +0.000 N 
ATOM      5  C   UNL     1       1.609   7.878  20.305  0.00  0.00    +0.000 C 
ATOM      6  O   UNL     1       1.296   7.562  21.457  0.00  0.00    +0.000 OA
ATOM      7  N   UNL     1       1.251   9.136  19.792  0.00  0.00    +0.000 N 
ATOM      8  C   UNL     1       0.714  10.149  20.708  0.00  0.00    +0.000 C 
ATOM      9  C   UNL     1      -0.647  10.662  20.236  0.00  0.00    +0.000 C 
ATOM     10  C   UNL     1      -0.598  11.138  18.785  0.00  0.00    +0.000 C 
ATOM     11  C   UNL     1      -0.025  10.059  17.887  0.00  0.00    +0.000 C 
ATOM     12  C   UNL     1       1.323   9.574  18.395  0.00  0.00    +0.000 C 
ATOM     13  O   UNL     1       2.978   7.502  18.358  0.00  0.00    +0.000 OA
ATOM     14  C   UNL     1       3.678   6.497  17.802  0.00  0.00    +0.000 A 
ATOM     15  O   UNL     1       4.316   6.561  16.766  0.00  0.00    +0.000 OA
ENDROOT
BRANCH   1  16
ATOM     16  C   UNL     1       4.358   4.111  18.447  0.00  0.00    +0.000 C 
BRANCH  16  17
ATOM     17  C   UNL     1       3.608   3.080  17.596  0.00  0.00    +0.000 C 
BRANCH  17  19
ATOM     18  C   UNL     1       1.407   2.254  18.493  0.00  0.00    +0.000 C 
ATOM     19  C   UNL     1       2.905   2.007  18.432  0.00  0.00    +0.000 C 
ENDBRANCH  17  19
ENDBRANCH  16  17
ENDBRANCH   1  16
TORSDOF 3
ENDMDL
MODEL 8
REMARK VINA RESULT:      -6.5      4.513      6.283
REMARK  Name = 
REMARK  5 active torsions:
REMARK  status: ('A' for Active; 'I' for Inactive)
REMARK    1  A    between atoms: C_1  and  C_2
REMARK    2  A    between atoms: C_2  and  C_3
REMARK    3  A    between atoms: C_3  and  C_4
REMARK    4  A    between atoms: C_4  and  C_5
REMARK    5  A    between atoms: C_6  and  C_7
REMARK                            x       y       z     vdW  Elec       q    Type
REMARK                         _______ _______ _______ _____ _____    ______ ____
ROOT
ATOM      1  C   UNL     1       3.554   5.344  19.141  0.00  0.00    +0.000 A 
ATOM      2  C   UNL     1       3.488   6.479  18.433  0.00  0.00    +0.000 A 
ATOM      3  C   UNL     1       4.279   6.814  17.213  0.00  0.00    +0.000 C 
ATOM      4  N   UNL     1       2.541   7.327  18.947  0.00  0.00    +0.000 N 
ATOM      5  C   UNL     1       1.999   8.497  18.456  0.00  0.00    +0.000 C 
ATOM      6  O   UNL     1       2.318   8.939  17.349  0.00  0.00    +0.000 OA
ATOM      7  N   UNL     1       1.077   9.188  19.259  0.00  0.00    +0.000 N 
ATOM      8  C   UNL     1       0.327  10.306  18.675  0.00  0.00    +0.000 C 
ATOM      9  C   UNL     1       0.507  11.585  19.493  0.00  0.00    +0.000 C 
ATOM     10  C   UNL     1       0.188  11.362  20.969  0.00  0.00    +0.000 C 
ATOM     11  C   UNL     1       0.981  10.190  21.517  0.00  0.00    +0.000 C 
ATOM     12  C   UNL     1       0.777   8.942  20.673  0.00  0.00    +0.000 C 
ATOM     13  O   UNL     1       1.906   6.641  19.992  0.00  0.00    +0.000 OA
ATOM     14  C   UNL     1       2.547   5.476  20.199  0.00  0.00    +0.000 A 
ATOM     15  O   UNL     1       2.300   4.676  21.084  0.00  0.00    +0.000 OA
ENDROOT
BRANCH   1  16
ATOM     16  C   UNL     1       4.323   4.079  18.991  0.00  0.00    +0.000 C 
BRANCH  16  17
ATOM     17  C   UNL     1       3.796   3.197  17.853  0.00  0.00    +0.000 C 
BRANCH  17  19
ATOM     18  C   UNL     1       1.559   2.273  18.538  0.00  0.00    +0.000 C 
ATOM     19  C   UNL     1       3.035   1.966  18.350  0.00  0.00    +0.000 C 
ENDBRANCH  17  19
ENDBRANCH  16  17
ENDBRANCH   1  16
TORSDOF 3
ENDMDL
MODEL 9
REMARK VINA RESULT:      -6.5      1.575      2.320
REMARK  Name = 
REMARK  5 active torsions:
REMARK  status: ('A' for Active; 'I' for Inactive)
REMARK    1  A    between atoms: C_1  and  C_2
REMARK    2  A    between atoms: C_2  and  C_3
REMARK    3  A    between atoms: C_3  and  C_4
REMARK    4  A    between atoms: C_4  and  C_5
REMARK    5  A    between atoms: C_6  and  C_7
REMARK                            x       y       z     vdW  Elec       q    Type
REMARK                         _______ _______ _______ _____ _____    ______ ____
ROOT
ATOM      1  C   UNL     1       6.347   6.665  17.521  0.00  0.00    +0.000 A 
ATOM      2  C   UNL     1       6.343   5.432  18.042  0.00  0.00    +0.000 A 
ATOM      3  C   UNL     1       7.531   4.557  18.266  0.00  0.00    +0.000 C 
ATOM      4  N   UNL     1       5.077   5.053  18.406  0.00  0.00    +0.000 N 
ATOM      5  C   UNL     1       4.618   3.976  19.136  0.00  0.00    +0.000 C 
ATOM      6  O   UNL     1       5.397   3.161  19.638  0.00  0.00    +0.000 OA
ATOM      7  N   UNL     1       3.231   3.820  19.288  0.00  0.00    +0.000 N 
ATOM      8  C   UNL     1       2.730   2.820  20.236  0.00  0.00    +0.000 C 
ATOM      9  C   UNL     1       1.775   1.837  19.557  0.00  0.00    +0.000 C 
ATOM     10  C   UNL     1       0.657   2.561  18.810  0.00  0.00    +0.000 C 
ATOM     11  C   UNL     1       1.231   3.589  17.854  0.00  0.00    +0.000 C 
ATOM     12  C   UNL     1       2.177   4.541  18.569  0.00  0.00    +0.000 C 
ATOM     13  O   UNL     1       4.243   6.158  18.181  0.00  0.00    +0.000 OA
ATOM     14  C   UNL     1       4.954   7.120  17.566  0.00  0.00    +0.000 A 
ATOM     15  O   UNL     1       4.513   8.181  17.159  0.00  0.00    +0.000 OA
ENDROOT
BRANCH   1  16
ATOM     16  C   UNL     1       7.421   7.580  17.047  0.00  0.00    +0.000 C 
BRANCH  16  17
ATOM     17  C   UNL     1       8.238   8.179  18.198  0.00  0.00    +0.000 C 
BRANCH  17  19
ATOM     18  C   UNL     1       9.305  10.226  19.198  0.00  0.00    +0.000 C 
ATOM     19  C   UNL     1       8.429   9.693  18.076  0.00  0.00    +0.000 C 
ENDBRANCH  17  19
ENDBRANCH  16  17
ENDBRANCH   1  16
TORSDOF 3
ENDMDL
