MODEL 1
REMARK VINA RESULT:      -8.7      0.000      0.000
REMARK  Name = 
REMARK  7 active torsions:
REMARK  status: ('A' for Active; 'I' for Inactive)
REMARK    1  A    between atoms: C_1  and  C_2
REMARK    2  A    between atoms: C_4  and  C_5
REMARK    3  A    between atoms: C_14  and  C_16
REMARK    4  A    between atoms: C_16  and  C_17
REMARK    5  A    between atoms: C_17  and  N_18
REMARK    6  A    between atoms: C_17  and  C_19
REMARK    7  A    between atoms: C_19  and  C_20
REMARK                            x       y       z     vdW  Elec       q    Type
REMARK                         _______ _______ _______ _____ _____    ______ ____
ROOT
ATOM      1  C   UNL     1       4.900   3.958  19.039  0.00  0.00    +0.000 A 
ATOM      2  N   UNL     1       5.174   2.734  19.452  0.00  0.00    +0.000 NA
ATOM      3  N   UNL     1       4.220   2.357  20.373  0.00  0.00    +0.000 NA
ATOM      4  C   UNL     1       3.345   3.332  20.444  0.00  0.00    +0.000 A 
ATOM      5  N   UNL     1       3.687   4.346  19.582  0.00  0.00    +0.000 N 
ATOM      6  C   UNL     1       2.685   5.264  19.035  0.00  0.00    +0.000 C 
ATOM      7  C   UNL     1       3.219   6.615  18.575  0.00  0.00    +0.000 C 
ATOM      8  C   UNL     1       2.122   7.649  18.449  0.00  0.00    +0.000 C 
ATOM      9  N   UNL     1       1.566   7.975  19.757  0.00  0.00    +0.000 N 
ATOM     10  C   UNL     1       1.098   9.290  19.885  0.00  0.00    +0.000 C 
ATOM     11  O   UNL     1       0.933   9.998  18.886  0.00  0.00    +0.000 OA
ATOM     12  C   UNL     1       1.445   6.826  20.710  0.00  0.00    +0.000 C 
ATOM     13  C   UNL     1       1.414   5.470  19.922  0.00  0.00    +0.000 C 
ATOM     14  C   UNL     1       0.998   4.186  20.666  0.00  0.00    +0.000 C 
ATOM     15  C   UNL     1       2.113   3.347  21.274  0.00  0.00    +0.000 C 
ENDROOT
BRANCH   1  19
ATOM     16  C   UNL     1       7.981   7.619  17.672  0.00  0.00    +0.000 C 
ATOM     17  C   UNL     1       7.203   6.354  17.569  0.00  0.00    +0.000 A 
ATOM     18  N   UNL     1       6.445   5.884  18.533  0.00  0.00    +0.000 NA
ATOM     19  C   UNL     1       5.824   4.717  18.138  0.00  0.00    +0.000 A 
ATOM     20  C   UNL     1       6.167   4.283  16.874  0.00  0.00    +0.000 A 
ATOM     21  S   UNL     1       7.229   5.414  16.135  0.00  0.00    +0.000 S 
ENDBRANCH   1  19
BRANCH  10  22
ATOM     22  C   UNL     1       0.903   9.894  21.269  0.00  0.00    +0.000 C 
BRANCH  22  23
ATOM     23  C   UNL     1      -0.579  10.321  21.572  0.00  0.00    +0.000 C 
BRANCH  23  24
ATOM     24  N   UNL     1      -1.017  11.221  20.481  0.00  0.00    +0.000 NA
ATOM     25  H   UNL     1      -1.806  10.810  19.984  0.00  0.00    +0.000 HD
ATOM     26  H   UNL     1      -0.277  11.319  19.788  0.00  0.00    +0.000 HD
ENDBRANCH  23  24
BRANCH  23  27
ATOM     27  C   UNL     1      -0.748  11.019  22.957  0.00  0.00    +0.000 C 
BRANCH  27  28
ATOM     28  C   UNL     1      -1.729  12.182  23.113  0.00  0.00    +0.000 A 
ATOM     29  C   UNL     1      -3.075  12.037  23.480  0.00  0.00    +0.000 A 
ATOM     30  C   UNL     1      -3.886  13.165  23.663  0.00  0.00    +0.000 A 
ATOM     31  F   UNL     1      -5.173  13.004  24.004  0.00  0.00    +0.000 F 
ATOM     32  C   UNL     1      -3.374  14.449  23.499  0.00  0.00    +0.000 A 
ATOM     33  F   UNL     1      -4.154  15.520  23.680  0.00  0.00    +0.000 F 
ATOM     34  C   UNL     1      -2.043  14.624  23.157  0.00  0.00    +0.000 A 
ATOM     35  C   UNL     1      -1.238  13.498  22.973  0.00  0.00    +0.000 A 
ATOM     36  F   UNL     1       0.051  13.693  22.658  0.00  0.00    +0.000 F 
ENDBRANCH  27  28
ENDBRANCH  23  27
ENDBRANCH  22  23
ENDBRANCH  10  22
TORSDOF 6
ENDMDL
MODEL 2
REMARK VINA RESULT:      -8.6      3.064      3.808
REMARK  Name = 
REMARK  7 active torsions:
REMARK  status: ('A' for Active; 'I' for Inactive)
REMARK    1  A    between atoms: C_1  and  C_2
REMARK    2  A    between atoms: C_4  and  C_5
REMARK    3  A    between atoms: C_14  and  C_16
REMARK    4  A    between atoms: C_16  and  C_17
REMARK    5  A    between atoms: C_17  and  N_18
REMARK    6  A    between atoms: C_17  and  C_19
REMARK    7  A    between atoms: C_19  and  C_20
REMARK                            x       y       z     vdW  Elec       q    Type
REMARK                         _______ _______ _______ _____ _____    ______ ____
ROOT
ATOM      1  C   UNL     1       4.681   3.567  18.863  0.00  0.00    +0.000 A 
ATOM      2  N   UNL     1       4.847   2.431  19.515  0.00  0.00    +0.000 NA
ATOM      3  N   UNL     1       3.964   2.398  20.573  0.00  0.00    +0.000 NA
ATOM      4  C   UNL     1       3.228   3.483  20.497  0.00  0.00    +0.000 A 
ATOM      5  N   UNL     1       3.594   4.233  19.405  0.00  0.00    +0.000 N 
ATOM      6  C   UNL     1       2.658   5.150  18.751  0.00  0.00    +0.000 C 
ATOM      7  C   UNL     1       3.299   6.283  17.959  0.00  0.00    +0.000 C 
ATOM      8  C   UNL     1       2.331   7.416  17.697  0.00  0.00    +0.000 C 
ATOM      9  N   UNL     1       1.970   8.085  18.941  0.00  0.00    +0.000 N 
ATOM     10  C   UNL     1       1.685   9.452  18.810  0.00  0.00    +0.000 C 
ATOM     11  O   UNL     1       1.497   9.951  17.695  0.00  0.00    +0.000 OA
ATOM     12  C   UNL     1       1.815   7.192  20.132  0.00  0.00    +0.000 C 
ATOM     13  C   UNL     1       1.530   5.720  19.672  0.00  0.00    +0.000 C 
ATOM     14  C   UNL     1       1.045   4.695  20.715  0.00  0.00    +0.000 C 
ATOM     15  C   UNL     1       2.109   3.850  21.401  0.00  0.00    +0.000 C 
ENDROOT
BRANCH   1  19
ATOM     16  C   UNL     1       6.247   3.973  14.157  0.00  0.00    +0.000 C 
ATOM     17  C   UNL     1       6.243   4.153  15.634  0.00  0.00    +0.000 A 
ATOM     18  N   UNL     1       5.303   3.686  16.423  0.00  0.00    +0.000 NA
ATOM     19  C   UNL     1       5.584   3.979  17.742  0.00  0.00    +0.000 A 
ATOM     20  C   UNL     1       6.729   4.725  17.933  0.00  0.00    +0.000 A 
ATOM     21  S   UNL     1       7.513   4.991  16.428  0.00  0.00    +0.000 S 
ENDBRANCH   1  19
BRANCH  10  22
ATOM     22  C   UNL     1       1.723  10.354  20.036  0.00  0.00    +0.000 C 
BRANCH  22  23
ATOM     23  C   UNL     1       0.534  11.381  20.104  0.00  0.00    +0.000 C 
BRANCH  23  24
ATOM     24  N   UNL     1       0.737  12.222  21.305  0.00  0.00    +0.000 NA
ATOM     25  H   UNL     1      -0.149  12.360  21.790  0.00  0.00    +0.000 HD
ATOM     26  H   UNL     1       1.049  13.153  21.034  0.00  0.00    +0.000 HD
ENDBRANCH  23  24
BRANCH  23  27
ATOM     27  C   UNL     1      -0.868  10.697  20.146  0.00  0.00    +0.000 C 
BRANCH  27  28
ATOM     28  C   UNL     1      -1.815  10.821  18.952  0.00  0.00    +0.000 A 
ATOM     29  C   UNL     1      -1.732  10.036  17.792  0.00  0.00    +0.000 A 
ATOM     30  C   UNL     1      -2.685  10.174  16.772  0.00  0.00    +0.000 A 
ATOM     31  F   UNL     1      -2.582   9.420  15.668  0.00  0.00    +0.000 F 
ATOM     32  C   UNL     1      -3.736  11.077  16.893  0.00  0.00    +0.000 A 
ATOM     33  F   UNL     1      -4.643  11.199  15.917  0.00  0.00    +0.000 F 
ATOM     34  C   UNL     1      -3.856  11.852  18.035  0.00  0.00    +0.000 A 
ATOM     35  C   UNL     1      -2.904  11.714  19.048  0.00  0.00    +0.000 A 
ATOM     36  F   UNL     1      -3.050  12.463  20.151  0.00  0.00    +0.000 F 
ENDBRANCH  27  28
ENDBRANCH  23  27
ENDBRANCH  22  23
ENDBRANCH  10  22
TORSDOF 6
ENDMDL
MODEL 3
REMARK VINA RESULT:      -8.5      0.734      1.012
REMARK  Name = 
REMARK  7 active torsions:
REMARK  status: ('A' for Active; 'I' for Inactive)
REMARK    1  A    between atoms: C_1  and  C_2
REMARK    2  A    between atoms: C_4  and  C_5
REMARK    3  A    between atoms: C_14  and  C_16
REMARK    4  A    between atoms: C_16  and  C_17
REMARK    5  A    between atoms: C_17  and  N_18
REMARK    6  A    between atoms: C_17  and  C_19
REMARK    7  A    between atoms: C_19  and  C_20
REMARK                            x       y       z     vdW  Elec       q    Type
REMARK                         _______ _______ _______ _____ _____    ______ ____
ROOT
ATOM      1  C   UNL     1       4.867   3.971  18.947  0.00  0.00    +0.000 A 
ATOM      2  N   UNL     1       5.138   2.762  19.402  0.00  0.00    +0.000 NA
ATOM      3  N   UNL     1       4.204   2.434  20.362  0.00  0.00    +0.000 NA
ATOM      4  C   UNL     1       3.342   3.422  20.416  0.00  0.00    +0.000 A 
ATOM      5  N   UNL     1       3.673   4.397  19.506  0.00  0.00    +0.000 N 
ATOM      6  C   UNL     1       2.668   5.304  18.947  0.00  0.00    +0.000 C 
ATOM      7  C   UNL     1       3.205   6.629  18.419  0.00  0.00    +0.000 C 
ATOM      8  C   UNL     1       2.117   7.671  18.280  0.00  0.00    +0.000 C 
ATOM      9  N   UNL     1       1.599   8.055  19.588  0.00  0.00    +0.000 N 
ATOM     10  C   UNL     1       1.150   9.380  19.674  0.00  0.00    +0.000 C 
ATOM     11  O   UNL     1       0.967  10.050  18.652  0.00  0.00    +0.000 OA
ATOM     12  C   UNL     1       1.489   6.947  20.589  0.00  0.00    +0.000 C 
ATOM     13  C   UNL     1       1.423   5.562  19.858  0.00  0.00    +0.000 C 
ATOM     14  C   UNL     1       1.012   4.313  20.663  0.00  0.00    +0.000 C 
ATOM     15  C   UNL     1       2.132   3.486  21.276  0.00  0.00    +0.000 C 
ENDROOT
BRANCH   1  19
ATOM     16  C   UNL     1       7.074   4.956  14.597  0.00  0.00    +0.000 C 
ATOM     17  C   UNL     1       6.727   5.102  16.037  0.00  0.00    +0.000 A 
ATOM     18  N   UNL     1       5.867   4.331  16.662  0.00  0.00    +0.000 NA
ATOM     19  C   UNL     1       5.775   4.682  17.993  0.00  0.00    +0.000 A 
ATOM     20  C   UNL     1       6.543   5.770  18.353  0.00  0.00    +0.000 A 
ATOM     21  S   UNL     1       7.465   6.309  17.007  0.00  0.00    +0.000 S 
ENDBRANCH   1  19
BRANCH  10  22
ATOM     22  C   UNL     1       0.998  10.042  21.037  0.00  0.00    +0.000 C 
BRANCH  22  23
ATOM     23  C   UNL     1      -0.475  10.478  21.370  0.00  0.00    +0.000 C 
BRANCH  23  24
ATOM     24  N   UNL     1      -0.890  11.468  20.352  0.00  0.00    +0.000 NA
ATOM     25  H   UNL     1      -0.611  11.155  19.423  0.00  0.00    +0.000 HD
ATOM     26  H   UNL     1      -0.402  12.351  20.501  0.00  0.00    +0.000 HD
ENDBRANCH  23  24
BRANCH  23  27
ATOM     27  C   UNL     1      -0.632  11.071  22.805  0.00  0.00    +0.000 C 
BRANCH  27  28
ATOM     28  C   UNL     1      -1.655  12.177  23.067  0.00  0.00    +0.000 A 
ATOM     29  C   UNL     1      -2.984  11.950  23.456  0.00  0.00    +0.000 A 
ATOM     30  C   UNL     1      -3.835  13.027  23.739  0.00  0.00    +0.000 A 
ATOM     31  F   UNL     1      -5.104  12.788  24.099  0.00  0.00    +0.000 F 
ATOM     32  C   UNL     1      -3.379  14.339  23.654  0.00  0.00    +0.000 A 
ATOM     33  F   UNL     1      -4.197  15.362  23.931  0.00  0.00    +0.000 F 
ATOM     34  C   UNL     1      -2.067  14.595  23.292  0.00  0.00    +0.000 A 
ATOM     35  C   UNL     1      -1.222  13.519  23.009  0.00  0.00    +0.000 A 
ATOM     36  F   UNL     1       0.049  13.791  22.677  0.00  0.00    +0.000 F 
ENDBRANCH  27  28
ENDBRANCH  23  27
ENDBRANCH  22  23
ENDBRANCH  10  22
TORSDOF 6
ENDMDL
MODEL 4
REMARK VINA RESULT:      -8.4      1.574      1.799
REMARK  Name = 
REMARK  7 active torsions:
REMARK  status: ('A' for Active; 'I' for Inactive)
REMARK    1  A    between atoms: C_1  and  C_2
REMARK    2  A    between atoms: C_4  and  C_5
REMARK    3  A    between atoms: C_14  and  C_16
REMARK    4  A    between atoms: C_16  and  C_17
REMARK    5  A    between atoms: C_17  and  N_18
REMARK    6  A    between atoms: C_17  and  C_19
REMARK    7  A    between atoms: C_19  and  C_20
REMARK                            x       y       z     vdW  Elec       q    Type
REMARK                         _______ _______ _______ _____ _____    ______ ____
ROOT
ATOM      1  C   UNL     1       4.889   4.029  19.045  0.00  0.00    +0.000 A 
ATOM      2  N   UNL     1       5.158   2.812  19.481  0.00  0.00    +0.000 NA
ATOM      3  N   UNL     1       4.200   2.457  20.408  0.00  0.00    +0.000 NA
ATOM      4  C   UNL     1       3.329   3.437  20.459  0.00  0.00    +0.000 A 
ATOM      5  N   UNL     1       3.677   4.433  19.579  0.00  0.00    +0.000 N 
ATOM      6  C   UNL     1       2.681   5.345  19.012  0.00  0.00    +0.000 C 
ATOM      7  C   UNL     1       3.221   6.685  18.528  0.00  0.00    +0.000 C 
ATOM      8  C   UNL     1       2.130   7.721  18.381  0.00  0.00    +0.000 C 
ATOM      9  N   UNL     1       1.572   8.074  19.681  0.00  0.00    +0.000 N 
ATOM     10  C   UNL     1       1.110   9.393  19.783  0.00  0.00    +0.000 C 
ATOM     11  O   UNL     1       0.950  10.083  18.771  0.00  0.00    +0.000 OA
ATOM     12  C   UNL     1       1.444   6.944  20.655  0.00  0.00    +0.000 C 
ATOM     13  C   UNL     1       1.409   5.574  19.893  0.00  0.00    +0.000 C 
ATOM     14  C   UNL     1       0.985   4.305  20.659  0.00  0.00    +0.000 C 
ATOM     15  C   UNL     1       2.095   3.473  21.285  0.00  0.00    +0.000 C 
ENDROOT
BRANCH   1  19
ATOM     16  C   UNL     1       7.966   7.666  17.605  0.00  0.00    +0.000 C 
ATOM     17  C   UNL     1       7.195   6.395  17.531  0.00  0.00    +0.000 A 
ATOM     18  N   UNL     1       6.430   5.948  18.499  0.00  0.00    +0.000 NA
ATOM     19  C   UNL     1       5.818   4.767  18.132  0.00  0.00    +0.000 A 
ATOM     20  C   UNL     1       6.177   4.299  16.884  0.00  0.00    +0.000 A 
ATOM     21  S   UNL     1       7.241   5.414  16.124  0.00  0.00    +0.000 S 
ENDBRANCH   1  19
BRANCH  10  22
ATOM     22  C   UNL     1       0.915  10.024  21.155  0.00  0.00    +0.000 C 
BRANCH  22  23
ATOM     23  C   UNL     1       0.349  11.490  21.105  0.00  0.00    +0.000 C 
BRANCH  23  24
ATOM     24  N   UNL     1       1.495  12.417  21.233  0.00  0.00    +0.000 NA
ATOM     25  H   UNL     1       2.314  11.917  21.577  0.00  0.00    +0.000 HD
ATOM     26  H   UNL     1       1.294  13.129  21.934  0.00  0.00    +0.000 HD
ENDBRANCH  23  24
BRANCH  23  27
ATOM     27  C   UNL     1      -0.713  11.777  22.212  0.00  0.00    +0.000 C 
BRANCH  27  28
ATOM     28  C   UNL     1      -2.126  12.214  21.820  0.00  0.00    +0.000 A 
ATOM     29  C   UNL     1      -2.615  12.222  20.505  0.00  0.00    +0.000 A 
ATOM     30  C   UNL     1      -3.946  12.577  20.245  0.00  0.00    +0.000 A 
ATOM     31  F   UNL     1      -4.390  12.587  18.980  0.00  0.00    +0.000 F 
ATOM     32  C   UNL     1      -4.812  12.913  21.281  0.00  0.00    +0.000 A 
ATOM     33  F   UNL     1      -6.082  13.245  21.024  0.00  0.00    +0.000 F 
ATOM     34  C   UNL     1      -4.364  12.894  22.592  0.00  0.00    +0.000 A 
ATOM     35  C   UNL     1      -3.036  12.543  22.848  0.00  0.00    +0.000 A 
ATOM     36  F   UNL     1      -2.630  12.516  24.125  0.00  0.00    +0.000 F 
ENDBRANCH  27  28
ENDBRANCH  23  27
ENDBRANCH  22  23
ENDBRANCH  10  22
TORSDOF 6
ENDMDL
MODEL 5
REMARK VINA RESULT:      -8.4      1.192      1.231
REMARK  Name = 
REMARK  7 active torsions:
REMARK  status: ('A' for Active; 'I' for Inactive)
REMARK    1  A    between atoms: C_1  and  C_2
REMARK    2  A    between atoms: C_4  and  C_5
REMARK    3  A    between atoms: C_14  and  C_16
REMARK    4  A    between atoms: C_16  and  C_17
REMARK    5  A    between atoms: C_17  and  N_18
REMARK    6  A    between atoms: C_17  and  C_19
REMARK    7  A    between atoms: C_19  and  C_20
REMARK                            x       y       z     vdW  Elec       q    Type
REMARK                         _______ _______ _______ _____ _____    ______ ____
ROOT
ATOM      1  C   UNL     1       4.795   3.751  18.814  0.00  0.00    +0.000 A 
ATOM      2  N   UNL     1       5.055   2.480  19.062  0.00  0.00    +0.000 NA
ATOM      3  N   UNL     1       4.174   2.031  20.023  0.00  0.00    +0.000 NA
ATOM      4  C   UNL     1       3.350   3.019  20.284  0.00  0.00    +0.000 A 
ATOM      5  N   UNL     1       3.654   4.113  19.510  0.00  0.00    +0.000 N 
ATOM      6  C   UNL     1       2.646   5.117  19.164  0.00  0.00    +0.000 C 
ATOM      7  C   UNL     1       3.191   6.495  18.806  0.00  0.00    +0.000 C 
ATOM      8  C   UNL     1       2.131   7.570  18.900  0.00  0.00    +0.000 C 
ATOM      9  N   UNL     1       1.710   7.762  20.282  0.00  0.00    +0.000 N 
ATOM     10  C   UNL     1       1.311   9.069  20.597  0.00  0.00    +0.000 C 
ATOM     11  O   UNL     1       1.085   9.890  19.703  0.00  0.00    +0.000 OA
ATOM     12  C   UNL     1       1.628   6.518  21.110  0.00  0.00    +0.000 C 
ATOM     13  C   UNL     1       1.470   5.261  20.185  0.00  0.00    +0.000 C 
ATOM     14  C   UNL     1       1.070   3.915  20.819  0.00  0.00    +0.000 C 
ATOM     15  C   UNL     1       2.200   2.978  21.223  0.00  0.00    +0.000 C 
ENDROOT
BRANCH   1  19
ATOM     16  C   UNL     1       7.758   7.537  17.530  0.00  0.00    +0.000 C 
ATOM     17  C   UNL     1       6.992   6.269  17.387  0.00  0.00    +0.000 A 
ATOM     18  N   UNL     1       6.289   5.729  18.354  0.00  0.00    +0.000 NA
ATOM     19  C   UNL     1       5.664   4.578  17.918  0.00  0.00    +0.000 A 
ATOM     20  C   UNL     1       5.952   4.228  16.615  0.00  0.00    +0.000 A 
ATOM     21  S   UNL     1       6.962   5.418  15.897  0.00  0.00    +0.000 S 
ENDBRANCH   1  19
BRANCH  10  22
ATOM     22  C   UNL     1       1.267   9.518  22.052  0.00  0.00    +0.000 C 
BRANCH  22  23
ATOM     23  C   UNL     1      -0.164   9.949  22.540  0.00  0.00    +0.000 C 
BRANCH  23  24
ATOM     24  N   UNL     1      -1.007   8.734  22.584  0.00  0.00    +0.000 NA
ATOM     25  H   UNL     1      -1.164   8.451  23.550  0.00  0.00    +0.000 HD
ATOM     26  H   UNL     1      -0.521   7.953  22.145  0.00  0.00    +0.000 HD
ENDBRANCH  23  24
BRANCH  23  27
ATOM     27  C   UNL     1      -0.820  11.038  21.634  0.00  0.00    +0.000 C 
BRANCH  27  28
ATOM     28  C   UNL     1      -2.018  11.838  22.148  0.00  0.00    +0.000 A 
ATOM     29  C   UNL     1      -2.503  11.778  23.464  0.00  0.00    +0.000 A 
ATOM     30  C   UNL     1      -3.568  12.597  23.865  0.00  0.00    +0.000 A 
ATOM     31  F   UNL     1      -4.022  12.518  25.124  0.00  0.00    +0.000 F 
ATOM     32  C   UNL     1      -4.155  13.493  22.977  0.00  0.00    +0.000 A 
ATOM     33  F   UNL     1      -5.168  14.275  23.370  0.00  0.00    +0.000 F 
ATOM     34  C   UNL     1      -3.684  13.589  21.677  0.00  0.00    +0.000 A 
ATOM     35  C   UNL     1      -2.625  12.770  21.280  0.00  0.00    +0.000 A 
ATOM     36  F   UNL     1      -2.176  12.892  20.022  0.00  0.00    +0.000 F 
ENDBRANCH  27  28
ENDBRANCH  23  27
ENDBRANCH  22  23
ENDBRANCH  10  22
TORSDOF 6
ENDMDL
MODEL 6
REMARK VINA RESULT:      -8.4      1.356      1.569
REMARK  Name = 
REMARK  7 active torsions:
REMARK  status: ('A' for Active; 'I' for Inactive)
REMARK    1  A    between atoms: C_1  and  C_2
REMARK    2  A    between atoms: C_4  and  C_5
REMARK    3  A    between atoms: C_14  and  C_16
REMARK    4  A    between atoms: C_16  and  C_17
REMARK    5  A    between atoms: C_17  and  N_18
REMARK    6  A    between atoms: C_17  and  C_19
REMARK    7  A    between atoms: C_19  and  C_20
REMARK                            x       y       z     vdW  Elec       q    Type
REMARK                         _______ _______ _______ _____ _____    ______ ____
ROOT
ATOM      1  C   UNL     1       4.833   3.693  18.945  0.00  0.00    +0.000 A 
ATOM      2  N   UNL     1       5.071   2.456  19.338  0.00  0.00    +0.000 NA
ATOM      3  N   UNL     1       4.158   2.122  20.316  0.00  0.00    +0.000 NA
ATOM      4  C   UNL     1       3.337   3.138  20.442  0.00  0.00    +0.000 A 
ATOM      5  N   UNL     1       3.676   4.139  19.563  0.00  0.00    +0.000 N 
ATOM      6  C   UNL     1       2.689   5.107  19.079  0.00  0.00    +0.000 C 
ATOM      7  C   UNL     1       3.260   6.433  18.590  0.00  0.00    +0.000 C 
ATOM      8  C   UNL     1       2.210   7.520  18.533  0.00  0.00    +0.000 C 
ATOM      9  N   UNL     1       1.751   7.866  19.873  0.00  0.00    +0.000 N 
ATOM     10  C   UNL     1       1.358   9.202  20.032  0.00  0.00    +0.000 C 
ATOM     11  O   UNL     1       1.167   9.922  19.046  0.00  0.00    +0.000 OA
ATOM     12  C   UNL     1       1.632   6.720  20.829  0.00  0.00    +0.000 C 
ATOM     13  C   UNL     1       1.486   5.371  20.042  0.00  0.00    +0.000 C 
ATOM     14  C   UNL     1       1.053   4.105  20.808  0.00  0.00    +0.000 C 
ATOM     15  C   UNL     1       2.160   3.210  21.345  0.00  0.00    +0.000 C 
ENDROOT
BRANCH   1  19
ATOM     16  C   UNL     1       6.884   4.829  14.556  0.00  0.00    +0.000 C 
ATOM     17  C   UNL     1       6.616   4.901  16.018  0.00  0.00    +0.000 A 
ATOM     18  N   UNL     1       5.742   4.142  16.637  0.00  0.00    +0.000 NA
ATOM     19  C   UNL     1       5.736   4.410  17.991  0.00  0.00    +0.000 A 
ATOM     20  C   UNL     1       6.586   5.426  18.378  0.00  0.00    +0.000 A 
ATOM     21  S   UNL     1       7.473   5.997  17.022  0.00  0.00    +0.000 S 
ENDBRANCH   1  19
BRANCH  10  22
ATOM     22  C   UNL     1       1.278   9.808  21.427  0.00  0.00    +0.000 C 
BRANCH  22  23
ATOM     23  C   UNL     1      -0.192  10.072  21.920  0.00  0.00    +0.000 C 
BRANCH  23  24
ATOM     24  N   UNL     1      -1.111   9.447  20.943  0.00  0.00    +0.000 NA
ATOM     25  H   UNL     1      -1.959  10.005  20.852  0.00  0.00    +0.000 HD
ATOM     26  H   UNL     1      -1.418   8.536  21.282  0.00  0.00    +0.000 HD
ENDBRANCH  23  24
BRANCH  23  27
ATOM     27  C   UNL     1      -0.521  11.588  22.087  0.00  0.00    +0.000 C 
BRANCH  27  28
ATOM     28  C   UNL     1      -1.962  12.033  22.341  0.00  0.00    +0.000 A 
ATOM     29  C   UNL     1      -2.592  11.998  23.595  0.00  0.00    +0.000 A 
ATOM     30  C   UNL     1      -3.896  12.488  23.748  0.00  0.00    +0.000 A 
ATOM     31  F   UNL     1      -4.483  12.435  24.953  0.00  0.00    +0.000 F 
ATOM     32  C   UNL     1      -4.588  13.031  22.669  0.00  0.00    +0.000 A 
ATOM     33  F   UNL     1      -5.831  13.500  22.826  0.00  0.00    +0.000 F 
ATOM     34  C   UNL     1      -3.985  13.098  21.424  0.00  0.00    +0.000 A 
ATOM     35  C   UNL     1      -2.686  12.607  21.274  0.00  0.00    +0.000 A 
ATOM     36  F   UNL     1      -2.118  12.698  20.062  0.00  0.00    +0.000 F 
ENDBRANCH  27  28
ENDBRANCH  23  27
ENDBRANCH  22  23
ENDBRANCH  10  22
TORSDOF 6
ENDMDL
MODEL 7
REMARK VINA RESULT:      -8.4      1.283      1.558
REMARK  Name = 
REMARK  7 active torsions:
REMARK  status: ('A' for Active; 'I' for Inactive)
REMARK    1  A    between atoms: C_1  and  C_2
REMARK    2  A    between atoms: C_4  and  C_5
REMARK    3  A    between atoms: C_14  and  C_16
REMARK    4  A    between atoms: C_16  and  C_17
REMARK    5  A    between atoms: C_17  and  N_18
REMARK    6  A    between atoms: C_17  and  C_19
REMARK    7  A    between atoms: C_19  and  C_20
REMARK                            x       y       z     vdW  Elec       q    Type
REMARK                         _______ _______ _______ _____ _____    ______ ____
ROOT
ATOM      1  C   UNL     1       4.794   3.773  18.846  0.00  0.00    +0.000 A 
ATOM      2  N   UNL     1       5.063   2.505  19.101  0.00  0.00    +0.000 NA
ATOM      3  N   UNL     1       4.190   2.058  20.070  0.00  0.00    +0.000 NA
ATOM      4  C   UNL     1       3.361   3.042  20.329  0.00  0.00    +0.000 A 
ATOM      5  N   UNL     1       3.654   4.133  19.546  0.00  0.00    +0.000 N 
ATOM      6  C   UNL     1       2.638   5.128  19.199  0.00  0.00    +0.000 C 
ATOM      7  C   UNL     1       3.172   6.507  18.829  0.00  0.00    +0.000 C 
ATOM      8  C   UNL     1       2.107   7.576  18.921  0.00  0.00    +0.000 C 
ATOM      9  N   UNL     1       1.693   7.775  20.305  0.00  0.00    +0.000 N 
ATOM     10  C   UNL     1       1.287   9.082  20.614  0.00  0.00    +0.000 C 
ATOM     11  O   UNL     1       1.051   9.895  19.715  0.00  0.00    +0.000 OA
ATOM     12  C   UNL     1       1.623   6.536  21.142  0.00  0.00    +0.000 C 
ATOM     13  C   UNL     1       1.467   5.272  20.226  0.00  0.00    +0.000 C 
ATOM     14  C   UNL     1       1.079   3.928  20.871  0.00  0.00    +0.000 C 
ATOM     15  C   UNL     1       2.216   3.000  21.275  0.00  0.00    +0.000 C 
ENDROOT
BRANCH   1  19
ATOM     16  C   UNL     1       7.809   7.513  17.547  0.00  0.00    +0.000 C 
ATOM     17  C   UNL     1       7.005   6.268  17.401  0.00  0.00    +0.000 A 
ATOM     18  N   UNL     1       6.321   5.723  18.380  0.00  0.00    +0.000 NA
ATOM     19  C   UNL     1       5.652   4.599  17.940  0.00  0.00    +0.000 A 
ATOM     20  C   UNL     1       5.885   4.273  16.620  0.00  0.00    +0.000 A 
ATOM     21  S   UNL     1       6.901   5.454  15.895  0.00  0.00    +0.000 S 
ENDBRANCH   1  19
BRANCH  10  22
ATOM     22  C   UNL     1       1.249   9.540  22.065  0.00  0.00    +0.000 C 
BRANCH  22  23
ATOM     23  C   UNL     1      -0.201   9.815  22.606  0.00  0.00    +0.000 C 
BRANCH  23  24
ATOM     24  N   UNL     1      -0.952   8.541  22.542  0.00  0.00    +0.000 NA
ATOM     25  H   UNL     1      -1.926   8.695  22.796  0.00  0.00    +0.000 HD
ATOM     26  H   UNL     1      -0.589   7.884  23.231  0.00  0.00    +0.000 HD
ENDBRANCH  23  24
BRANCH  23  27
ATOM     27  C   UNL     1      -0.951  10.932  21.815  0.00  0.00    +0.000 C 
BRANCH  27  28
ATOM     28  C   UNL     1      -0.872  12.385  22.285  0.00  0.00    +0.000 A 
ATOM     29  C   UNL     1      -1.623  12.915  23.346  0.00  0.00    +0.000 A 
ATOM     30  C   UNL     1      -1.437  14.244  23.751  0.00  0.00    +0.000 A 
ATOM     31  F   UNL     1      -2.172  14.734  24.761  0.00  0.00    +0.000 F 
ATOM     32  C   UNL     1      -0.500  15.059  23.124  0.00  0.00    +0.000 A 
ATOM     33  F   UNL     1      -0.326  16.325  23.521  0.00  0.00    +0.000 F 
ATOM     34  C   UNL     1       0.270  14.558  22.088  0.00  0.00    +0.000 A 
ATOM     35  C   UNL     1       0.082  13.234  21.684  0.00  0.00    +0.000 A 
ATOM     36  F   UNL     1       0.850  12.767  20.689  0.00  0.00    +0.000 F 
ENDBRANCH  27  28
ENDBRANCH  23  27
ENDBRANCH  22  23
ENDBRANCH  10  22
TORSDOF 6
ENDMDL
MODEL 8
REMARK VINA RESULT:      -8.3      1.056      1.877
REMARK  Name = 
REMARK  7 active torsions:
REMARK  status: ('A' for Active; 'I' for Inactive)
REMARK    1  A    between atoms: C_1  and  C_2
REMARK    2  A    between atoms: C_4  and  C_5
REMARK    3  A    between atoms: C_14  and  C_16
REMARK    4  A    between atoms: C_16  and  C_17
REMARK    5  A    between atoms: C_17  and  N_18
REMARK    6  A    between atoms: C_17  and  C_19
REMARK    7  A    between atoms: C_19  and  C_20
REMARK                            x       y       z     vdW  Elec       q    Type
REMARK                         _______ _______ _______ _____ _____    ______ ____
ROOT
ATOM      1  C   UNL     1       4.832   3.787  19.087  0.00  0.00    +0.000 A 
ATOM      2  N   UNL     1       5.080   2.558  19.501  0.00  0.00    +0.000 NA
ATOM      3  N   UNL     1       4.115   2.201  20.419  0.00  0.00    +0.000 NA
ATOM      4  C   UNL     1       3.260   3.194  20.487  0.00  0.00    +0.000 A 
ATOM      5  N   UNL     1       3.626   4.201  19.626  0.00  0.00    +0.000 N 
ATOM      6  C   UNL     1       2.645   5.138  19.075  0.00  0.00    +0.000 C 
ATOM      7  C   UNL     1       3.208   6.479  18.617  0.00  0.00    +0.000 C 
ATOM      8  C   UNL     1       2.133   7.535  18.488  0.00  0.00    +0.000 C 
ATOM      9  N   UNL     1       1.579   7.872  19.794  0.00  0.00    +0.000 N 
ATOM     10  C   UNL     1       1.138   9.197  19.920  0.00  0.00    +0.000 C 
ATOM     11  O   UNL     1       0.990   9.908  18.921  0.00  0.00    +0.000 OA
ATOM     12  C   UNL     1       1.430   6.726  20.746  0.00  0.00    +0.000 C 
ATOM     13  C   UNL     1       1.375   5.371  19.958  0.00  0.00    +0.000 C 
ATOM     14  C   UNL     1       0.930   4.095  20.700  0.00  0.00    +0.000 C 
ATOM     15  C   UNL     1       2.025   3.234  21.312  0.00  0.00    +0.000 C 
ENDROOT
BRANCH   1  19
ATOM     16  C   UNL     1       7.105   4.992  14.826  0.00  0.00    +0.000 C 
ATOM     17  C   UNL     1       6.755   5.048  16.272  0.00  0.00    +0.000 A 
ATOM     18  N   UNL     1       5.861   4.269  16.837  0.00  0.00    +0.000 NA
ATOM     19  C   UNL     1       5.775   4.527  18.189  0.00  0.00    +0.000 A 
ATOM     20  C   UNL     1       6.583   5.555  18.630  0.00  0.00    +0.000 A 
ATOM     21  S   UNL     1       7.534   6.152  17.329  0.00  0.00    +0.000 S 
ENDBRANCH   1  19
BRANCH  10  22
ATOM     22  C   UNL     1       0.950   9.804  21.304  0.00  0.00    +0.000 C 
BRANCH  22  23
ATOM     23  C   UNL     1      -0.545  10.147  21.649  0.00  0.00    +0.000 C 
BRANCH  23  24
ATOM     24  N   UNL     1      -1.114  10.879  20.496  0.00  0.00    +0.000 NA
ATOM     25  H   UNL     1      -0.365  11.253  19.914  0.00  0.00    +0.000 HD
ATOM     26  H   UNL     1      -1.640  11.691  20.819  0.00  0.00    +0.000 HD
ENDBRANCH  23  24
BRANCH  23  27
ATOM     27  C   UNL     1      -0.698  10.983  22.957  0.00  0.00    +0.000 C 
BRANCH  27  28
ATOM     28  C   UNL     1      -1.172  12.436  22.885  0.00  0.00    +0.000 A 
ATOM     29  C   UNL     1      -0.405  13.492  22.370  0.00  0.00    +0.000 A 
ATOM     30  C   UNL     1      -0.945  14.783  22.281  0.00  0.00    +0.000 A 
ATOM     31  F   UNL     1      -0.192  15.780  21.795  0.00  0.00    +0.000 F 
ATOM     32  C   UNL     1      -2.251  15.041  22.686  0.00  0.00    +0.000 A 
ATOM     33  F   UNL     1      -2.760  16.276  22.594  0.00  0.00    +0.000 F 
ATOM     34  C   UNL     1      -3.039  14.014  23.180  0.00  0.00    +0.000 A 
ATOM     35  C   UNL     1      -2.498  12.730  23.269  0.00  0.00    +0.000 A 
ATOM     36  F   UNL     1      -3.284  11.749  23.735  0.00  0.00    +0.000 F 
ENDBRANCH  27  28
ENDBRANCH  23  27
ENDBRANCH  22  23
ENDBRANCH  10  22
TORSDOF 6
ENDMDL
MODEL 9
REMARK VINA RESULT:      -8.3      1.406      1.672
REMARK  Name = 
REMARK  7 active torsions:
REMARK  status: ('A' for Active; 'I' for Inactive)
REMARK    1  A    between atoms: C_1  and  C_2
REMARK    2  A    between atoms: C_4  and  C_5
REMARK    3  A    between atoms: C_14  and  C_16
REMARK    4  A    between atoms: C_16  and  C_17
REMARK    5  A    between atoms: C_17  and  N_18
REMARK    6  A    between atoms: C_17  and  C_19
REMARK    7  A    between atoms: C_19  and  C_20
REMARK                            x       y       z     vdW  Elec       q    Type
REMARK                         _______ _______ _______ _____ _____    ______ ____
ROOT
ATOM      1  C   UNL     1       4.846   3.773  19.137  0.00  0.00    +0.000 A 
ATOM      2  N   UNL     1       5.092   2.546  19.560  0.00  0.00    +0.000 NA
ATOM      3  N   UNL     1       4.125   2.195  20.477  0.00  0.00    +0.000 NA
ATOM      4  C   UNL     1       3.269   3.189  20.536  0.00  0.00    +0.000 A 
ATOM      5  N   UNL     1       3.638   4.190  19.671  0.00  0.00    +0.000 N 
ATOM      6  C   UNL     1       2.660   5.125  19.111  0.00  0.00    +0.000 C 
ATOM      7  C   UNL     1       3.224   6.462  18.646  0.00  0.00    +0.000 C 
ATOM      8  C   UNL     1       2.151   7.518  18.507  0.00  0.00    +0.000 C 
ATOM      9  N   UNL     1       1.593   7.863  19.809  0.00  0.00    +0.000 N 
ATOM     10  C   UNL     1       1.152   9.189  19.926  0.00  0.00    +0.000 C 
ATOM     11  O   UNL     1       1.008   9.894  18.922  0.00  0.00    +0.000 OA
ATOM     12  C   UNL     1       1.441   6.723  20.768  0.00  0.00    +0.000 C 
ATOM     13  C   UNL     1       1.387   5.364  19.988  0.00  0.00    +0.000 C 
ATOM     14  C   UNL     1       0.940   4.093  20.737  0.00  0.00    +0.000 C 
ATOM     15  C   UNL     1       2.033   3.235  21.358  0.00  0.00    +0.000 C 
ENDROOT
BRANCH   1  19
ATOM     16  C   UNL     1       7.127   4.954  14.875  0.00  0.00    +0.000 C 
ATOM     17  C   UNL     1       6.775   5.017  16.320  0.00  0.00    +0.000 A 
ATOM     18  N   UNL     1       5.879   4.242  16.886  0.00  0.00    +0.000 NA
ATOM     19  C   UNL     1       5.792   4.507  18.238  0.00  0.00    +0.000 A 
ATOM     20  C   UNL     1       6.602   5.534  18.675  0.00  0.00    +0.000 A 
ATOM     21  S   UNL     1       7.556   6.123  17.373  0.00  0.00    +0.000 S 
ENDBRANCH   1  19
BRANCH  10  22
ATOM     22  C   UNL     1       0.961   9.805  21.305  0.00  0.00    +0.000 C 
BRANCH  22  23
ATOM     23  C   UNL     1       0.225  11.195  21.282  0.00  0.00    +0.000 C 
BRANCH  23  24
ATOM     24  N   UNL     1       1.262  12.250  21.237  0.00  0.00    +0.000 NA
ATOM     25  H   UNL     1       2.107  11.892  20.792  0.00  0.00    +0.000 HD
ATOM     26  H   UNL     1       1.540  12.511  22.182  0.00  0.00    +0.000 HD
ENDBRANCH  23  24
BRANCH  23  27
ATOM     27  C   UNL     1      -0.721  11.410  22.505  0.00  0.00    +0.000 C 
BRANCH  27  28
ATOM     28  C   UNL     1      -1.570  12.679  22.599  0.00  0.00    +0.000 A 
ATOM     29  C   UNL     1      -1.445  13.640  23.614  0.00  0.00    +0.000 A 
ATOM     30  C   UNL     1      -2.222  14.806  23.585  0.00  0.00    +0.000 A 
ATOM     31  F   UNL     1      -2.094  15.708  24.570  0.00  0.00    +0.000 F 
ATOM     32  C   UNL     1      -3.119  15.044  22.548  0.00  0.00    +0.000 A 
ATOM     33  F   UNL     1      -3.852  16.162  22.526  0.00  0.00    +0.000 F 
ATOM     34  C   UNL     1      -3.249  14.123  21.522  0.00  0.00    +0.000 A 
ATOM     35  C   UNL     1      -2.475  12.960  21.554  0.00  0.00    +0.000 A 
ATOM     36  F   UNL     1      -2.607  12.091  20.541  0.00  0.00    +0.000 F 
ENDBRANCH  27  28
ENDBRANCH  23  27
ENDBRANCH  22  23
ENDBRANCH  10  22
TORSDOF 6
ENDMDL
