MODEL 1
REMARK VINA RESULT:      -8.1      0.000      0.000
REMARK  Name = 
REMARK  4 active torsions:
REMARK  status: ('A' for Active; 'I' for Inactive)
REMARK    1  A    between atoms: C_1  and  O_2
REMARK    2  A    between atoms: O_2  and  C_3
REMARK    3  A    between atoms: C_8  and  C_9
REMARK    4  A    between atoms: N_16  and  C_17
REMARK                            x       y       z     vdW  Elec       q    Type
REMARK                         _______ _______ _______ _____ _____    ______ ____
ROOT
ATOM      1  C   UNL     1       4.277   3.584  17.642  0.00  0.00    +0.000 A 
ATOM      2  N   UNL     1       4.214   2.240  17.812  0.00  0.00    +0.000 NA
ATOM      3  C   UNL     1       3.280   1.723  18.669  0.00  0.00    +0.000 A 
ATOM      4  C   UNL     1       2.391   2.470  19.420  0.00  0.00    +0.000 A 
ATOM      5  C   UNL     1       2.478   3.831  19.237  0.00  0.00    +0.000 A 
ATOM      6  C   UNL     1       3.398   4.388  18.356  0.00  0.00    +0.000 A 
ATOM      7  C   UNL     1       3.228   5.858  18.345  0.00  0.00    +0.000 C 
ATOM      8  N   UNL     1       2.162   6.117  19.288  0.00  0.00    +0.000 N 
ATOM      9  C   UNL     1       1.703   4.928  19.858  0.00  0.00    +0.000 C 
ATOM     10  O   UNL     1       0.852   4.729  20.710  0.00  0.00    +0.000 OA
ENDROOT
BRANCH   1  16
ATOM     11  C   UNL     1       6.601   4.516  17.034  0.00  0.00    +0.000 A 
ATOM     12  C   UNL     1       7.541   4.816  16.026  0.00  0.00    +0.000 A 
ATOM     13  C   UNL     1       7.187   4.805  14.679  0.00  0.00    +0.000 A 
ATOM     14  C   UNL     1       5.876   4.554  14.327  0.00  0.00    +0.000 A 
ATOM     15  C   UNL     1       4.939   4.278  15.323  0.00  0.00    +0.000 A 
ATOM     16  C   UNL     1       5.281   4.149  16.691  0.00  0.00    +0.000 A 
BRANCH  11  18
ATOM     17  C   UNL     1       7.382   5.792  18.852  0.00  0.00    +0.000 C 
ATOM     18  O   UNL     1       6.979   4.513  18.356  0.00  0.00    +0.000 OA
ENDBRANCH  11  18
ENDBRANCH   1  16
BRANCH   8  19
ATOM     19  C   UNL     1       1.815   7.458  19.610  0.00  0.00    +0.000 A 
ATOM     20  C   UNL     1       1.744   8.465  18.646  0.00  0.00    +0.000 A 
ATOM     21  C   UNL     1       1.352   9.764  19.004  0.00  0.00    +0.000 A 
ATOM     22  C   UNL     1       1.032  10.074  20.327  0.00  0.00    +0.000 A 
ATOM     23  C   UNL     1       1.111   9.092  21.300  0.00  0.00    +0.000 A 
ATOM     24  C   UNL     1       1.502   7.800  20.942  0.00  0.00    +0.000 A 
ENDBRANCH   8  19
TORSDOF 3
ENDMDL
MODEL 2
REMARK VINA RESULT:      -8.1      0.886      1.369
REMARK  Name = 
REMARK  4 active torsions:
REMARK  status: ('A' for Active; 'I' for Inactive)
REMARK    1  A    between atoms: C_1  and  O_2
REMARK    2  A    between atoms: O_2  and  C_3
REMARK    3  A    between atoms: C_8  and  C_9
REMARK    4  A    between atoms: N_16  and  C_17
REMARK                            x       y       z     vdW  Elec       q    Type
REMARK                         _______ _______ _______ _____ _____    ______ ____
ROOT
ATOM      1  C   UNL     1       4.454   4.067  18.285  0.00  0.00    +0.000 A 
ATOM      2  N   UNL     1       4.501   2.835  18.849  0.00  0.00    +0.000 NA
ATOM      3  C   UNL     1       3.672   2.555  19.902  0.00  0.00    +0.000 A 
ATOM      4  C   UNL     1       2.787   3.449  20.475  0.00  0.00    +0.000 A 
ATOM      5  C   UNL     1       2.761   4.695  19.891  0.00  0.00    +0.000 A 
ATOM      6  C   UNL     1       3.572   5.005  18.805  0.00  0.00    +0.000 A 
ATOM      7  C   UNL     1       3.294   6.394  18.375  0.00  0.00    +0.000 C 
ATOM      8  N   UNL     1       2.283   6.872  19.293  0.00  0.00    +0.000 N 
ATOM      9  C   UNL     1       1.954   5.889  20.228  0.00  0.00    +0.000 C 
ATOM     10  O   UNL     1       1.184   5.915  21.174  0.00  0.00    +0.000 OA
ENDROOT
BRANCH   1  16
ATOM     11  C   UNL     1       6.726   4.640  17.213  0.00  0.00    +0.000 A 
ATOM     12  C   UNL     1       7.521   4.678  16.048  0.00  0.00    +0.000 A 
ATOM     13  C   UNL     1       6.965   4.497  14.785  0.00  0.00    +0.000 A 
ATOM     14  C   UNL     1       5.599   4.335  14.664  0.00  0.00    +0.000 A 
ATOM     15  C   UNL     1       4.807   4.318  15.812  0.00  0.00    +0.000 A 
ATOM     16  C   UNL     1       5.342   4.367  17.122  0.00  0.00    +0.000 A 
BRANCH  11  18
ATOM     17  C   UNL     1       7.725   6.139  18.728  0.00  0.00    +0.000 C 
ATOM     18  O   UNL     1       7.301   4.802  18.451  0.00  0.00    +0.000 OA
ENDBRANCH  11  18
ENDBRANCH   1  16
BRANCH   8  19
ATOM     19  C   UNL     1       1.863   8.230  19.233  0.00  0.00    +0.000 A 
ATOM     20  C   UNL     1       1.216   8.861  20.296  0.00  0.00    +0.000 A 
ATOM     21  C   UNL     1       0.862  10.216  20.208  0.00  0.00    +0.000 A 
ATOM     22  C   UNL     1       1.145  10.955  19.058  0.00  0.00    +0.000 A 
ATOM     23  C   UNL     1       1.775  10.342  17.988  0.00  0.00    +0.000 A 
ATOM     24  C   UNL     1       2.126   8.993  18.076  0.00  0.00    +0.000 A 
ENDBRANCH   8  19
TORSDOF 3
ENDMDL
MODEL 3
REMARK VINA RESULT:      -7.9      2.359      7.287
REMARK  Name = 
REMARK  4 active torsions:
REMARK  status: ('A' for Active; 'I' for Inactive)
REMARK    1  A    between atoms: C_1  and  O_2
REMARK    2  A    between atoms: O_2  and  C_3
REMARK    3  A    between atoms: C_8  and  C_9
REMARK    4  A    between atoms: N_16  and  C_17
REMARK                            x       y       z     vdW  Elec       q    Type
REMARK                         _______ _______ _______ _____ _____    ______ ____
ROOT
ATOM      1  C   UNL     1       5.105   4.762  18.021  0.00  0.00    +0.000 A 
ATOM      2  N   UNL     1       5.795   5.491  18.933  0.00  0.00    +0.000 NA
ATOM      3  C   UNL     1       6.936   6.137  18.539  0.00  0.00    +0.000 A 
ATOM      4  C   UNL     1       7.479   6.087  17.269  0.00  0.00    +0.000 A 
ATOM      5  C   UNL     1       6.767   5.336  16.363  0.00  0.00    +0.000 A 
ATOM      6  C   UNL     1       5.591   4.687  16.723  0.00  0.00    +0.000 A 
ATOM      7  C   UNL     1       5.036   3.998  15.536  0.00  0.00    +0.000 C 
ATOM      8  N   UNL     1       5.976   4.276  14.471  0.00  0.00    +0.000 N 
ATOM      9  C   UNL     1       7.036   5.057  14.935  0.00  0.00    +0.000 C 
ATOM     10  O   UNL     1       8.034   5.466  14.363  0.00  0.00    +0.000 OA
ENDROOT
BRANCH   1  16
ATOM     11  C   UNL     1       2.570   4.678  18.476  0.00  0.00    +0.000 A 
ATOM     12  C   UNL     1       1.415   3.888  18.661  0.00  0.00    +0.000 A 
ATOM     13  C   UNL     1       1.502   2.514  18.862  0.00  0.00    +0.000 A 
ATOM     14  C   UNL     1       2.746   1.919  18.941  0.00  0.00    +0.000 A 
ATOM     15  C   UNL     1       3.891   2.700  18.780  0.00  0.00    +0.000 A 
ATOM     16  C   UNL     1       3.847   4.075  18.443  0.00  0.00    +0.000 A 
BRANCH  11  18
ATOM     17  C   UNL     1       2.431   6.814  19.455  0.00  0.00    +0.000 C 
ATOM     18  O   UNL     1       2.458   6.031  18.259  0.00  0.00    +0.000 OA
ENDBRANCH  11  18
ENDBRANCH   1  16
BRANCH   8  19
ATOM     19  C   UNL     1       5.803   3.661  13.201  0.00  0.00    +0.000 A 
ATOM     20  C   UNL     1       6.835   2.983  12.550  0.00  0.00    +0.000 A 
ATOM     21  C   UNL     1       6.604   2.353  11.317  0.00  0.00    +0.000 A 
ATOM     22  C   UNL     1       5.344   2.394  10.719  0.00  0.00    +0.000 A 
ATOM     23  C   UNL     1       4.311   3.073  11.343  0.00  0.00    +0.000 A 
ATOM     24  C   UNL     1       4.542   3.701  12.569  0.00  0.00    +0.000 A 
ENDBRANCH   8  19
TORSDOF 3
ENDMDL
MODEL 4
REMARK VINA RESULT:      -7.7      2.218      7.179
REMARK  Name = 
REMARK  4 active torsions:
REMARK  status: ('A' for Active; 'I' for Inactive)
REMARK    1  A    between atoms: C_1  and  O_2
REMARK    2  A    between atoms: O_2  and  C_3
REMARK    3  A    between atoms: C_8  and  C_9
REMARK    4  A    between atoms: N_16  and  C_17
REMARK                            x       y       z     vdW  Elec       q    Type
REMARK                         _______ _______ _______ _____ _____    ______ ____
ROOT
ATOM      1  C   UNL     1       5.068   4.632  18.329  0.00  0.00    +0.000 A 
ATOM      2  N   UNL     1       5.789   5.296  19.267  0.00  0.00    +0.000 NA
ATOM      3  C   UNL     1       6.948   5.921  18.893  0.00  0.00    +0.000 A 
ATOM      4  C   UNL     1       7.479   5.913  17.616  0.00  0.00    +0.000 A 
ATOM      5  C   UNL     1       6.735   5.227  16.683  0.00  0.00    +0.000 A 
ATOM      6  C   UNL     1       5.541   4.601  17.024  0.00  0.00    +0.000 A 
ATOM      7  C   UNL     1       4.954   3.986  15.812  0.00  0.00    +0.000 C 
ATOM      8  N   UNL     1       5.894   4.282  14.753  0.00  0.00    +0.000 N 
ATOM      9  C   UNL     1       6.983   5.006  15.242  0.00  0.00    +0.000 C 
ATOM     10  O   UNL     1       7.989   5.409  14.680  0.00  0.00    +0.000 OA
ENDROOT
BRANCH   1  16
ATOM     11  C   UNL     1       2.526   4.593  18.747  0.00  0.00    +0.000 A 
ATOM     12  C   UNL     1       1.354   3.824  18.913  0.00  0.00    +0.000 A 
ATOM     13  C   UNL     1       1.413   2.447  19.112  0.00  0.00    +0.000 A 
ATOM     14  C   UNL     1       2.645   1.830  19.208  0.00  0.00    +0.000 A 
ATOM     15  C   UNL     1       3.806   2.591  19.065  0.00  0.00    +0.000 A 
ATOM     16  C   UNL     1       3.792   3.967  18.732  0.00  0.00    +0.000 A 
BRANCH  11  18
ATOM     17  C   UNL     1       2.321   6.723  19.727  0.00  0.00    +0.000 C 
ATOM     18  O   UNL     1       2.441   5.949  18.532  0.00  0.00    +0.000 OA
ENDBRANCH  11  18
ENDBRANCH   1  16
BRANCH   8  19
ATOM     19  C   UNL     1       5.691   3.733  13.457  0.00  0.00    +0.000 A 
ATOM     20  C   UNL     1       4.447   3.746  12.823  0.00  0.00    +0.000 A 
ATOM     21  C   UNL     1       4.306   3.232  11.525  0.00  0.00    +0.000 A 
ATOM     22  C   UNL     1       5.402   2.697  10.846  0.00  0.00    +0.000 A 
ATOM     23  C   UNL     1       6.641   2.662  11.463  0.00  0.00    +0.000 A 
ATOM     24  C   UNL     1       6.780   3.172  12.756  0.00  0.00    +0.000 A 
ENDBRANCH   8  19
TORSDOF 3
ENDMDL
MODEL 5
REMARK VINA RESULT:      -7.7      3.072      7.221
REMARK  Name = 
REMARK  4 active torsions:
REMARK  status: ('A' for Active; 'I' for Inactive)
REMARK    1  A    between atoms: C_1  and  O_2
REMARK    2  A    between atoms: O_2  and  C_3
REMARK    3  A    between atoms: C_8  and  C_9
REMARK    4  A    between atoms: N_16  and  C_17
REMARK                            x       y       z     vdW  Elec       q    Type
REMARK                         _______ _______ _______ _____ _____    ______ ____
ROOT
ATOM      1  C   UNL     1       5.106   4.777  18.116  0.00  0.00    +0.000 A 
ATOM      2  N   UNL     1       5.789   5.519  19.023  0.00  0.00    +0.000 NA
ATOM      3  C   UNL     1       6.915   6.187  18.622  0.00  0.00    +0.000 A 
ATOM      4  C   UNL     1       7.449   6.149  17.347  0.00  0.00    +0.000 A 
ATOM      5  C   UNL     1       6.744   5.385  16.445  0.00  0.00    +0.000 A 
ATOM      6  C   UNL     1       5.584   4.713  16.814  0.00  0.00    +0.000 A 
ATOM      7  C   UNL     1       5.033   4.015  15.630  0.00  0.00    +0.000 C 
ATOM      8  N   UNL     1       5.959   4.312  14.558  0.00  0.00    +0.000 N 
ATOM      9  C   UNL     1       7.007   5.113  15.015  0.00  0.00    +0.000 C 
ATOM     10  O   UNL     1       7.993   5.542  14.436  0.00  0.00    +0.000 OA
ENDROOT
BRANCH   1  16
ATOM     11  C   UNL     1       3.829   2.989  19.461  0.00  0.00    +0.000 A 
ATOM     12  C   UNL     1       2.597   2.540  19.982  0.00  0.00    +0.000 A 
ATOM     13  C   UNL     1       1.391   3.107  19.580  0.00  0.00    +0.000 A 
ATOM     14  C   UNL     1       1.395   4.088  18.608  0.00  0.00    +0.000 A 
ATOM     15  C   UNL     1       2.610   4.519  18.075  0.00  0.00    +0.000 A 
ATOM     16  C   UNL     1       3.866   4.066  18.547  0.00  0.00    +0.000 A 
BRANCH  11  18
ATOM     17  C   UNL     1       4.853   1.463  20.932  0.00  0.00    +0.000 C 
ATOM     18  O   UNL     1       5.009   2.427  19.888  0.00  0.00    +0.000 OA
ENDBRANCH  11  18
ENDBRANCH   1  16
BRANCH   8  19
ATOM     19  C   UNL     1       5.788   3.695  13.289  0.00  0.00    +0.000 A 
ATOM     20  C   UNL     1       6.819   3.010  12.644  0.00  0.00    +0.000 A 
ATOM     21  C   UNL     1       6.590   2.378  11.412  0.00  0.00    +0.000 A 
ATOM     22  C   UNL     1       5.333   2.426  10.808  0.00  0.00    +0.000 A 
ATOM     23  C   UNL     1       4.301   3.113  11.425  0.00  0.00    +0.000 A 
ATOM     24  C   UNL     1       4.531   3.742  12.651  0.00  0.00    +0.000 A 
ENDBRANCH   8  19
TORSDOF 3
ENDMDL
MODEL 6
REMARK VINA RESULT:      -7.3      1.406      2.579
REMARK  Name = 
REMARK  4 active torsions:
REMARK  status: ('A' for Active; 'I' for Inactive)
REMARK    1  A    between atoms: C_1  and  O_2
REMARK    2  A    between atoms: O_2  and  C_3
REMARK    3  A    between atoms: C_8  and  C_9
REMARK    4  A    between atoms: N_16  and  C_17
REMARK                            x       y       z     vdW  Elec       q    Type
REMARK                         _______ _______ _______ _____ _____    ______ ____
ROOT
ATOM      1  C   UNL     1       5.031   4.652  18.962  0.00  0.00    +0.000 A 
ATOM      2  N   UNL     1       5.190   3.306  18.975  0.00  0.00    +0.000 NA
ATOM      3  C   UNL     1       4.159   2.520  19.415  0.00  0.00    +0.000 A 
ATOM      4  C   UNL     1       2.948   2.989  19.887  0.00  0.00    +0.000 A 
ATOM      5  C   UNL     1       2.811   4.358  19.872  0.00  0.00    +0.000 A 
ATOM      6  C   UNL     1       3.829   5.185  19.409  0.00  0.00    +0.000 A 
ATOM      7  C   UNL     1       3.377   6.593  19.478  0.00  0.00    +0.000 C 
ATOM      8  N   UNL     1       2.040   6.529  20.026  0.00  0.00    +0.000 N 
ATOM      9  C   UNL     1       1.675   5.208  20.294  0.00  0.00    +0.000 C 
ATOM     10  O   UNL     1       0.658   4.746  20.787  0.00  0.00    +0.000 OA
ENDROOT
BRANCH   1  16
ATOM     11  C   UNL     1       6.149   6.190  17.224  0.00  0.00    +0.000 A 
ATOM     12  C   UNL     1       7.138   7.157  16.946  0.00  0.00    +0.000 A 
ATOM     13  C   UNL     1       8.157   7.434  17.853  0.00  0.00    +0.000 A 
ATOM     14  C   UNL     1       8.236   6.705  19.024  0.00  0.00    +0.000 A 
ATOM     15  C   UNL     1       7.271   5.733  19.292  0.00  0.00    +0.000 A 
ATOM     16  C   UNL     1       6.146   5.510  18.462  0.00  0.00    +0.000 A 
BRANCH  11  18
ATOM     17  C   UNL     1       5.524   5.107  15.229  0.00  0.00    +0.000 C 
ATOM     18  O   UNL     1       5.141   5.948  16.320  0.00  0.00    +0.000 OA
ENDBRANCH  11  18
ENDBRANCH   1  16
BRANCH   8  19
ATOM     19  C   UNL     1       1.346   7.731  20.335  0.00  0.00    +0.000 A 
ATOM     20  C   UNL     1       0.681   7.922  21.547  0.00  0.00    +0.000 A 
ATOM     21  C   UNL     1       0.049   9.144  21.824  0.00  0.00    +0.000 A 
ATOM     22  C   UNL     1       0.070  10.186  20.896  0.00  0.00    +0.000 A 
ATOM     23  C   UNL     1       0.712  10.010  19.683  0.00  0.00    +0.000 A 
ATOM     24  C   UNL     1       1.340   8.794  19.406  0.00  0.00    +0.000 A 
ENDBRANCH   8  19
TORSDOF 3
ENDMDL
MODEL 7
REMARK VINA RESULT:      -7.0      2.798      4.644
REMARK  Name = 
REMARK  4 active torsions:
REMARK  status: ('A' for Active; 'I' for Inactive)
REMARK    1  A    between atoms: C_1  and  O_2
REMARK    2  A    between atoms: O_2  and  C_3
REMARK    3  A    between atoms: C_8  and  C_9
REMARK    4  A    between atoms: N_16  and  C_17
REMARK                            x       y       z     vdW  Elec       q    Type
REMARK                         _______ _______ _______ _____ _____    ______ ____
ROOT
ATOM      1  C   UNL     1       6.602   5.946  16.624  0.00  0.00    +0.000 A 
ATOM      2  N   UNL     1       7.090   5.742  15.375  0.00  0.00    +0.000 NA
ATOM      3  C   UNL     1       6.490   4.810  14.572  0.00  0.00    +0.000 A 
ATOM      4  C   UNL     1       5.420   4.016  14.939  0.00  0.00    +0.000 A 
ATOM      5  C   UNL     1       4.946   4.235  16.212  0.00  0.00    +0.000 A 
ATOM      6  C   UNL     1       5.516   5.191  17.046  0.00  0.00    +0.000 A 
ATOM      7  C   UNL     1       4.772   5.223  18.325  0.00  0.00    +0.000 C 
ATOM      8  N   UNL     1       3.746   4.213  18.185  0.00  0.00    +0.000 N 
ATOM      9  C   UNL     1       3.833   3.586  16.940  0.00  0.00    +0.000 C 
ATOM     10  O   UNL     1       3.181   2.671  16.461  0.00  0.00    +0.000 OA
ENDROOT
BRANCH   1  16
ATOM     11  C   UNL     1       8.015   6.699  18.643  0.00  0.00    +0.000 A 
ATOM     12  C   UNL     1       8.768   7.721  19.259  0.00  0.00    +0.000 A 
ATOM     13  C   UNL     1       8.736   9.030  18.787  0.00  0.00    +0.000 A 
ATOM     14  C   UNL     1       7.904   9.348  17.731  0.00  0.00    +0.000 A 
ATOM     15  C   UNL     1       7.142   8.344  17.133  0.00  0.00    +0.000 A 
ATOM     16  C   UNL     1       7.242   6.978  17.493  0.00  0.00    +0.000 A 
BRANCH  11  18
ATOM     17  C   UNL     1       8.386   5.311  20.507  0.00  0.00    +0.000 C 
ATOM     18  O   UNL     1       8.079   5.409  19.115  0.00  0.00    +0.000 OA
ENDBRANCH  11  18
ENDBRANCH   1  16
BRANCH   8  19
ATOM     19  C   UNL     1       2.911   3.898  19.292  0.00  0.00    +0.000 A 
ATOM     20  C   UNL     1       1.627   4.427  19.436  0.00  0.00    +0.000 A 
ATOM     21  C   UNL     1       0.823   4.051  20.523  0.00  0.00    +0.000 A 
ATOM     22  C   UNL     1       1.289   3.147  21.478  0.00  0.00    +0.000 A 
ATOM     23  C   UNL     1       2.565   2.622  21.359  0.00  0.00    +0.000 A 
ATOM     24  C   UNL     1       3.366   2.998  20.278  0.00  0.00    +0.000 A 
ENDBRANCH   8  19
TORSDOF 3
ENDMDL
MODEL 8
REMARK VINA RESULT:      -7.0      2.500      5.087
REMARK  Name = 
REMARK  4 active torsions:
REMARK  status: ('A' for Active; 'I' for Inactive)
REMARK    1  A    between atoms: C_1  and  O_2
REMARK    2  A    between atoms: O_2  and  C_3
REMARK    3  A    between atoms: C_8  and  C_9
REMARK    4  A    between atoms: N_16  and  C_17
REMARK                            x       y       z     vdW  Elec       q    Type
REMARK                         _______ _______ _______ _____ _____    ______ ____
ROOT
ATOM      1  C   UNL     1       2.919   5.625  18.706  0.00  0.00    +0.000 A 
ATOM      2  N   UNL     1       3.904   5.284  17.839  0.00  0.00    +0.000 NA
ATOM      3  C   UNL     1       4.442   6.251  17.032  0.00  0.00    +0.000 A 
ATOM      4  C   UNL     1       4.039   7.573  16.999  0.00  0.00    +0.000 A 
ATOM      5  C   UNL     1       3.033   7.894  17.881  0.00  0.00    +0.000 A 
ATOM      6  C   UNL     1       2.482   6.943  18.732  0.00  0.00    +0.000 A 
ATOM      7  C   UNL     1       1.458   7.590  19.584  0.00  0.00    +0.000 C 
ATOM      8  N   UNL     1       1.441   8.973  19.158  0.00  0.00    +0.000 N 
ATOM      9  C   UNL     1       2.356   9.187  18.126  0.00  0.00    +0.000 C 
ATOM     10  O   UNL     1       2.611  10.193  17.482  0.00  0.00    +0.000 OA
ENDROOT
BRANCH   1  16
ATOM     11  C   UNL     1       1.779   3.360  19.162  0.00  0.00    +0.000 A 
ATOM     12  C   UNL     1       1.482   2.337  20.089  0.00  0.00    +0.000 A 
ATOM     13  C   UNL     1       1.693   2.513  21.453  0.00  0.00    +0.000 A 
ATOM     14  C   UNL     1       2.146   3.732  21.917  0.00  0.00    +0.000 A 
ATOM     15  C   UNL     1       2.420   4.752  21.005  0.00  0.00    +0.000 A 
ATOM     16  C   UNL     1       2.347   4.576  19.603  0.00  0.00    +0.000 A 
BRANCH  11  18
ATOM     17  C   UNL     1       2.481   2.213  17.230  0.00  0.00    +0.000 C 
ATOM     18  O   UNL     1       1.581   3.156  17.817  0.00  0.00    +0.000 OA
ENDBRANCH  11  18
ENDBRANCH   1  16
BRANCH   8  19
ATOM     19  C   UNL     1       0.476   9.865  19.701  0.00  0.00    +0.000 A 
ATOM     20  C   UNL     1       0.494  10.267  21.037  0.00  0.00    +0.000 A 
ATOM     21  C   UNL     1      -0.453  11.186  21.515  0.00  0.00    +0.000 A 
ATOM     22  C   UNL     1      -1.430  11.710  20.668  0.00  0.00    +0.000 A 
ATOM     23  C   UNL     1      -1.474  11.312  19.343  0.00  0.00    +0.000 A 
ATOM     24  C   UNL     1      -0.532  10.397  18.868  0.00  0.00    +0.000 A 
ENDBRANCH   8  19
TORSDOF 3
ENDMDL
MODEL 9
REMARK VINA RESULT:      -6.9      1.353      1.828
REMARK  Name = 
REMARK  4 active torsions:
REMARK  status: ('A' for Active; 'I' for Inactive)
REMARK    1  A    between atoms: C_1  and  O_2
REMARK    2  A    between atoms: O_2  and  C_3
REMARK    3  A    between atoms: C_8  and  C_9
REMARK    4  A    between atoms: N_16  and  C_17
REMARK                            x       y       z     vdW  Elec       q    Type
REMARK                         _______ _______ _______ _____ _____    ______ ____
ROOT
ATOM      1  C   UNL     1       4.066   4.928  18.406  0.00  0.00    +0.000 A 
ATOM      2  N   UNL     1       4.087   3.747  19.071  0.00  0.00    +0.000 NA
ATOM      3  C   UNL     1       3.277   3.586  20.163  0.00  0.00    +0.000 A 
ATOM      4  C   UNL     1       2.439   4.556  20.680  0.00  0.00    +0.000 A 
ATOM      5  C   UNL     1       2.439   5.749  19.994  0.00  0.00    +0.000 A 
ATOM      6  C   UNL     1       3.231   5.938  18.867  0.00  0.00    +0.000 A 
ATOM      7  C   UNL     1       2.990   7.295  18.328  0.00  0.00    +0.000 C 
ATOM      8  N   UNL     1       2.021   7.885  19.225  0.00  0.00    +0.000 N 
ATOM      9  C   UNL     1       1.684   6.995  20.248  0.00  0.00    +0.000 C 
ATOM     10  O   UNL     1       0.940   7.128  21.207  0.00  0.00    +0.000 OA
ENDROOT
BRANCH   1  16
ATOM     11  C   UNL     1       6.203   5.717  17.201  0.00  0.00    +0.000 A 
ATOM     12  C   UNL     1       7.041   5.620  16.070  0.00  0.00    +0.000 A 
ATOM     13  C   UNL     1       6.629   4.959  14.917  0.00  0.00    +0.000 A 
ATOM     14  C   UNL     1       5.351   4.439  14.856  0.00  0.00    +0.000 A 
ATOM     15  C   UNL     1       4.512   4.552  15.965  0.00  0.00    +0.000 A 
ATOM     16  C   UNL     1       4.933   5.098  17.201  0.00  0.00    +0.000 A 
BRANCH  11  18
ATOM     17  C   UNL     1       7.785   5.756  18.943  0.00  0.00    +0.000 C 
ATOM     18  O   UNL     1       6.640   6.358  18.336  0.00  0.00    +0.000 OA
ENDBRANCH  11  18
ENDBRANCH   1  16
BRANCH   8  19
ATOM     19  C   UNL     1       1.646   9.247  19.062  0.00  0.00    +0.000 A 
ATOM     20  C   UNL     1       2.297  10.101  18.170  0.00  0.00    +0.000 A 
ATOM     21  C   UNL     1       1.861  11.426  18.010  0.00  0.00    +0.000 A 
ATOM     22  C   UNL     1       0.776  11.914  18.739  0.00  0.00    +0.000 A 
ATOM     23  C   UNL     1       0.127  11.086  19.639  0.00  0.00    +0.000 A 
ATOM     24  C   UNL     1       0.562   9.768  19.799  0.00  0.00    +0.000 A 
ENDBRANCH   8  19
TORSDOF 3
ENDMDL
