MODEL 1
REMARK VINA RESULT:      -8.1      0.000      0.000
REMARK  Name = 
REMARK  8 active torsions:
REMARK  status: ('A' for Active; 'I' for Inactive)
REMARK    1  A    between atoms: C_1  and  O_2
REMARK    2  A    between atoms: O_2  and  C_3
REMARK    3  A    between atoms: C_7  and  C_8
REMARK    4  A    between atoms: C_8  and  N_9
REMARK    5  A    between atoms: C_17  and  O_18
REMARK    6  A    between atoms: O_18  and  C_19
REMARK    7  A    between atoms: C_19  and  C_20
REMARK    8  A    between atoms: C_23  and  C_24
REMARK                            x       y       z     vdW  Elec       q    Type
REMARK                         _______ _______ _______ _____ _____    ______ ____
ROOT
ATOM      1  C   UNL     1       6.216   6.614  17.128  0.00  0.00    +0.000 A 
ATOM      2  C   UNL     1       7.362   5.806  17.050  0.00  0.00    +0.000 A 
ATOM      3  C   UNL     1       7.271   4.440  16.858  0.00  0.00    +0.000 A 
ATOM      4  C   UNL     1       6.016   3.852  16.768  0.00  0.00    +0.000 A 
ATOM      5  C   UNL     1       4.842   4.620  16.897  0.00  0.00    +0.000 A 
ATOM      6  C   UNL     1       4.927   6.026  17.070  0.00  0.00    +0.000 A 
ENDROOT
BRANCH   1   8
ATOM      7  C   UNL     1       7.662   8.419  17.596  0.00  0.00    +0.000 C 
ATOM      8  O   UNL     1       6.338   7.969  17.318  0.00  0.00    +0.000 OA
ENDBRANCH   1   8
BRANCH   5   9
ATOM      9  C   UNL     1       3.527   3.864  16.807  0.00  0.00    +0.000 C 
BRANCH   9  10
ATOM     10  N   UNL     1       2.957   3.503  18.149  0.00  0.00    +0.000 NA
ATOM     11  C   UNL     1       1.743   2.706  17.922  0.00  0.00    +0.000 C 
ATOM     12  C   UNL     1       0.812   2.331  19.081  0.00  0.00    +0.000 C 
ATOM     13  C   UNL     1       0.686   3.323  20.233  0.00  0.00    +0.000 C 
ATOM     14  C   UNL     1       1.567   2.966  21.428  0.00  0.00    +0.000 C 
ATOM     15  C   UNL     1       3.029   3.371  21.273  0.00  0.00    +0.000 C 
ATOM     16  C   UNL     1       3.824   2.429  20.374  0.00  0.00    +0.000 C 
ATOM     17  C   UNL     1       4.034   2.870  18.921  0.00  0.00    +0.000 C 
ENDBRANCH   9  10
ENDBRANCH   5   9
BRANCH   6  18
ATOM     18  O   UNL     1       3.719   6.690  17.152  0.00  0.00    +0.000 OA
BRANCH  18  19
ATOM     19  C   UNL     1       3.136   6.909  18.452  0.00  0.00    +0.000 C 
BRANCH  19  20
ATOM     20  C   UNL     1       2.367   8.203  18.560  0.00  0.00    +0.000 A 
ATOM     21  C   UNL     1       2.321   9.224  17.633  0.00  0.00    +0.000 A 
ATOM     22  S   UNL     1       1.328  10.496  18.191  0.00  0.00    +0.000 S 
ATOM     23  C   UNL     1       1.007   9.622  19.647  0.00  0.00    +0.000 A 
ATOM     24  N   UNL     1       1.622   8.455  19.721  0.00  0.00    +0.000 NA
BRANCH  23  25
ATOM     25  C   UNL     1       0.181  10.230  20.715  0.00  0.00    +0.000 A 
ATOM     26  C   UNL     1       0.125   9.695  22.015  0.00  0.00    +0.000 A 
ATOM     27  C   UNL     1      -0.741  10.223  22.981  0.00  0.00    +0.000 A 
ATOM     28  C   UNL     1      -1.555  11.305  22.661  0.00  0.00    +0.000 A 
ATOM     29 CL   UNL     1      -2.663  11.914  23.827  0.00  0.00    +0.000 Cl
ATOM     30  C   UNL     1      -1.483  11.885  21.397  0.00  0.00    +0.000 A 
ATOM     31  C   UNL     1      -0.612  11.355  20.433  0.00  0.00    +0.000 A 
ENDBRANCH  23  25
ENDBRANCH  19  20
ENDBRANCH  18  19
ENDBRANCH   6  18
TORSDOF 7
ENDMDL
MODEL 2
REMARK VINA RESULT:      -8.1      2.258      2.652
REMARK  Name = 
REMARK  8 active torsions:
REMARK  status: ('A' for Active; 'I' for Inactive)
REMARK    1  A    between atoms: C_1  and  O_2
REMARK    2  A    between atoms: O_2  and  C_3
REMARK    3  A    between atoms: C_7  and  C_8
REMARK    4  A    between atoms: C_8  and  N_9
REMARK    5  A    between atoms: C_17  and  O_18
REMARK    6  A    between atoms: O_18  and  C_19
REMARK    7  A    between atoms: C_19  and  C_20
REMARK    8  A    between atoms: C_23  and  C_24
REMARK                            x       y       z     vdW  Elec       q    Type
REMARK                         _______ _______ _______ _____ _____    ______ ____
ROOT
ATOM      1  C   UNL     1       6.115   6.519  17.024  0.00  0.00    +0.000 A 
ATOM      2  C   UNL     1       7.024   5.715  16.316  0.00  0.00    +0.000 A 
ATOM      3  C   UNL     1       6.646   4.501  15.776  0.00  0.00    +0.000 A 
ATOM      4  C   UNL     1       5.344   4.054  15.962  0.00  0.00    +0.000 A 
ATOM      5  C   UNL     1       4.418   4.805  16.712  0.00  0.00    +0.000 A 
ATOM      6  C   UNL     1       4.791   6.065  17.249  0.00  0.00    +0.000 A 
ENDROOT
BRANCH   1   8
ATOM      7  C   UNL     1       7.898   7.788  17.905  0.00  0.00    +0.000 C 
ATOM      8  O   UNL     1       6.520   7.723  17.547  0.00  0.00    +0.000 OA
ENDBRANCH   1   8
BRANCH   5   9
ATOM      9  C   UNL     1       3.031   4.204  16.869  0.00  0.00    +0.000 C 
BRANCH   9  10
ATOM     10  N   UNL     1       2.769   3.668  18.248  0.00  0.00    +0.000 NA
ATOM     11  C   UNL     1       1.325   3.417  18.366  0.00  0.00    +0.000 C 
ATOM     12  C   UNL     1       0.694   3.039  19.711  0.00  0.00    +0.000 C 
ATOM     13  C   UNL     1       1.317   3.628  20.973  0.00  0.00    +0.000 C 
ATOM     14  C   UNL     1       2.274   2.664  21.671  0.00  0.00    +0.000 C 
ATOM     15  C   UNL     1       3.663   2.596  21.047  0.00  0.00    +0.000 C 
ATOM     16  C   UNL     1       3.712   1.759  19.772  0.00  0.00    +0.000 C 
ATOM     17  C   UNL     1       3.662   2.518  18.442  0.00  0.00    +0.000 C 
ENDBRANCH   9  10
ENDBRANCH   5   9
BRANCH   6  18
ATOM     18  O   UNL     1       3.800   6.735  17.939  0.00  0.00    +0.000 OA
BRANCH  18  19
ATOM     19  C   UNL     1       3.222   7.915  17.347  0.00  0.00    +0.000 C 
BRANCH  19  20
ATOM     20  C   UNL     1       2.117   8.528  18.173  0.00  0.00    +0.000 A 
ATOM     21  C   UNL     1       2.067   8.634  19.547  0.00  0.00    +0.000 A 
ATOM     22  S   UNL     1       0.617   9.390  20.038  0.00  0.00    +0.000 S 
ATOM     23  C   UNL     1       0.124   9.539  18.388  0.00  0.00    +0.000 A 
ATOM     24  N   UNL     1       0.984   9.035  17.521  0.00  0.00    +0.000 NA
BRANCH  23  25
ATOM     25  C   UNL     1      -1.202  10.109  18.055  0.00  0.00    +0.000 A 
ATOM     26  C   UNL     1      -1.887   9.770  16.872  0.00  0.00    +0.000 A 
ATOM     27  C   UNL     1      -3.090  10.398  16.526  0.00  0.00    +0.000 A 
ATOM     28  C   UNL     1      -3.632  11.364  17.367  0.00  0.00    +0.000 A 
ATOM     29 CL   UNL     1      -5.078  12.179  16.912  0.00  0.00    +0.000 Cl
ATOM     30  C   UNL     1      -3.002  11.681  18.567  0.00  0.00    +0.000 A 
ATOM     31  C   UNL     1      -1.797  11.049  18.912  0.00  0.00    +0.000 A 
ENDBRANCH  23  25
ENDBRANCH  19  20
ENDBRANCH  18  19
ENDBRANCH   6  18
TORSDOF 7
ENDMDL
MODEL 3
REMARK VINA RESULT:      -8.0      1.387      1.628
REMARK  Name = 
REMARK  8 active torsions:
REMARK  status: ('A' for Active; 'I' for Inactive)
REMARK    1  A    between atoms: C_1  and  O_2
REMARK    2  A    between atoms: O_2  and  C_3
REMARK    3  A    between atoms: C_7  and  C_8
REMARK    4  A    between atoms: C_8  and  N_9
REMARK    5  A    between atoms: C_17  and  O_18
REMARK    6  A    between atoms: O_18  and  C_19
REMARK    7  A    between atoms: C_19  and  C_20
REMARK    8  A    between atoms: C_23  and  C_24
REMARK                            x       y       z     vdW  Elec       q    Type
REMARK                         _______ _______ _______ _____ _____    ______ ____
ROOT
ATOM      1  C   UNL     1       6.015   6.381  16.969  0.00  0.00    +0.000 A 
ATOM      2  C   UNL     1       6.877   5.797  16.026  0.00  0.00    +0.000 A 
ATOM      3  C   UNL     1       6.507   4.676  15.305  0.00  0.00    +0.000 A 
ATOM      4  C   UNL     1       5.265   4.101  15.541  0.00  0.00    +0.000 A 
ATOM      5  C   UNL     1       4.394   4.623  16.517  0.00  0.00    +0.000 A 
ATOM      6  C   UNL     1       4.757   5.788  17.244  0.00  0.00    +0.000 A 
ENDROOT
BRANCH   1   8
ATOM      7  C   UNL     1       7.816   7.732  17.674  0.00  0.00    +0.000 C 
ATOM      8  O   UNL     1       6.410   7.495  17.669  0.00  0.00    +0.000 OA
ENDBRANCH   1   8
BRANCH   5   9
ATOM      9  C   UNL     1       3.074   3.895  16.704  0.00  0.00    +0.000 C 
BRANCH   9  10
ATOM     10  N   UNL     1       2.825   3.473  18.124  0.00  0.00    +0.000 NA
ATOM     11  C   UNL     1       1.376   3.291  18.291  0.00  0.00    +0.000 C 
ATOM     12  C   UNL     1       0.763   3.041  19.674  0.00  0.00    +0.000 C 
ATOM     13  C   UNL     1       1.440   3.694  20.875  0.00  0.00    +0.000 C 
ATOM     14  C   UNL     1       2.374   2.746  21.622  0.00  0.00    +0.000 C 
ATOM     15  C   UNL     1       3.744   2.574  20.976  0.00  0.00    +0.000 C 
ATOM     16  C   UNL     1       3.728   1.645  19.766  0.00  0.00    +0.000 C 
ATOM     17  C   UNL     1       3.676   2.305  18.384  0.00  0.00    +0.000 C 
ENDBRANCH   9  10
ENDBRANCH   5   9
BRANCH   6  18
ATOM     18  O   UNL     1       3.819   6.238  18.153  0.00  0.00    +0.000 OA
BRANCH  18  19
ATOM     19  C   UNL     1       3.063   7.423  17.837  0.00  0.00    +0.000 C 
BRANCH  19  20
ATOM     20  C   UNL     1       2.221   7.927  18.984  0.00  0.00    +0.000 A 
ATOM     21  C   UNL     1       2.078   7.349  20.229  0.00  0.00    +0.000 A 
ATOM     22  S   UNL     1       1.015   8.268  21.198  0.00  0.00    +0.000 S 
ATOM     23  C   UNL     1       0.794   9.395  19.907  0.00  0.00    +0.000 A 
ATOM     24  N   UNL     1       1.460   9.092  18.807  0.00  0.00    +0.000 NA
BRANCH  23  25
ATOM     25  C   UNL     1      -0.149  10.527  20.058  0.00  0.00    +0.000 A 
ATOM     26  C   UNL     1      -0.251  11.263  21.254  0.00  0.00    +0.000 A 
ATOM     27  C   UNL     1      -1.220  12.262  21.411  0.00  0.00    +0.000 A 
ATOM     28  C   UNL     1      -2.093  12.548  20.366  0.00  0.00    +0.000 A 
ATOM     29 CL   UNL     1      -3.322  13.732  20.580  0.00  0.00    +0.000 Cl
ATOM     30  C   UNL     1      -1.980  11.870  19.155  0.00  0.00    +0.000 A 
ATOM     31  C   UNL     1      -1.007  10.871  19.000  0.00  0.00    +0.000 A 
ENDBRANCH  23  25
ENDBRANCH  19  20
ENDBRANCH  18  19
ENDBRANCH   6  18
TORSDOF 7
ENDMDL
MODEL 4
REMARK VINA RESULT:      -7.9      1.534      4.472
REMARK  Name = 
REMARK  8 active torsions:
REMARK  status: ('A' for Active; 'I' for Inactive)
REMARK    1  A    between atoms: C_1  and  O_2
REMARK    2  A    between atoms: O_2  and  C_3
REMARK    3  A    between atoms: C_7  and  C_8
REMARK    4  A    between atoms: C_8  and  N_9
REMARK    5  A    between atoms: C_17  and  O_18
REMARK    6  A    between atoms: O_18  and  C_19
REMARK    7  A    between atoms: C_19  and  C_20
REMARK    8  A    between atoms: C_23  and  C_24
REMARK                            x       y       z     vdW  Elec       q    Type
REMARK                         _______ _______ _______ _____ _____    ______ ____
ROOT
ATOM      1  C   UNL     1       1.988   3.066  19.446  0.00  0.00    +0.000 A 
ATOM      2  C   UNL     1       2.411   1.726  19.443  0.00  0.00    +0.000 A 
ATOM      3  C   UNL     1       3.366   1.272  18.552  0.00  0.00    +0.000 A 
ATOM      4  C   UNL     1       3.897   2.156  17.622  0.00  0.00    +0.000 A 
ATOM      5  C   UNL     1       3.460   3.493  17.557  0.00  0.00    +0.000 A 
ATOM      6  C   UNL     1       2.498   3.973  18.484  0.00  0.00    +0.000 A 
ENDROOT
BRANCH   1   8
ATOM      7  C   UNL     1       1.200   2.984  21.668  0.00  0.00    +0.000 C 
ATOM      8  O   UNL     1       1.039   3.488  20.345  0.00  0.00    +0.000 OA
ENDBRANCH   1   8
BRANCH   5   9
ATOM      9  C   UNL     1       4.095   4.360  16.482  0.00  0.00    +0.000 C 
BRANCH   9  10
ATOM     10  N   UNL     1       5.300   5.115  16.964  0.00  0.00    +0.000 NA
ATOM     11  C   UNL     1       6.439   4.184  16.975  0.00  0.00    +0.000 C 
ATOM     12  C   UNL     1       7.784   4.584  17.592  0.00  0.00    +0.000 C 
ATOM     13  C   UNL     1       7.758   5.533  18.786  0.00  0.00    +0.000 C 
ATOM     14  C   UNL     1       8.021   6.986  18.401  0.00  0.00    +0.000 C 
ATOM     15  C   UNL     1       6.810   7.714  17.830  0.00  0.00    +0.000 C 
ATOM     16  C   UNL     1       6.520   7.355  16.375  0.00  0.00    +0.000 C 
ATOM     17  C   UNL     1       5.428   6.311  16.122  0.00  0.00    +0.000 C 
ENDBRANCH   9  10
ENDBRANCH   5   9
BRANCH   6  18
ATOM     18  O   UNL     1       2.162   5.307  18.355  0.00  0.00    +0.000 OA
BRANCH  18  19
ATOM     19  C   UNL     1       2.763   6.261  19.253  0.00  0.00    +0.000 C 
BRANCH  19  20
ATOM     20  C   UNL     1       2.159   7.642  19.161  0.00  0.00    +0.000 A 
ATOM     21  C   UNL     1       2.275   8.533  18.115  0.00  0.00    +0.000 A 
ATOM     22  S   UNL     1       1.431   9.976  18.460  0.00  0.00    +0.000 S 
ATOM     23  C   UNL     1       0.952   9.342  19.994  0.00  0.00    +0.000 A 
ATOM     24  N   UNL     1       1.412   8.129  20.244  0.00  0.00    +0.000 NA
BRANCH  23  25
ATOM     25  C   UNL     1       0.172  10.177  20.936  0.00  0.00    +0.000 A 
ATOM     26  C   UNL     1      -0.131   9.750  22.243  0.00  0.00    +0.000 A 
ATOM     27  C   UNL     1      -0.957  10.509  23.081  0.00  0.00    +0.000 A 
ATOM     28  C   UNL     1      -1.480  11.716  22.627  0.00  0.00    +0.000 A 
ATOM     29 CL   UNL     1      -2.544  12.618  23.634  0.00  0.00    +0.000 Cl
ATOM     30  C   UNL     1      -1.155  12.186  21.358  0.00  0.00    +0.000 A 
ATOM     31  C   UNL     1      -0.325  11.423  20.521  0.00  0.00    +0.000 A 
ENDBRANCH  23  25
ENDBRANCH  19  20
ENDBRANCH  18  19
ENDBRANCH   6  18
TORSDOF 7
ENDMDL
MODEL 5
REMARK VINA RESULT:      -7.9      2.063      2.459
REMARK  Name = 
REMARK  8 active torsions:
REMARK  status: ('A' for Active; 'I' for Inactive)
REMARK    1  A    between atoms: C_1  and  O_2
REMARK    2  A    between atoms: O_2  and  C_3
REMARK    3  A    between atoms: C_7  and  C_8
REMARK    4  A    between atoms: C_8  and  N_9
REMARK    5  A    between atoms: C_17  and  O_18
REMARK    6  A    between atoms: O_18  and  C_19
REMARK    7  A    between atoms: C_19  and  C_20
REMARK    8  A    between atoms: C_23  and  C_24
REMARK                            x       y       z     vdW  Elec       q    Type
REMARK                         _______ _______ _______ _____ _____    ______ ____
ROOT
ATOM      1  C   UNL     1       6.192   6.459  17.064  0.00  0.00    +0.000 A 
ATOM      2  C   UNL     1       7.161   5.751  16.335  0.00  0.00    +0.000 A 
ATOM      3  C   UNL     1       6.868   4.547  15.722  0.00  0.00    +0.000 A 
ATOM      4  C   UNL     1       5.593   4.014  15.857  0.00  0.00    +0.000 A 
ATOM      5  C   UNL     1       4.609   4.665  16.626  0.00  0.00    +0.000 A 
ATOM      6  C   UNL     1       4.895   5.914  17.238  0.00  0.00    +0.000 A 
ENDROOT
BRANCH   1   8
ATOM      7  C   UNL     1       7.899   7.986  17.630  0.00  0.00    +0.000 C 
ATOM      8  O   UNL     1       6.513   7.655  17.660  0.00  0.00    +0.000 OA
ENDBRANCH   1   8
BRANCH   5   9
ATOM      9  C   UNL     1       3.259   3.974  16.722  0.00  0.00    +0.000 C 
BRANCH   9  10
ATOM     10  N   UNL     1       2.902   3.559  18.121  0.00  0.00    +0.000 NA
ATOM     11  C   UNL     1       1.436   3.508  18.214  0.00  0.00    +0.000 C 
ATOM     12  C   UNL     1       0.734   3.297  19.562  0.00  0.00    +0.000 C 
ATOM     13  C   UNL     1       1.407   3.872  20.804  0.00  0.00    +0.000 C 
ATOM     14  C   UNL     1       2.214   2.835  21.581  0.00  0.00    +0.000 C 
ATOM     15  C   UNL     1       3.593   2.548  20.999  0.00  0.00    +0.000 C 
ATOM     16  C   UNL     1       3.554   1.638  19.775  0.00  0.00    +0.000 C 
ATOM     17  C   UNL     1       3.631   2.316  18.403  0.00  0.00    +0.000 C 
ENDBRANCH   9  10
ENDBRANCH   5   9
BRANCH   6  18
ATOM     18  O   UNL     1       3.852   6.485  17.941  0.00  0.00    +0.000 OA
BRANCH  18  19
ATOM     19  C   UNL     1       3.092   7.539  17.317  0.00  0.00    +0.000 C 
BRANCH  19  20
ATOM     20  C   UNL     1       2.320   8.389  18.297  0.00  0.00    +0.000 A 
ATOM     21  C   UNL     1       1.745   7.978  19.482  0.00  0.00    +0.000 A 
ATOM     22  S   UNL     1       0.964   9.285  20.254  0.00  0.00    +0.000 S 
ATOM     23  C   UNL     1       1.429  10.339  18.966  0.00  0.00    +0.000 A 
ATOM     24  N   UNL     1       2.113   9.745  18.004  0.00  0.00    +0.000 NA
BRANCH  23  25
ATOM     25  C   UNL     1       0.986  11.752  18.961  0.00  0.00    +0.000 A 
ATOM     26  C   UNL     1      -0.357  12.117  19.171  0.00  0.00    +0.000 A 
ATOM     27  C   UNL     1      -0.773  13.450  19.060  0.00  0.00    +0.000 A 
ATOM     28  C   UNL     1       0.155  14.439  18.749  0.00  0.00    +0.000 A 
ATOM     29 CL   UNL     1      -0.367  16.067  18.552  0.00  0.00    +0.000 Cl
ATOM     30  C   UNL     1       1.498  14.112  18.586  0.00  0.00    +0.000 A 
ATOM     31  C   UNL     1       1.912  12.776  18.701  0.00  0.00    +0.000 A 
ENDBRANCH  23  25
ENDBRANCH  19  20
ENDBRANCH  18  19
ENDBRANCH   6  18
TORSDOF 7
ENDMDL
MODEL 6
REMARK VINA RESULT:      -7.9      1.524      1.798
REMARK  Name = 
REMARK  8 active torsions:
REMARK  status: ('A' for Active; 'I' for Inactive)
REMARK    1  A    between atoms: C_1  and  O_2
REMARK    2  A    between atoms: O_2  and  C_3
REMARK    3  A    between atoms: C_7  and  C_8
REMARK    4  A    between atoms: C_8  and  N_9
REMARK    5  A    between atoms: C_17  and  O_18
REMARK    6  A    between atoms: O_18  and  C_19
REMARK    7  A    between atoms: C_19  and  C_20
REMARK    8  A    between atoms: C_23  and  C_24
REMARK                            x       y       z     vdW  Elec       q    Type
REMARK                         _______ _______ _______ _____ _____    ______ ____
ROOT
ATOM      1  C   UNL     1       6.477   6.000  17.319  0.00  0.00    +0.000 A 
ATOM      2  C   UNL     1       7.286   5.362  16.364  0.00  0.00    +0.000 A 
ATOM      3  C   UNL     1       6.790   4.367  15.544  0.00  0.00    +0.000 A 
ATOM      4  C   UNL     1       5.467   3.970  15.688  0.00  0.00    +0.000 A 
ATOM      5  C   UNL     1       4.637   4.545  16.671  0.00  0.00    +0.000 A 
ATOM      6  C   UNL     1       5.133   5.585  17.501  0.00  0.00    +0.000 A 
ENDROOT
BRANCH   1   8
ATOM      7  C   UNL     1       7.612   8.065  17.417  0.00  0.00    +0.000 C 
ATOM      8  O   UNL     1       6.999   6.987  18.118  0.00  0.00    +0.000 OA
ENDBRANCH   1   8
BRANCH   5   9
ATOM      9  C   UNL     1       3.216   4.013  16.752  0.00  0.00    +0.000 C 
BRANCH   9  10
ATOM     10  N   UNL     1       2.841   3.531  18.124  0.00  0.00    +0.000 NA
ATOM     11  C   UNL     1       1.397   3.251  18.121  0.00  0.00    +0.000 C 
ATOM     12  C   UNL     1       0.653   2.917  19.420  0.00  0.00    +0.000 C 
ATOM     13  C   UNL     1       1.147   3.573  20.705  0.00  0.00    +0.000 C 
ATOM     14  C   UNL     1       2.054   2.664  21.529  0.00  0.00    +0.000 C 
ATOM     15  C   UNL     1       3.496   2.602  21.038  0.00  0.00    +0.000 C 
ATOM     16  C   UNL     1       3.678   1.713  19.811  0.00  0.00    +0.000 C 
ATOM     17  C   UNL     1       3.734   2.412  18.449  0.00  0.00    +0.000 C 
ENDBRANCH   9  10
ENDBRANCH   5   9
BRANCH   6  18
ATOM     18  O   UNL     1       4.230   6.104  18.408  0.00  0.00    +0.000 OA
BRANCH  18  19
ATOM     19  C   UNL     1       3.319   7.131  17.968  0.00  0.00    +0.000 C 
BRANCH  19  20
ATOM     20  C   UNL     1       2.413   7.644  19.060  0.00  0.00    +0.000 A 
ATOM     21  C   UNL     1       2.075   7.000  20.232  0.00  0.00    +0.000 A 
ATOM     22  S   UNL     1       1.012   7.961  21.160  0.00  0.00    +0.000 S 
ATOM     23  C   UNL     1       1.053   9.194  19.949  0.00  0.00    +0.000 A 
ATOM     24  N   UNL     1       1.802   8.897  18.902  0.00  0.00    +0.000 NA
BRANCH  23  25
ATOM     25  C   UNL     1       0.222  10.411  20.095  0.00  0.00    +0.000 A 
ATOM     26  C   UNL     1      -0.825  10.716  19.205  0.00  0.00    +0.000 A 
ATOM     27  C   UNL     1      -1.531  11.922  19.299  0.00  0.00    +0.000 A 
ATOM     28  C   UNL     1      -1.206  12.835  20.297  0.00  0.00    +0.000 A 
ATOM     29 CL   UNL     1      -2.031  14.343  20.376  0.00  0.00    +0.000 Cl
ATOM     30  C   UNL     1      -0.209  12.537  21.222  0.00  0.00    +0.000 A 
ATOM     31  C   UNL     1       0.495  11.326  21.126  0.00  0.00    +0.000 A 
ENDBRANCH  23  25
ENDBRANCH  19  20
ENDBRANCH  18  19
ENDBRANCH   6  18
TORSDOF 7
ENDMDL
MODEL 7
REMARK VINA RESULT:      -7.7      0.998      1.413
REMARK  Name = 
REMARK  8 active torsions:
REMARK  status: ('A' for Active; 'I' for Inactive)
REMARK    1  A    between atoms: C_1  and  O_2
REMARK    2  A    between atoms: O_2  and  C_3
REMARK    3  A    between atoms: C_7  and  C_8
REMARK    4  A    between atoms: C_8  and  N_9
REMARK    5  A    between atoms: C_17  and  O_18
REMARK    6  A    between atoms: O_18  and  C_19
REMARK    7  A    between atoms: C_19  and  C_20
REMARK    8  A    between atoms: C_23  and  C_24
REMARK                            x       y       z     vdW  Elec       q    Type
REMARK                         _______ _______ _______ _____ _____    ______ ____
ROOT
ATOM      1  C   UNL     1       6.322   6.707  17.182  0.00  0.00    +0.000 A 
ATOM      2  C   UNL     1       7.497   5.960  17.368  0.00  0.00    +0.000 A 
ATOM      3  C   UNL     1       7.487   4.578  17.334  0.00  0.00    +0.000 A 
ATOM      4  C   UNL     1       6.282   3.916  17.140  0.00  0.00    +0.000 A 
ATOM      5  C   UNL     1       5.074   4.627  17.005  0.00  0.00    +0.000 A 
ATOM      6  C   UNL     1       5.079   6.047  17.014  0.00  0.00    +0.000 A 
ENDROOT
BRANCH   1   8
ATOM      7  C   UNL     1       7.605   8.630  17.653  0.00  0.00    +0.000 C 
ATOM      8  O   UNL     1       6.364   8.080  17.219  0.00  0.00    +0.000 OA
ENDBRANCH   1   8
BRANCH   5   9
ATOM      9  C   UNL     1       3.816   3.794  16.823  0.00  0.00    +0.000 C 
BRANCH   9  10
ATOM     10  N   UNL     1       3.128   3.466  18.117  0.00  0.00    +0.000 NA
ATOM     11  C   UNL     1       1.962   2.626  17.806  0.00  0.00    +0.000 C 
ATOM     12  C   UNL     1       0.934   2.267  18.885  0.00  0.00    +0.000 C 
ATOM     13  C   UNL     1       0.672   3.296  19.980  0.00  0.00    +0.000 C 
ATOM     14  C   UNL     1       1.442   3.009  21.266  0.00  0.00    +0.000 C 
ATOM     15  C   UNL     1       2.901   3.451  21.237  0.00  0.00    +0.000 C 
ATOM     16  C   UNL     1       3.803   2.501  20.455  0.00  0.00    +0.000 C 
ATOM     17  C   UNL     1       4.141   2.893  19.013  0.00  0.00    +0.000 C 
ENDBRANCH   9  10
ENDBRANCH   5   9
BRANCH   6  18
ATOM     18  O   UNL     1       3.848   6.647  16.840  0.00  0.00    +0.000 OA
BRANCH  18  19
ATOM     19  C   UNL     1       3.581   7.889  17.522  0.00  0.00    +0.000 C 
BRANCH  19  20
ATOM     20  C   UNL     1       2.719   7.732  18.751  0.00  0.00    +0.000 A 
ATOM     21  C   UNL     1       2.536   6.587  19.498  0.00  0.00    +0.000 A 
ATOM     22  S   UNL     1       1.463   6.881  20.793  0.00  0.00    +0.000 S 
ATOM     23  C   UNL     1       1.291   8.526  20.292  0.00  0.00    +0.000 A 
ATOM     24  N   UNL     1       1.981   8.834  19.208  0.00  0.00    +0.000 NA
BRANCH  23  25
ATOM     25  C   UNL     1       0.363   9.431  21.007  0.00  0.00    +0.000 A 
ATOM     26  C   UNL     1      -0.213  10.556  20.388  0.00  0.00    +0.000 A 
ATOM     27  C   UNL     1      -1.006  11.456  21.111  0.00  0.00    +0.000 A 
ATOM     28  C   UNL     1      -1.245  11.234  22.464  0.00  0.00    +0.000 A 
ATOM     29 CL   UNL     1      -2.167  12.372  23.366  0.00  0.00    +0.000 Cl
ATOM     30  C   UNL     1      -0.729  10.102  23.089  0.00  0.00    +0.000 A 
ATOM     31  C   UNL     1       0.064   9.201  22.360  0.00  0.00    +0.000 A 
ENDBRANCH  23  25
ENDBRANCH  19  20
ENDBRANCH  18  19
ENDBRANCH   6  18
TORSDOF 7
ENDMDL
MODEL 8
REMARK VINA RESULT:      -7.6      2.970      5.099
REMARK  Name = 
REMARK  8 active torsions:
REMARK  status: ('A' for Active; 'I' for Inactive)
REMARK    1  A    between atoms: C_1  and  O_2
REMARK    2  A    between atoms: O_2  and  C_3
REMARK    3  A    between atoms: C_7  and  C_8
REMARK    4  A    between atoms: C_8  and  N_9
REMARK    5  A    between atoms: C_17  and  O_18
REMARK    6  A    between atoms: O_18  and  C_19
REMARK    7  A    between atoms: C_19  and  C_20
REMARK    8  A    between atoms: C_23  and  C_24
REMARK                            x       y       z     vdW  Elec       q    Type
REMARK                         _______ _______ _______ _____ _____    ______ ____
ROOT
ATOM      1  C   UNL     1       1.245   9.793  18.657  0.00  0.00    +0.000 A 
ATOM      2  C   UNL     1       2.119   9.564  17.582  0.00  0.00    +0.000 A 
ATOM      3  C   UNL     1       2.831   8.384  17.468  0.00  0.00    +0.000 A 
ATOM      4  C   UNL     1       2.699   7.418  18.456  0.00  0.00    +0.000 A 
ATOM      5  C   UNL     1       1.876   7.631  19.578  0.00  0.00    +0.000 A 
ATOM      6  C   UNL     1       1.123   8.830  19.690  0.00  0.00    +0.000 A 
ENDROOT
BRANCH   1   8
ATOM      7  C   UNL     1      -0.809  10.902  18.317  0.00  0.00    +0.000 C 
ATOM      8  O   UNL     1       0.550  10.974  18.742  0.00  0.00    +0.000 OA
ENDBRANCH   1   8
BRANCH   5   9
ATOM      9  C   UNL     1       1.830   6.513  20.606  0.00  0.00    +0.000 C 
BRANCH   9  10
ATOM     10  N   UNL     1       2.038   5.150  20.010  0.00  0.00    +0.000 NA
ATOM     11  C   UNL     1       3.448   4.783  20.210  0.00  0.00    +0.000 C 
ATOM     12  C   UNL     1       4.041   3.529  19.555  0.00  0.00    +0.000 C 
ATOM     13  C   UNL     1       3.488   3.115  18.195  0.00  0.00    +0.000 C 
ATOM     14  C   UNL     1       2.437   2.012  18.289  0.00  0.00    +0.000 C 
ATOM     15  C   UNL     1       1.046   2.500  18.677  0.00  0.00    +0.000 C 
ATOM     16  C   UNL     1       0.904   2.796  20.167  0.00  0.00    +0.000 C 
ATOM     17  C   UNL     1       1.030   4.260  20.599  0.00  0.00    +0.000 C 
ENDBRANCH   9  10
ENDBRANCH   5   9
BRANCH   6  18
ATOM     18  O   UNL     1       0.322   8.926  20.812  0.00  0.00    +0.000 OA
BRANCH  18  19
ATOM     19  C   UNL     1       0.716   9.824  21.868  0.00  0.00    +0.000 C 
BRANCH  19  20
ATOM     20  C   UNL     1      -0.135  11.068  21.954  0.00  0.00    +0.000 A 
ATOM     21  C   UNL     1       0.247  12.360  21.661  0.00  0.00    +0.000 A 
ATOM     22  S   UNL     1      -1.049  13.442  21.915  0.00  0.00    +0.000 S 
ATOM     23  C   UNL     1      -2.061  12.130  22.406  0.00  0.00    +0.000 A 
ATOM     24  N   UNL     1      -1.460  10.953  22.400  0.00  0.00    +0.000 NA
BRANCH  23  25
ATOM     25  C   UNL     1      -3.444  12.388  22.870  0.00  0.00    +0.000 A 
ATOM     26  C   UNL     1      -4.462  12.809  21.994  0.00  0.00    +0.000 A 
ATOM     27  C   UNL     1      -5.735  13.147  22.471  0.00  0.00    +0.000 A 
ATOM     28  C   UNL     1      -6.011  13.054  23.831  0.00  0.00    +0.000 A 
ATOM     29 CL   UNL     1      -7.555  13.527  24.424  0.00  0.00    +0.000 Cl
ATOM     30  C   UNL     1      -5.037  12.591  24.712  0.00  0.00    +0.000 A 
ATOM     31  C   UNL     1      -3.763  12.252  24.231  0.00  0.00    +0.000 A 
ENDBRANCH  23  25
ENDBRANCH  19  20
ENDBRANCH  18  19
ENDBRANCH   6  18
TORSDOF 7
ENDMDL
MODEL 9
REMARK VINA RESULT:      -7.6      1.962      2.322
REMARK  Name = 
REMARK  8 active torsions:
REMARK  status: ('A' for Active; 'I' for Inactive)
REMARK    1  A    between atoms: C_1  and  O_2
REMARK    2  A    between atoms: O_2  and  C_3
REMARK    3  A    between atoms: C_7  and  C_8
REMARK    4  A    between atoms: C_8  and  N_9
REMARK    5  A    between atoms: C_17  and  O_18
REMARK    6  A    between atoms: O_18  and  C_19
REMARK    7  A    between atoms: C_19  and  C_20
REMARK    8  A    between atoms: C_23  and  C_24
REMARK                            x       y       z     vdW  Elec       q    Type
REMARK                         _______ _______ _______ _____ _____    ______ ____
ROOT
ATOM      1  C   UNL     1       5.923   6.299  16.685  0.00  0.00    +0.000 A 
ATOM      2  C   UNL     1       6.910   5.513  16.068  0.00  0.00    +0.000 A 
ATOM      3  C   UNL     1       6.642   4.230  15.628  0.00  0.00    +0.000 A 
ATOM      4  C   UNL     1       5.375   3.699  15.827  0.00  0.00    +0.000 A 
ATOM      5  C   UNL     1       4.373   4.434  16.491  0.00  0.00    +0.000 A 
ATOM      6  C   UNL     1       4.633   5.761  16.924  0.00  0.00    +0.000 A 
ENDROOT
BRANCH   1   8
ATOM      7  C   UNL     1       7.562   7.759  17.550  0.00  0.00    +0.000 C 
ATOM      8  O   UNL     1       6.219   7.571  17.110  0.00  0.00    +0.000 OA
ENDBRANCH   1   8
BRANCH   5   9
ATOM      9  C   UNL     1       3.034   3.740  16.673  0.00  0.00    +0.000 C 
BRANCH   9  10
ATOM     10  N   UNL     1       2.767   3.328  18.092  0.00  0.00    +0.000 NA
ATOM     11  C   UNL     1       1.343   2.979  18.199  0.00  0.00    +0.000 C 
ATOM     12  C   UNL     1       0.696   2.693  19.559  0.00  0.00    +0.000 C 
ATOM     13  C   UNL     1       1.232   3.453  20.769  0.00  0.00    +0.000 C 
ATOM     14  C   UNL     1       2.233   2.643  21.587  0.00  0.00    +0.000 C 
ATOM     15  C   UNL     1       3.644   2.619  21.010  0.00  0.00    +0.000 C 
ATOM     16  C   UNL     1       3.798   1.663  19.831  0.00  0.00    +0.000 C 
ATOM     17  C   UNL     1       3.736   2.276  18.428  0.00  0.00    +0.000 C 
ENDBRANCH   9  10
ENDBRANCH   5   9
BRANCH   6  18
ATOM     18  O   UNL     1       3.575   6.406  17.533  0.00  0.00    +0.000 OA
BRANCH  18  19
ATOM     19  C   UNL     1       3.382   6.230  18.951  0.00  0.00    +0.000 C 
BRANCH  19  20
ATOM     20  C   UNL     1       2.423   7.226  19.559  0.00  0.00    +0.000 A 
ATOM     21  C   UNL     1       1.632   7.046  20.674  0.00  0.00    +0.000 A 
ATOM     22  S   UNL     1       0.702   8.444  20.981  0.00  0.00    +0.000 S 
ATOM     23  C   UNL     1       1.401   9.224  19.607  0.00  0.00    +0.000 A 
ATOM     24  N   UNL     1       2.265   8.477  18.944  0.00  0.00    +0.000 NA
BRANCH  23  25
ATOM     25  C   UNL     1       0.953  10.580  19.211  0.00  0.00    +0.000 A 
ATOM     26  C   UNL     1       1.850  11.558  18.743  0.00  0.00    +0.000 A 
ATOM     27  C   UNL     1       1.423  12.864  18.472  0.00  0.00    +0.000 A 
ATOM     28  C   UNL     1       0.087  13.205  18.654  0.00  0.00    +0.000 A 
ATOM     29 CL   UNL     1      -0.426  14.825  18.381  0.00  0.00    +0.000 Cl
ATOM     30  C   UNL     1      -0.831  12.244  19.067  0.00  0.00    +0.000 A 
ATOM     31  C   UNL     1      -0.400  10.935  19.336  0.00  0.00    +0.000 A 
ENDBRANCH  23  25
ENDBRANCH  19  20
ENDBRANCH  18  19
ENDBRANCH   6  18
TORSDOF 7
ENDMDL
