MODEL 1
REMARK VINA RESULT:      -8.1      0.000      0.000
REMARK  Name = 
REMARK  4 active torsions:
REMARK  status: ('A' for Active; 'I' for Inactive)
REMARK    1  A    between atoms: C_1  and  C_2
REMARK    2  A    between atoms: C_2  and  C_3
REMARK    3  A    between atoms: C_4  and  C_5
REMARK    4  A    between atoms: C_8  and  N_9
REMARK                            x       y       z     vdW  Elec       q    Type
REMARK                         _______ _______ _______ _____ _____    ______ ____
ROOT
ATOM      1  C   UNL     1       3.099   5.658  17.722  0.00  0.00    +0.000 A 
ATOM      2  C   UNL     1       3.334   6.969  17.980  0.00  0.00    +0.000 A 
ATOM      3  N   UNL     1       4.547   7.542  17.671  0.00  0.00    +0.000 N 
ATOM      4  C   UNL     1       5.602   6.886  17.083  0.00  0.00    +0.000 A 
ATOM      5  O   UNL     1       6.632   7.478  16.786  0.00  0.00    +0.000 OA
ATOM      6  C   UNL     1       5.389   5.450  16.864  0.00  0.00    +0.000 A 
ATOM      7  C   UNL     1       6.351   4.464  16.341  0.00  0.00    +0.000 A 
ATOM      8  O   UNL     1       7.482   4.691  15.944  0.00  0.00    +0.000 OA
ATOM      9  N   UNL     1       5.779   3.214  16.359  0.00  0.00    +0.000 N 
ATOM     10  S   UNL     1       4.188   3.165  16.915  0.00  0.00    +0.000 S 
ATOM     11  C   UNL     1       4.212   4.883  17.177  0.00  0.00    +0.000 A 
ATOM     12  H   UNL     1       4.688   8.533  17.842  0.00  0.00    +0.000 HD
ATOM     13  H   UNL     1       6.292   2.408  16.026  0.00  0.00    +0.000 HD
ENDROOT
BRANCH   2  14
ATOM     14  C   UNL     1       2.342   7.862  18.588  0.00  0.00    +0.000 A 
ATOM     15  C   UNL     1       1.695   8.828  17.811  0.00  0.00    +0.000 A 
ATOM     16  C   UNL     1       0.798   9.727  18.401  0.00  0.00    +0.000 A 
ATOM     17  C   UNL     1       0.527   9.694  19.774  0.00  0.00    +0.000 A 
ATOM     18  C   UNL     1       1.147   8.675  20.518  0.00  0.00    +0.000 A 
ATOM     19  C   UNL     1       2.042   7.770  19.943  0.00  0.00    +0.000 A 
BRANCH  17  20
ATOM     20  N   UNL     1      -0.324  10.585  20.390  0.00  0.00    +0.000 N 
ATOM     21  C   UNL     1      -0.546  10.645  21.840  0.00  0.00    +0.000 C 
ATOM     22  C   UNL     1      -0.609  12.134  22.275  0.00  0.00    +0.000 C 
ATOM     23  N   UNL     1      -1.572  12.960  21.510  0.00  0.00    +0.000 NA
ATOM     24  C   UNL     1      -1.332  12.794  20.062  0.00  0.00    +0.000 C 
ATOM     25  C   UNL     1      -1.340  11.318  19.618  0.00  0.00    +0.000 C 
ATOM     26  H   UNL     1      -1.430  13.939  21.754  0.00  0.00    +0.000 HD
ENDBRANCH  17  20
ENDBRANCH   2  14
BRANCH   1  28
ATOM     27  C   UNL     1       1.598   4.245  19.216  0.00  0.00    +0.000 C 
ATOM     28  C   UNL     1       1.743   5.000  17.903  0.00  0.00    +0.000 C 
ENDBRANCH   1  28
TORSDOF 3
ENDMDL
MODEL 2
REMARK VINA RESULT:      -7.7      0.624      1.147
REMARK  Name = 
REMARK  4 active torsions:
REMARK  status: ('A' for Active; 'I' for Inactive)
REMARK    1  A    between atoms: C_1  and  C_2
REMARK    2  A    between atoms: C_2  and  C_3
REMARK    3  A    between atoms: C_4  and  C_5
REMARK    4  A    between atoms: C_8  and  N_9
REMARK                            x       y       z     vdW  Elec       q    Type
REMARK                         _______ _______ _______ _____ _____    ______ ____
ROOT
ATOM      1  C   UNL     1       2.732   5.543  18.149  0.00  0.00    +0.000 A 
ATOM      2  C   UNL     1       3.005   6.869  18.073  0.00  0.00    +0.000 A 
ATOM      3  N   UNL     1       4.102   7.325  17.377  0.00  0.00    +0.000 N 
ATOM      4  C   UNL     1       4.994   6.527  16.700  0.00  0.00    +0.000 A 
ATOM      5  O   UNL     1       5.915   7.010  16.055  0.00  0.00    +0.000 OA
ATOM      6  C   UNL     1       4.752   5.085  16.833  0.00  0.00    +0.000 A 
ATOM      7  C   UNL     1       5.573   3.980  16.306  0.00  0.00    +0.000 A 
ATOM      8  O   UNL     1       6.574   4.082  15.615  0.00  0.00    +0.000 OA
ATOM      9  N   UNL     1       5.038   2.780  16.711  0.00  0.00    +0.000 N 
ATOM     10  S   UNL     1       3.627   2.901  17.626  0.00  0.00    +0.000 S 
ATOM     11  C   UNL     1       3.692   4.635  17.523  0.00  0.00    +0.000 A 
ATOM     12  H   UNL     1       4.268   8.323  17.306  0.00  0.00    +0.000 HD
ATOM     13  H   UNL     1       5.466   1.906  16.435  0.00  0.00    +0.000 HD
ENDROOT
BRANCH   2  14
ATOM     14  C   UNL     1       2.177   7.900  18.707  0.00  0.00    +0.000 A 
ATOM     15  C   UNL     1       1.960   7.877  20.088  0.00  0.00    +0.000 A 
ATOM     16  C   UNL     1       1.114   8.819  20.688  0.00  0.00    +0.000 A 
ATOM     17  C   UNL     1       0.461   9.800  19.933  0.00  0.00    +0.000 A 
ATOM     18  C   UNL     1       0.746   9.835  18.558  0.00  0.00    +0.000 A 
ATOM     19  C   UNL     1       1.588   8.903  17.945  0.00  0.00    +0.000 A 
BRANCH  17  20
ATOM     20  N   UNL     1      -0.401  10.719  20.488  0.00  0.00    +0.000 N 
ATOM     21  C   UNL     1      -0.654  10.848  21.929  0.00  0.00    +0.000 C 
ATOM     22  C   UNL     1      -0.725  12.356  22.292  0.00  0.00    +0.000 C 
ATOM     23  N   UNL     1      -1.670  13.144  21.469  0.00  0.00    +0.000 NA
ATOM     24  C   UNL     1      -1.400  12.911  20.035  0.00  0.00    +0.000 C 
ATOM     25  C   UNL     1      -1.400  11.416  19.661  0.00  0.00    +0.000 C 
ATOM     26  H   UNL     1      -1.532  14.133  21.670  0.00  0.00    +0.000 HD
ENDBRANCH  17  20
ENDBRANCH   2  14
BRANCH   1  28
ATOM     27  C   UNL     1       1.663   4.459  20.190  0.00  0.00    +0.000 C 
ATOM     28  C   UNL     1       1.467   4.984  18.775  0.00  0.00    +0.000 C 
ENDBRANCH   1  28
TORSDOF 3
ENDMDL
MODEL 3
REMARK VINA RESULT:      -7.7      0.734      1.219
REMARK  Name = 
REMARK  4 active torsions:
REMARK  status: ('A' for Active; 'I' for Inactive)
REMARK    1  A    between atoms: C_1  and  C_2
REMARK    2  A    between atoms: C_2  and  C_3
REMARK    3  A    between atoms: C_4  and  C_5
REMARK    4  A    between atoms: C_8  and  N_9
REMARK                            x       y       z     vdW  Elec       q    Type
REMARK                         _______ _______ _______ _____ _____    ______ ____
ROOT
ATOM      1  C   UNL     1       2.711   5.578  18.147  0.00  0.00    +0.000 A 
ATOM      2  C   UNL     1       2.967   6.909  18.084  0.00  0.00    +0.000 A 
ATOM      3  N   UNL     1       4.078   7.383  17.423  0.00  0.00    +0.000 N 
ATOM      4  C   UNL     1       5.001   6.601  16.771  0.00  0.00    +0.000 A 
ATOM      5  O   UNL     1       5.935   7.100  16.156  0.00  0.00    +0.000 OA
ATOM      6  C   UNL     1       4.778   5.155  16.892  0.00  0.00    +0.000 A 
ATOM      7  C   UNL     1       5.631   4.064  16.388  0.00  0.00    +0.000 A 
ATOM      8  O   UNL     1       6.650   4.184  15.728  0.00  0.00    +0.000 OA
ATOM      9  N   UNL     1       5.101   2.855  16.773  0.00  0.00    +0.000 N 
ATOM     10  S   UNL     1       3.662   2.952  17.644  0.00  0.00    +0.000 S 
ATOM     11  C   UNL     1       3.703   4.687  17.549  0.00  0.00    +0.000 A 
ATOM     12  H   UNL     1       4.230   8.384  17.360  0.00  0.00    +0.000 HD
ATOM     13  H   UNL     1       5.551   1.988  16.508  0.00  0.00    +0.000 HD
ENDROOT
BRANCH   2  14
ATOM     14  C   UNL     1       2.104   7.926  18.694  0.00  0.00    +0.000 A 
ATOM     15  C   UNL     1       1.519   8.919  17.903  0.00  0.00    +0.000 A 
ATOM     16  C   UNL     1       0.751   9.932  18.490  0.00  0.00    +0.000 A 
ATOM     17  C   UNL     1       0.550   9.987  19.874  0.00  0.00    +0.000 A 
ATOM     18  C   UNL     1       1.101   8.943  20.637  0.00  0.00    +0.000 A 
ATOM     19  C   UNL     1       1.868   7.925  20.065  0.00  0.00    +0.000 A 
BRANCH  17  20
ATOM     20  N   UNL     1      -0.172  10.988  20.486  0.00  0.00    +0.000 N 
ATOM     21  C   UNL     1      -0.866  12.062  19.765  0.00  0.00    +0.000 C 
ATOM     22  C   UNL     1      -2.246  12.304  20.435  0.00  0.00    +0.000 C 
ATOM     23  N   UNL     1      -2.189  12.535  21.896  0.00  0.00    +0.000 NA
ATOM     24  C   UNL     1      -1.418  11.454  22.544  0.00  0.00    +0.000 C 
ATOM     25  C   UNL     1      -0.020  11.261  21.924  0.00  0.00    +0.000 C 
ATOM     26  H   UNL     1      -3.138  12.525  22.267  0.00  0.00    +0.000 HD
ENDBRANCH  17  20
ENDBRANCH   2  14
BRANCH   1  28
ATOM     27  C   UNL     1       1.591   4.493  20.159  0.00  0.00    +0.000 C 
ATOM     28  C   UNL     1       1.436   4.998  18.732  0.00  0.00    +0.000 C 
ENDBRANCH   1  28
TORSDOF 3
ENDMDL
MODEL 4
REMARK VINA RESULT:      -7.5      3.972      8.622
REMARK  Name = 
REMARK  4 active torsions:
REMARK  status: ('A' for Active; 'I' for Inactive)
REMARK    1  A    between atoms: C_1  and  C_2
REMARK    2  A    between atoms: C_2  and  C_3
REMARK    3  A    between atoms: C_4  and  C_5
REMARK    4  A    between atoms: C_8  and  N_9
REMARK                            x       y       z     vdW  Elec       q    Type
REMARK                         _______ _______ _______ _____ _____    ______ ____
ROOT
ATOM      1  C   UNL     1       0.372   9.974  19.638  0.00  0.00    +0.000 A 
ATOM      2  C   UNL     1       1.063   9.025  20.317  0.00  0.00    +0.000 A 
ATOM      3  N   UNL     1       1.034   8.982  21.693  0.00  0.00    +0.000 N 
ATOM      4  C   UNL     1       0.326   9.844  22.495  0.00  0.00    +0.000 A 
ATOM      5  O   UNL     1       0.304   9.708  23.711  0.00  0.00    +0.000 OA
ATOM      6  C   UNL     1      -0.369  10.921  21.778  0.00  0.00    +0.000 A 
ATOM      7  C   UNL     1      -1.132  12.043  22.353  0.00  0.00    +0.000 A 
ATOM      8  O   UNL     1      -1.363  12.235  23.535  0.00  0.00    +0.000 OA
ATOM      9  N   UNL     1      -1.563  12.868  21.341  0.00  0.00    +0.000 N 
ATOM     10  S   UNL     1      -1.150  12.365  19.786  0.00  0.00    +0.000 S 
ATOM     11  C   UNL     1      -0.332  10.976  20.436  0.00  0.00    +0.000 A 
ATOM     12  H   UNL     1       1.532   8.242  22.178  0.00  0.00    +0.000 HD
ATOM     13  H   UNL     1      -2.113  13.691  21.547  0.00  0.00    +0.000 HD
ENDROOT
BRANCH   2  14
ATOM     14  C   UNL     1       1.873   7.994  19.662  0.00  0.00    +0.000 A 
ATOM     15  C   UNL     1       2.051   6.747  20.271  0.00  0.00    +0.000 A 
ATOM     16  C   UNL     1       2.879   5.783  19.682  0.00  0.00    +0.000 A 
ATOM     17  C   UNL     1       3.554   6.034  18.482  0.00  0.00    +0.000 A 
ATOM     18  C   UNL     1       3.309   7.272  17.864  0.00  0.00    +0.000 A 
ATOM     19  C   UNL     1       2.485   8.243  18.438  0.00  0.00    +0.000 A 
BRANCH  17  20
ATOM     20  N   UNL     1       4.401   5.120  17.896  0.00  0.00    +0.000 N 
ATOM     21  C   UNL     1       4.019   4.234  16.788  0.00  0.00    +0.000 C 
ATOM     22  C   UNL     1       5.192   4.169  15.772  0.00  0.00    +0.000 C 
ATOM     23  N   UNL     1       6.502   3.817  16.366  0.00  0.00    +0.000 NA
ATOM     24  C   UNL     1       6.785   4.702  17.515  0.00  0.00    +0.000 C 
ATOM     25  C   UNL     1       5.650   4.712  18.557  0.00  0.00    +0.000 C 
ATOM     26  H   UNL     1       7.227   3.953  15.664  0.00  0.00    +0.000 HD
ENDBRANCH  17  20
ENDBRANCH   2  14
BRANCH   1  28
ATOM     27  C   UNL     1      -1.165   9.710  17.625  0.00  0.00    +0.000 C 
ATOM     28  C   UNL     1       0.243   9.993  18.125  0.00  0.00    +0.000 C 
ENDBRANCH   1  28
TORSDOF 3
ENDMDL
MODEL 5
REMARK VINA RESULT:      -7.5      0.976      1.703
REMARK  Name = 
REMARK  4 active torsions:
REMARK  status: ('A' for Active; 'I' for Inactive)
REMARK    1  A    between atoms: C_1  and  C_2
REMARK    2  A    between atoms: C_2  and  C_3
REMARK    3  A    between atoms: C_4  and  C_5
REMARK    4  A    between atoms: C_8  and  N_9
REMARK                            x       y       z     vdW  Elec       q    Type
REMARK                         _______ _______ _______ _____ _____    ______ ____
ROOT
ATOM      1  C   UNL     1       2.571   5.627  18.435  0.00  0.00    +0.000 A 
ATOM      2  C   UNL     1       2.858   6.934  18.210  0.00  0.00    +0.000 A 
ATOM      3  N   UNL     1       3.901   7.297  17.388  0.00  0.00    +0.000 N 
ATOM      4  C   UNL     1       4.723   6.418  16.724  0.00  0.00    +0.000 A 
ATOM      5  O   UNL     1       5.597   6.817  15.965  0.00  0.00    +0.000 OA
ATOM      6  C   UNL     1       4.473   5.001  17.014  0.00  0.00    +0.000 A 
ATOM      7  C   UNL     1       5.232   3.833  16.534  0.00  0.00    +0.000 A 
ATOM      8  O   UNL     1       6.175   3.847  15.759  0.00  0.00    +0.000 OA
ATOM      9  N   UNL     1       4.714   2.690  17.094  0.00  0.00    +0.000 N 
ATOM     10  S   UNL     1       3.383   2.928  18.101  0.00  0.00    +0.000 S 
ATOM     11  C   UNL     1       3.465   4.643  17.826  0.00  0.00    +0.000 A 
ATOM     12  H   UNL     1       4.075   8.280  17.208  0.00  0.00    +0.000 HD
ATOM     13  H   UNL     1       5.106   1.784  16.871  0.00  0.00    +0.000 HD
ENDROOT
BRANCH   2  14
ATOM     14  C   UNL     1       2.098   8.039  18.804  0.00  0.00    +0.000 A 
ATOM     15  C   UNL     1       1.841   8.057  20.178  0.00  0.00    +0.000 A 
ATOM     16  C   UNL     1       1.058   9.074  20.740  0.00  0.00    +0.000 A 
ATOM     17  C   UNL     1       0.508  10.092  19.952  0.00  0.00    +0.000 A 
ATOM     18  C   UNL     1       0.833  10.080  18.585  0.00  0.00    +0.000 A 
ATOM     19  C   UNL     1       1.614   9.074  18.011  0.00  0.00    +0.000 A 
BRANCH  17  20
ATOM     20  N   UNL     1      -0.292  11.086  20.468  0.00  0.00    +0.000 N 
ATOM     21  C   UNL     1      -1.029  12.059  19.651  0.00  0.00    +0.000 C 
ATOM     22  C   UNL     1      -2.441  12.261  20.266  0.00  0.00    +0.000 C 
ATOM     23  N   UNL     1      -2.442  12.601  21.707  0.00  0.00    +0.000 NA
ATOM     24  C   UNL     1      -1.626  11.621  22.454  0.00  0.00    +0.000 C 
ATOM     25  C   UNL     1      -0.200  11.473  21.885  0.00  0.00    +0.000 C 
ATOM     26  H   UNL     1      -3.399  12.558  22.053  0.00  0.00    +0.000 HD
ENDBRANCH  17  20
ENDBRANCH   2  14
BRANCH   1  28
ATOM     27  C   UNL     1       1.667   4.696  20.625  0.00  0.00    +0.000 C 
ATOM     28  C   UNL     1       1.354   5.159  19.210  0.00  0.00    +0.000 C 
ENDBRANCH   1  28
TORSDOF 3
ENDMDL
MODEL 6
REMARK VINA RESULT:      -7.4      1.351      1.745
REMARK  Name = 
REMARK  4 active torsions:
REMARK  status: ('A' for Active; 'I' for Inactive)
REMARK    1  A    between atoms: C_1  and  C_2
REMARK    2  A    between atoms: C_2  and  C_3
REMARK    3  A    between atoms: C_4  and  C_5
REMARK    4  A    between atoms: C_8  and  N_9
REMARK                            x       y       z     vdW  Elec       q    Type
REMARK                         _______ _______ _______ _____ _____    ______ ____
ROOT
ATOM      1  C   UNL     1       2.922   6.102  19.317  0.00  0.00    +0.000 A 
ATOM      2  C   UNL     1       2.782   7.275  18.650  0.00  0.00    +0.000 A 
ATOM      3  N   UNL     1       3.574   7.567  17.562  0.00  0.00    +0.000 N 
ATOM      4  C   UNL     1       4.540   6.737  17.045  0.00  0.00    +0.000 A 
ATOM      5  O   UNL     1       5.167   7.042  16.039  0.00  0.00    +0.000 OA
ATOM      6  C   UNL     1       4.754   5.496  17.800  0.00  0.00    +0.000 A 
ATOM      7  C   UNL     1       5.767   4.453  17.555  0.00  0.00    +0.000 A 
ATOM      8  O   UNL     1       6.571   4.422  16.639  0.00  0.00    +0.000 OA
ATOM      9  N   UNL     1       5.675   3.490  18.532  0.00  0.00    +0.000 N 
ATOM     10  S   UNL     1       4.454   3.738  19.667  0.00  0.00    +0.000 S 
ATOM     11  C   UNL     1       3.993   5.213  18.870  0.00  0.00    +0.000 A 
ATOM     12  H   UNL     1       3.428   8.435  17.058  0.00  0.00    +0.000 HD
ATOM     13  H   UNL     1       6.290   2.687  18.522  0.00  0.00    +0.000 HD
ENDROOT
BRANCH   2  14
ATOM     14  C   UNL     1       1.801   8.300  19.019  0.00  0.00    +0.000 A 
ATOM     15  C   UNL     1       1.205   9.091  18.032  0.00  0.00    +0.000 A 
ATOM     16  C   UNL     1       0.319  10.117  18.384  0.00  0.00    +0.000 A 
ATOM     17  C   UNL     1       0.008  10.386  19.722  0.00  0.00    +0.000 A 
ATOM     18  C   UNL     1       0.576   9.537  20.688  0.00  0.00    +0.000 A 
ATOM     19  C   UNL     1       1.460   8.509  20.351  0.00  0.00    +0.000 A 
BRANCH  17  20
ATOM     20  N   UNL     1      -0.832  11.408  20.104  0.00  0.00    +0.000 N 
ATOM     21  C   UNL     1      -1.682  12.166  19.177  0.00  0.00    +0.000 C 
ATOM     22  C   UNL     1      -3.068  12.392  19.839  0.00  0.00    +0.000 C 
ATOM     23  N   UNL     1      -3.015  12.991  21.192  0.00  0.00    +0.000 NA
ATOM     24  C   UNL     1      -2.089  12.217  22.046  0.00  0.00    +0.000 C 
ATOM     25  C   UNL     1      -0.691  12.054  21.418  0.00  0.00    +0.000 C 
ATOM     26  H   UNL     1      -3.946  12.953  21.604  0.00  0.00    +0.000 HD
ENDBRANCH  17  20
ENDBRANCH   2  14
BRANCH   1  28
ATOM     27  C   UNL     1       1.093   4.488  20.048  0.00  0.00    +0.000 C 
ATOM     28  C   UNL     1       1.991   5.656  20.429  0.00  0.00    +0.000 C 
ENDBRANCH   1  28
TORSDOF 3
ENDMDL
MODEL 7
REMARK VINA RESULT:      -7.4      4.263      8.617
REMARK  Name = 
REMARK  4 active torsions:
REMARK  status: ('A' for Active; 'I' for Inactive)
REMARK    1  A    between atoms: C_1  and  C_2
REMARK    2  A    between atoms: C_2  and  C_3
REMARK    3  A    between atoms: C_4  and  C_5
REMARK    4  A    between atoms: C_8  and  N_9
REMARK                            x       y       z     vdW  Elec       q    Type
REMARK                         _______ _______ _______ _____ _____    ______ ____
ROOT
ATOM      1  C   UNL     1       0.612   9.964  19.839  0.00  0.00    +0.000 A 
ATOM      2  C   UNL     1       0.927   8.923  20.649  0.00  0.00    +0.000 A 
ATOM      3  N   UNL     1       0.711   8.995  22.007  0.00  0.00    +0.000 N 
ATOM      4  C   UNL     1       0.164  10.073  22.662  0.00  0.00    +0.000 A 
ATOM      5  O   UNL     1      -0.051  10.041  23.867  0.00  0.00    +0.000 OA
ATOM      6  C   UNL     1      -0.115  11.235  21.809  0.00  0.00    +0.000 A 
ATOM      7  C   UNL     1      -0.613  12.559  22.222  0.00  0.00    +0.000 A 
ATOM      8  O   UNL     1      -0.934  12.896  23.350  0.00  0.00    +0.000 OA
ATOM      9  N   UNL     1      -0.670  13.387  21.126  0.00  0.00    +0.000 N 
ATOM     10  S   UNL     1      -0.212  12.675  19.669  0.00  0.00    +0.000 S 
ATOM     11  C   UNL     1       0.109  11.175  20.486  0.00  0.00    +0.000 A 
ATOM     12  H   UNL     1       0.922   8.191  22.588  0.00  0.00    +0.000 HD
ATOM     13  H   UNL     1      -0.999  14.339  21.217  0.00  0.00    +0.000 HD
ENDROOT
BRANCH   2  14
ATOM     14  C   UNL     1       1.506   7.667  20.160  0.00  0.00    +0.000 A 
ATOM     15  C   UNL     1       1.259   6.469  20.837  0.00  0.00    +0.000 A 
ATOM     16  C   UNL     1       1.864   5.279  20.414  0.00  0.00    +0.000 A 
ATOM     17  C   UNL     1       2.732   5.250  19.316  0.00  0.00    +0.000 A 
ATOM     18  C   UNL     1       2.913   6.458  18.621  0.00  0.00    +0.000 A 
ATOM     19  C   UNL     1       2.316   7.652  19.029  0.00  0.00    +0.000 A 
BRANCH  17  20
ATOM     20  N   UNL     1       3.368   4.103  18.896  0.00  0.00    +0.000 N 
ATOM     21  C   UNL     1       4.587   3.563  19.512  0.00  0.00    +0.000 C 
ATOM     22  C   UNL     1       4.457   2.019  19.607  0.00  0.00    +0.000 C 
ATOM     23  N   UNL     1       4.111   1.349  18.332  0.00  0.00    +0.000 NA
ATOM     24  C   UNL     1       2.919   1.990  17.738  0.00  0.00    +0.000 C 
ATOM     25  C   UNL     1       3.076   3.515  17.578  0.00  0.00    +0.000 C 
ATOM     26  H   UNL     1       3.893   0.373  18.524  0.00  0.00    +0.000 HD
ENDBRANCH  17  20
ENDBRANCH   2  14
BRANCH   1  28
ATOM     27  C   UNL     1      -0.659   9.712  17.647  0.00  0.00    +0.000 C 
ATOM     28  C   UNL     1       0.691   9.900  18.324  0.00  0.00    +0.000 C 
ENDBRANCH   1  28
TORSDOF 3
ENDMDL
MODEL 8
REMARK VINA RESULT:      -7.4      4.078      8.656
REMARK  Name = 
REMARK  4 active torsions:
REMARK  status: ('A' for Active; 'I' for Inactive)
REMARK    1  A    between atoms: C_1  and  C_2
REMARK    2  A    between atoms: C_2  and  C_3
REMARK    3  A    between atoms: C_4  and  C_5
REMARK    4  A    between atoms: C_8  and  N_9
REMARK                            x       y       z     vdW  Elec       q    Type
REMARK                         _______ _______ _______ _____ _____    ______ ____
ROOT
ATOM      1  C   UNL     1      -0.193  10.406  19.616  0.00  0.00    +0.000 A 
ATOM      2  C   UNL     1       0.602   9.524  20.271  0.00  0.00    +0.000 A 
ATOM      3  N   UNL     1       0.621   9.478  21.647  0.00  0.00    +0.000 N 
ATOM      4  C   UNL     1      -0.137  10.273  22.472  0.00  0.00    +0.000 A 
ATOM      5  O   UNL     1      -0.108  10.135  23.688  0.00  0.00    +0.000 OA
ATOM      6  C   UNL     1      -0.949  11.282  21.780  0.00  0.00    +0.000 A 
ATOM      7  C   UNL     1      -1.791  12.331  22.382  0.00  0.00    +0.000 A 
ATOM      8  O   UNL     1      -2.001  12.502  23.572  0.00  0.00    +0.000 OA
ATOM      9  N   UNL     1      -2.327  13.113  21.387  0.00  0.00    +0.000 N 
ATOM     10  S   UNL     1      -1.920  12.650  19.818  0.00  0.00    +0.000 S 
ATOM     11  C   UNL     1      -0.959  11.341  20.438  0.00  0.00    +0.000 A 
ATOM     12  H   UNL     1       1.198   8.787  22.114  0.00  0.00    +0.000 HD
ATOM     13  H   UNL     1      -2.943  13.884  21.612  0.00  0.00    +0.000 HD
ENDROOT
BRANCH   2  14
ATOM     14  C   UNL     1       1.481   8.570  19.587  0.00  0.00    +0.000 A 
ATOM     15  C   UNL     1       1.998   8.870  18.324  0.00  0.00    +0.000 A 
ATOM     16  C   UNL     1       2.782   7.934  17.637  0.00  0.00    +0.000 A 
ATOM     17  C   UNL     1       3.066   6.678  18.185  0.00  0.00    +0.000 A 
ATOM     18  C   UNL     1       2.582   6.427  19.480  0.00  0.00    +0.000 A 
ATOM     19  C   UNL     1       1.800   7.351  20.177  0.00  0.00    +0.000 A 
BRANCH  17  20
ATOM     20  N   UNL     1       3.805   5.723  17.522  0.00  0.00    +0.000 N 
ATOM     21  C   UNL     1       4.925   6.026  16.622  0.00  0.00    +0.000 C 
ATOM     22  C   UNL     1       6.064   5.002  16.880  0.00  0.00    +0.000 C 
ATOM     23  N   UNL     1       5.644   3.584  16.818  0.00  0.00    +0.000 NA
ATOM     24  C   UNL     1       4.472   3.371  17.693  0.00  0.00    +0.000 C 
ATOM     25  C   UNL     1       3.314   4.342  17.390  0.00  0.00    +0.000 C 
ATOM     26  H   UNL     1       6.409   3.001  17.152  0.00  0.00    +0.000 HD
ENDBRANCH  17  20
ENDBRANCH   2  14
BRANCH   1  28
ATOM     27  C   UNL     1      -1.688   9.814  17.641  0.00  0.00    +0.000 C 
ATOM     28  C   UNL     1      -0.370  10.414  18.108  0.00  0.00    +0.000 C 
ENDBRANCH   1  28
TORSDOF 3
ENDMDL
MODEL 9
REMARK VINA RESULT:      -7.3      4.184      8.651
REMARK  Name = 
REMARK  4 active torsions:
REMARK  status: ('A' for Active; 'I' for Inactive)
REMARK    1  A    between atoms: C_1  and  C_2
REMARK    2  A    between atoms: C_2  and  C_3
REMARK    3  A    between atoms: C_4  and  C_5
REMARK    4  A    between atoms: C_8  and  N_9
REMARK                            x       y       z     vdW  Elec       q    Type
REMARK                         _______ _______ _______ _____ _____    ______ ____
ROOT
ATOM      1  C   UNL     1      -0.987  10.721  19.370  0.00  0.00    +0.000 A 
ATOM      2  C   UNL     1       0.305  10.588  19.763  0.00  0.00    +0.000 A 
ATOM      3  N   UNL     1       0.893  11.524  20.584  0.00  0.00    +0.000 N 
ATOM      4  C   UNL     1       0.264  12.638  21.085  0.00  0.00    +0.000 A 
ATOM      5  O   UNL     1       0.837  13.396  21.857  0.00  0.00    +0.000 OA
ATOM      6  C   UNL     1      -1.111  12.835  20.611  0.00  0.00    +0.000 A 
ATOM      7  C   UNL     1      -2.010  13.969  20.893  0.00  0.00    +0.000 A 
ATOM      8  O   UNL     1      -1.775  14.919  21.622  0.00  0.00    +0.000 OA
ATOM      9  N   UNL     1      -3.185  13.803  20.200  0.00  0.00    +0.000 N 
ATOM     10  S   UNL     1      -3.283  12.387  19.290  0.00  0.00    +0.000 S 
ATOM     11  C   UNL     1      -1.684  11.933  19.798  0.00  0.00    +0.000 A 
ATOM     12  H   UNL     1       1.850  11.384  20.892  0.00  0.00    +0.000 HD
ATOM     13  H   UNL     1      -3.929  14.484  20.278  0.00  0.00    +0.000 HD
ENDROOT
BRANCH   2  14
ATOM     14  C   UNL     1       1.158   9.465  19.360  0.00  0.00    +0.000 A 
ATOM     15  C   UNL     1       1.728   9.438  18.083  0.00  0.00    +0.000 A 
ATOM     16  C   UNL     1       2.487   8.336  17.669  0.00  0.00    +0.000 A 
ATOM     17  C   UNL     1       2.693   7.234  18.508  0.00  0.00    +0.000 A 
ATOM     18  C   UNL     1       2.157   7.316  19.805  0.00  0.00    +0.000 A 
ATOM     19  C   UNL     1       1.399   8.409  20.232  0.00  0.00    +0.000 A 
BRANCH  17  20
ATOM     20  N   UNL     1       3.406   6.122  18.119  0.00  0.00    +0.000 N 
ATOM     21  C   UNL     1       4.792   6.158  17.635  0.00  0.00    +0.000 C 
ATOM     22  C   UNL     1       5.566   4.959  18.247  0.00  0.00    +0.000 C 
ATOM     23  N   UNL     1       4.921   3.642  18.047  0.00  0.00    +0.000 NA
ATOM     24  C   UNL     1       3.513   3.702  18.491  0.00  0.00    +0.000 C 
ATOM     25  C   UNL     1       2.725   4.850  17.829  0.00  0.00    +0.000 C 
ATOM     26  H   UNL     1       5.411   2.948  18.610  0.00  0.00    +0.000 HD
ENDBRANCH  17  20
ENDBRANCH   2  14
BRANCH   1  28
ATOM     27  C   UNL     1      -1.780   9.918  17.088  0.00  0.00    +0.000 C 
ATOM     28  C   UNL     1      -1.737   9.660  18.587  0.00  0.00    +0.000 C 
ENDBRANCH   1  28
TORSDOF 3
ENDMDL
