MODEL 1
REMARK VINA RESULT:      -7.1      0.000      0.000
REMARK  Name = 
REMARK  3 active torsions:
REMARK  status: ('A' for Active; 'I' for Inactive)
REMARK    1  A    between atoms: N_1  and  C_2
REMARK    2  A    between atoms: C_7  and  C_8
REMARK    3  A    between atoms: C_17  and  C_18
REMARK                            x       y       z     vdW  Elec       q    Type
REMARK                         _______ _______ _______ _____ _____    ______ ____
ROOT
ATOM      1  C   UNL     1       1.135  11.546  17.902  0.00  0.00    +0.000 C 
ATOM      2  C   UNL     1       2.420  10.718  18.115  0.00  0.00    +0.000 C 
ATOM      3  N   UNL     1       1.922   9.472  18.669  0.00  0.00    +0.000 N 
ATOM      4  C   UNL     1       2.471   8.251  18.379  0.00  0.00    +0.000 A 
ATOM      5  C   UNL     1       1.914   7.083  18.858  0.00  0.00    +0.000 A 
ATOM      6  C   UNL     1       2.490   5.883  18.493  0.00  0.00    +0.000 A 
ATOM      7  N   UNL     1       3.588   5.807  17.727  0.00  0.00    +0.000 NA
ATOM      8  C   UNL     1       4.068   6.985  17.315  0.00  0.00    +0.000 A 
ATOM      9  N   UNL     1       3.565   8.199  17.600  0.00  0.00    +0.000 NA
ATOM     10  C   UNL     1       0.718   9.685  19.456  0.00  0.00    +0.000 C 
ATOM     11  C   UNL     1       0.177  11.063  19.021  0.00  0.00    +0.000 C 
ENDROOT
BRANCH  11  12
ATOM     12  C   UNL     1      -1.274  10.992  18.571  0.00  0.00    +0.000 A 
ATOM     13  C   UNL     1      -1.658  10.088  17.571  0.00  0.00    +0.000 A 
ATOM     14  C   UNL     1      -2.993  10.019  17.173  0.00  0.00    +0.000 A 
ATOM     15  F   UNL     1      -3.344   9.153  16.212  0.00  0.00    +0.000 F 
ATOM     16  C   UNL     1      -3.949  10.839  17.759  0.00  0.00    +0.000 A 
ATOM     17  F   UNL     1      -5.230  10.761  17.371  0.00  0.00    +0.000 F 
ATOM     18  C   UNL     1      -3.594  11.747  18.741  0.00  0.00    +0.000 A 
ATOM     19  C   UNL     1      -2.259  11.823  19.132  0.00  0.00    +0.000 A 
ATOM     20  F   UNL     1      -1.926  12.727  20.064  0.00  0.00    +0.000 F 
ENDBRANCH  11  12
BRANCH   6  21
ATOM     21  C   UNL     1       1.878   4.628  18.926  0.00  0.00    +0.000 A 
ATOM     22  C   UNL     1       1.519   4.253  20.265  0.00  0.00    +0.000 A 
ATOM     23  C   UNL     1       0.988   2.985  20.338  0.00  0.00    +0.000 A 
ATOM     24  S   UNL     1       0.911   2.237  18.804  0.00  0.00    +0.000 S 
ATOM     25  C   UNL     1       1.582   3.614  18.035  0.00  0.00    +0.000 A 
ENDBRANCH   6  21
BRANCH   1  26
ATOM     26  N   UNL     1       1.306  13.006  17.918  0.00  0.00    +0.000 NA
ATOM     27  H   UNL     1       1.111  13.377  16.988  0.00  0.00    +0.000 HD
ATOM     28  H   UNL     1       2.280  13.241  18.114  0.00  0.00    +0.000 HD
ENDBRANCH   1  26
TORSDOF 3
ENDMDL
MODEL 2
REMARK VINA RESULT:      -7.0      0.744      1.626
REMARK  Name = 
REMARK  3 active torsions:
REMARK  status: ('A' for Active; 'I' for Inactive)
REMARK    1  A    between atoms: N_1  and  C_2
REMARK    2  A    between atoms: C_7  and  C_8
REMARK    3  A    between atoms: C_17  and  C_18
REMARK                            x       y       z     vdW  Elec       q    Type
REMARK                         _______ _______ _______ _____ _____    ______ ____
ROOT
ATOM      1  C   UNL     1       1.056  11.581  17.960  0.00  0.00    +0.000 C 
ATOM      2  C   UNL     1       2.352  10.764  18.158  0.00  0.00    +0.000 C 
ATOM      3  N   UNL     1       1.873   9.517  18.726  0.00  0.00    +0.000 N 
ATOM      4  C   UNL     1       2.428   8.300  18.433  0.00  0.00    +0.000 A 
ATOM      5  C   UNL     1       1.887   7.129  18.926  0.00  0.00    +0.000 A 
ATOM      6  C   UNL     1       2.468   5.932  18.559  0.00  0.00    +0.000 A 
ATOM      7  N   UNL     1       3.556   5.861  17.777  0.00  0.00    +0.000 NA
ATOM      8  C   UNL     1       4.019   7.042  17.353  0.00  0.00    +0.000 A 
ATOM      9  N   UNL     1       3.510   8.253  17.639  0.00  0.00    +0.000 NA
ATOM     10  C   UNL     1       0.678   9.724  19.529  0.00  0.00    +0.000 C 
ATOM     11  C   UNL     1       0.119  11.095  19.095  0.00  0.00    +0.000 C 
ENDROOT
BRANCH  11  12
ATOM     12  C   UNL     1      -1.337  11.010  18.667  0.00  0.00    +0.000 A 
ATOM     13  C   UNL     1      -2.297  11.840  19.264  0.00  0.00    +0.000 A 
ATOM     14  C   UNL     1      -3.628  11.766  18.857  0.00  0.00    +0.000 A 
ATOM     15  F   UNL     1      -4.535  12.563  19.440  0.00  0.00    +0.000 F 
ATOM     16  C   UNL     1      -4.016  10.876  17.863  0.00  0.00    +0.000 A 
ATOM     17  F   UNL     1      -5.298  10.816  17.476  0.00  0.00    +0.000 F 
ATOM     18  C   UNL     1      -3.090  10.039  17.265  0.00  0.00    +0.000 A 
ATOM     19  C   UNL     1      -1.761  10.105  17.679  0.00  0.00    +0.000 A 
ATOM     20  F   UNL     1      -0.882   9.269  17.110  0.00  0.00    +0.000 F 
ENDBRANCH  11  12
BRANCH   6  21
ATOM     21  C   UNL     1       1.873   4.674  19.006  0.00  0.00    +0.000 A 
ATOM     22  C   UNL     1       1.606   4.273  20.360  0.00  0.00    +0.000 A 
ATOM     23  C   UNL     1       1.066   3.009  20.442  0.00  0.00    +0.000 A 
ATOM     24  S   UNL     1       0.870   2.298  18.902  0.00  0.00    +0.000 S 
ATOM     25  C   UNL     1       1.502   3.684  18.118  0.00  0.00    +0.000 A 
ENDBRANCH   6  21
BRANCH   1  26
ATOM     26  N   UNL     1       1.216  13.042  17.967  0.00  0.00    +0.000 NA
ATOM     27  H   UNL     1       1.184  13.388  17.007  0.00  0.00    +0.000 HD
ATOM     28  H   UNL     1       2.140  13.291  18.322  0.00  0.00    +0.000 HD
ENDBRANCH   1  26
TORSDOF 3
ENDMDL
MODEL 3
REMARK VINA RESULT:      -6.6      4.617      8.111
REMARK  Name = 
REMARK  3 active torsions:
REMARK  status: ('A' for Active; 'I' for Inactive)
REMARK    1  A    between atoms: N_1  and  C_2
REMARK    2  A    between atoms: C_7  and  C_8
REMARK    3  A    between atoms: C_17  and  C_18
REMARK                            x       y       z     vdW  Elec       q    Type
REMARK                         _______ _______ _______ _____ _____    ______ ____
ROOT
ATOM      1  C   UNL     1       1.642  12.372  18.658  0.00  0.00    +0.000 C 
ATOM      2  C   UNL     1       0.815  13.660  18.863  0.00  0.00    +0.000 C 
ATOM      3  N   UNL     1      -0.374  13.183  19.546  0.00  0.00    +0.000 N 
ATOM      4  C   UNL     1      -1.016  13.902  20.519  0.00  0.00    +0.000 A 
ATOM      5  C   UNL     1      -2.092  13.376  21.205  0.00  0.00    +0.000 A 
ATOM      6  C   UNL     1      -2.668  14.134  22.204  0.00  0.00    +0.000 A 
ATOM      7  N   UNL     1      -2.252  15.372  22.509  0.00  0.00    +0.000 NA
ATOM      8  C   UNL     1      -1.211  15.807  21.789  0.00  0.00    +0.000 A 
ATOM      9  N   UNL     1      -0.574  15.135  20.815  0.00  0.00    +0.000 NA
ATOM     10  C   UNL     1      -0.705  11.824  19.149  0.00  0.00    +0.000 C 
ATOM     11  C   UNL     1       0.580  11.252  18.516  0.00  0.00    +0.000 C 
ENDROOT
BRANCH  11  12
ATOM     12  C   UNL     1       1.005   9.944  19.166  0.00  0.00    +0.000 A 
ATOM     13  C   UNL     1       0.673   9.682  20.503  0.00  0.00    +0.000 A 
ATOM     14  C   UNL     1       1.054   8.475  21.088  0.00  0.00    +0.000 A 
ATOM     15  F   UNL     1       0.734   8.240  22.369  0.00  0.00    +0.000 F 
ATOM     16  C   UNL     1       1.761   7.527  20.359  0.00  0.00    +0.000 A 
ATOM     17  F   UNL     1       2.119   6.368  20.931  0.00  0.00    +0.000 F 
ATOM     18  C   UNL     1       2.110   7.766  19.041  0.00  0.00    +0.000 A 
ATOM     19  C   UNL     1       1.738   8.976  18.458  0.00  0.00    +0.000 A 
ATOM     20  F   UNL     1       2.107   9.204  17.191  0.00  0.00    +0.000 F 
ENDBRANCH  11  12
BRANCH   6  21
ATOM     21  C   UNL     1      -3.762  13.574  22.995  0.00  0.00    +0.000 A 
ATOM     22  C   UNL     1      -3.654  12.691  24.123  0.00  0.00    +0.000 A 
ATOM     23  C   UNL     1      -4.881  12.322  24.627  0.00  0.00    +0.000 A 
ATOM     24  S   UNL     1      -6.168  13.033  23.758  0.00  0.00    +0.000 S 
ATOM     25  C   UNL     1      -5.086  13.845  22.707  0.00  0.00    +0.000 A 
ENDBRANCH   6  21
BRANCH   1  26
ATOM     26  N   UNL     1       2.579  12.388  17.525  0.00  0.00    +0.000 NA
ATOM     27  H   UNL     1       2.912  13.341  17.378  0.00  0.00    +0.000 HD
ATOM     28  H   UNL     1       2.093  12.127  16.667  0.00  0.00    +0.000 HD
ENDBRANCH   1  26
TORSDOF 3
ENDMDL
MODEL 4
REMARK VINA RESULT:      -6.6      3.832      7.438
REMARK  Name = 
REMARK  3 active torsions:
REMARK  status: ('A' for Active; 'I' for Inactive)
REMARK    1  A    between atoms: N_1  and  C_2
REMARK    2  A    between atoms: C_7  and  C_8
REMARK    3  A    between atoms: C_17  and  C_18
REMARK                            x       y       z     vdW  Elec       q    Type
REMARK                         _______ _______ _______ _____ _____    ______ ____
ROOT
ATOM      1  C   UNL     1       3.998   6.655  18.365  0.00  0.00    +0.000 C 
ATOM      2  C   UNL     1       3.814   8.059  17.749  0.00  0.00    +0.000 C 
ATOM      3  N   UNL     1       2.371   8.212  17.702  0.00  0.00    +0.000 N 
ATOM      4  C   UNL     1       1.737   9.406  17.925  0.00  0.00    +0.000 A 
ATOM      5  C   UNL     1       0.360   9.491  17.957  0.00  0.00    +0.000 A 
ATOM      6  C   UNL     1      -0.217  10.715  18.229  0.00  0.00    +0.000 A 
ATOM      7  N   UNL     1       0.503  11.830  18.425  0.00  0.00    +0.000 NA
ATOM      8  C   UNL     1       1.828  11.660  18.367  0.00  0.00    +0.000 A 
ATOM      9  N   UNL     1       2.479  10.507  18.130  0.00  0.00    +0.000 NA
ATOM     10  C   UNL     1       1.708   6.932  17.512  0.00  0.00    +0.000 C 
ATOM     11  C   UNL     1       2.751   5.863  17.894  0.00  0.00    +0.000 C 
ENDROOT
BRANCH  11  12
ATOM     12  C   UNL     1       2.226   4.902  18.949  0.00  0.00    +0.000 A 
ATOM     13  C   UNL     1       2.643   5.022  20.282  0.00  0.00    +0.000 A 
ATOM     14  C   UNL     1       2.146   4.145  21.246  0.00  0.00    +0.000 A 
ATOM     15  F   UNL     1       2.558   4.269  22.516  0.00  0.00    +0.000 F 
ATOM     16  C   UNL     1       1.240   3.151  20.899  0.00  0.00    +0.000 A 
ATOM     17  F   UNL     1       0.766   2.316  21.834  0.00  0.00    +0.000 F 
ATOM     18  C   UNL     1       0.820   3.005  19.587  0.00  0.00    +0.000 A 
ATOM     19  C   UNL     1       1.324   3.875  18.622  0.00  0.00    +0.000 A 
ATOM     20  F   UNL     1       0.929   3.703  17.353  0.00  0.00    +0.000 F 
ENDBRANCH  11  12
BRANCH   6  21
ATOM     21  C   UNL     1      -1.670  10.819  18.341  0.00  0.00    +0.000 A 
ATOM     22  C   UNL     1      -2.651   9.950  17.752  0.00  0.00    +0.000 A 
ATOM     23  C   UNL     1      -3.942  10.343  18.027  0.00  0.00    +0.000 A 
ATOM     24  S   UNL     1      -3.988  11.750  18.994  0.00  0.00    +0.000 S 
ATOM     25  C   UNL     1      -2.278  11.834  19.055  0.00  0.00    +0.000 A 
ENDBRANCH   6  21
BRANCH   1  26
ATOM     26  N   UNL     1       5.250   5.966  18.020  0.00  0.00    +0.000 NA
ATOM     27  H   UNL     1       6.020   6.390  18.539  0.00  0.00    +0.000 HD
ATOM     28  H   UNL     1       5.467   6.110  17.033  0.00  0.00    +0.000 HD
ENDBRANCH   1  26
TORSDOF 3
ENDMDL
MODEL 5
REMARK VINA RESULT:      -6.4      8.650     11.911
REMARK  Name = 
REMARK  3 active torsions:
REMARK  status: ('A' for Active; 'I' for Inactive)
REMARK    1  A    between atoms: N_1  and  C_2
REMARK    2  A    between atoms: C_7  and  C_8
REMARK    3  A    between atoms: C_17  and  C_18
REMARK                            x       y       z     vdW  Elec       q    Type
REMARK                         _______ _______ _______ _____ _____    ______ ____
ROOT
ATOM      1  C   UNL     1       9.855  17.047  18.619  0.00  0.00    +0.000 C 
ATOM      2  C   UNL     1       8.510  17.806  18.579  0.00  0.00    +0.000 C 
ATOM      3  N   UNL     1       7.537  16.742  18.414  0.00  0.00    +0.000 N 
ATOM      4  C   UNL     1       6.299  16.762  19.001  0.00  0.00    +0.000 A 
ATOM      5  C   UNL     1       5.436  15.691  18.890  0.00  0.00    +0.000 A 
ATOM      6  C   UNL     1       4.221  15.756  19.541  0.00  0.00    +0.000 A 
ATOM      7  N   UNL     1       3.829  16.830  20.243  0.00  0.00    +0.000 NA
ATOM      8  C   UNL     1       4.722  17.825  20.290  0.00  0.00    +0.000 A 
ATOM      9  N   UNL     1       5.934  17.844  19.708  0.00  0.00    +0.000 NA
ATOM     10  C   UNL     1       8.090  15.628  17.660  0.00  0.00    +0.000 C 
ATOM     11  C   UNL     1       9.621  15.803  17.725  0.00  0.00    +0.000 C 
ENDROOT
BRANCH  11  12
ATOM     12  C   UNL     1      10.318  14.556  18.249  0.00  0.00    +0.000 A 
ATOM     13  C   UNL     1      10.164  14.174  19.589  0.00  0.00    +0.000 A 
ATOM     14  C   UNL     1      10.795  13.023  20.059  0.00  0.00    +0.000 A 
ATOM     15  F   UNL     1      10.643  12.673  21.344  0.00  0.00    +0.000 F 
ATOM     16  C   UNL     1      11.576  12.248  19.211  0.00  0.00    +0.000 A 
ATOM     17  F   UNL     1      12.174  11.140  19.672  0.00  0.00    +0.000 F 
ATOM     18  C   UNL     1      11.751  12.609  17.886  0.00  0.00    +0.000 A 
ATOM     19  C   UNL     1      11.129  13.765  17.419  0.00  0.00    +0.000 A 
ATOM     20  F   UNL     1      11.331  14.116  16.142  0.00  0.00    +0.000 F 
ENDBRANCH  11  12
BRANCH   6  21
ATOM     21  C   UNL     1       3.318  14.608  19.501  0.00  0.00    +0.000 A 
ATOM     22  C   UNL     1       2.951  13.831  18.349  0.00  0.00    +0.000 A 
ATOM     23  C   UNL     1       2.053  12.831  18.648  0.00  0.00    +0.000 A 
ATOM     24  S   UNL     1       1.647  12.812  20.306  0.00  0.00    +0.000 S 
ATOM     25  C   UNL     1       2.680  14.139  20.633  0.00  0.00    +0.000 A 
ENDBRANCH   6  21
BRANCH   1  26
ATOM     26  N   UNL     1      11.034  17.816  18.194  0.00  0.00    +0.000 NA
ATOM     27  H   UNL     1      11.827  17.182  18.086  0.00  0.00    +0.000 HD
ATOM     28  H   UNL     1      11.303  18.476  18.924  0.00  0.00    +0.000 HD
ENDBRANCH   1  26
TORSDOF 3
ENDMDL
MODEL 6
REMARK VINA RESULT:      -6.4      5.157      9.121
REMARK  Name = 
REMARK  3 active torsions:
REMARK  status: ('A' for Active; 'I' for Inactive)
REMARK    1  A    between atoms: N_1  and  C_2
REMARK    2  A    between atoms: C_7  and  C_8
REMARK    3  A    between atoms: C_17  and  C_18
REMARK                            x       y       z     vdW  Elec       q    Type
REMARK                         _______ _______ _______ _____ _____    ______ ____
ROOT
ATOM      1  C   UNL     1      -2.894  11.078  16.226  0.00  0.00    +0.000 C 
ATOM      2  C   UNL     1      -4.437  11.149  16.234  0.00  0.00    +0.000 C 
ATOM      3  N   UNL     1      -4.753  11.292  17.644  0.00  0.00    +0.000 N 
ATOM      4  C   UNL     1      -5.788  12.062  18.105  0.00  0.00    +0.000 A 
ATOM      5  C   UNL     1      -6.001  12.241  19.457  0.00  0.00    +0.000 A 
ATOM      6  C   UNL     1      -7.035  13.064  19.855  0.00  0.00    +0.000 A 
ATOM      7  N   UNL     1      -7.863  13.664  18.986  0.00  0.00    +0.000 NA
ATOM      8  C   UNL     1      -7.591  13.428  17.698  0.00  0.00    +0.000 A 
ATOM      9  N   UNL     1      -6.597  12.662  17.216  0.00  0.00    +0.000 NA
ATOM     10  C   UNL     1      -3.769  10.621  18.479  0.00  0.00    +0.000 C 
ATOM     11  C   UNL     1      -2.533  10.415  17.580  0.00  0.00    +0.000 C 
ENDROOT
BRANCH  11  12
ATOM     12  C   UNL     1      -1.270  10.988  18.203  0.00  0.00    +0.000 A 
ATOM     13  C   UNL     1      -1.287  12.264  18.784  0.00  0.00    +0.000 A 
ATOM     14  C   UNL     1      -0.129  12.777  19.366  0.00  0.00    +0.000 A 
ATOM     15  F   UNL     1      -0.159  14.000  19.913  0.00  0.00    +0.000 F 
ATOM     16  C   UNL     1       1.046  12.036  19.375  0.00  0.00    +0.000 A 
ATOM     17  F   UNL     1       2.154  12.538  19.941  0.00  0.00    +0.000 F 
ATOM     18  C   UNL     1       1.092  10.778  18.799  0.00  0.00    +0.000 A 
ATOM     19  C   UNL     1      -0.062  10.269  18.209  0.00  0.00    +0.000 A 
ATOM     20  F   UNL     1       0.006   9.062  17.631  0.00  0.00    +0.000 F 
ENDBRANCH  11  12
BRANCH   6  21
ATOM     21  C   UNL     1      -7.238  13.329  21.278  0.00  0.00    +0.000 A 
ATOM     22  C   UNL     1      -7.917  14.452  21.863  0.00  0.00    +0.000 A 
ATOM     23  C   UNL     1      -7.908  14.419  23.240  0.00  0.00    +0.000 A 
ATOM     24  S   UNL     1      -7.093  13.043  23.839  0.00  0.00    +0.000 S 
ATOM     25  C   UNL     1      -6.755  12.482  22.256  0.00  0.00    +0.000 A 
ENDBRANCH   6  21
BRANCH   1  26
ATOM     26  N   UNL     1      -2.295  10.366  15.088  0.00  0.00    +0.000 NA
ATOM     27  H   UNL     1      -1.895   9.486  15.415  0.00  0.00    +0.000 HD
ATOM     28  H   UNL     1      -1.513  10.904  14.712  0.00  0.00    +0.000 HD
ENDBRANCH   1  26
TORSDOF 3
ENDMDL
MODEL 7
REMARK VINA RESULT:      -6.4      4.470      8.252
REMARK  Name = 
REMARK  3 active torsions:
REMARK  status: ('A' for Active; 'I' for Inactive)
REMARK    1  A    between atoms: N_1  and  C_2
REMARK    2  A    between atoms: C_7  and  C_8
REMARK    3  A    between atoms: C_17  and  C_18
REMARK                            x       y       z     vdW  Elec       q    Type
REMARK                         _______ _______ _______ _____ _____    ______ ____
ROOT
ATOM      1  C   UNL     1       1.328  12.630  18.715  0.00  0.00    +0.000 C 
ATOM      2  C   UNL     1       0.407  13.869  18.752  0.00  0.00    +0.000 C 
ATOM      3  N   UNL     1      -0.845  13.334  19.254  0.00  0.00    +0.000 N 
ATOM      4  C   UNL     1      -1.673  14.030  20.094  0.00  0.00    +0.000 A 
ATOM      5  C   UNL     1      -2.812  13.452  20.618  0.00  0.00    +0.000 A 
ATOM      6  C   UNL     1      -3.581  14.192  21.493  0.00  0.00    +0.000 A 
ATOM      7  N   UNL     1      -3.289  15.459  21.825  0.00  0.00    +0.000 NA
ATOM      8  C   UNL     1      -2.175  15.943  21.265  0.00  0.00    +0.000 A 
ATOM      9  N   UNL     1      -1.354  15.293  20.421  0.00  0.00    +0.000 NA
ATOM     10  C   UNL     1      -1.031  11.950  18.848  0.00  0.00    +0.000 C 
ATOM     11  C   UNL     1       0.368  11.446  18.439  0.00  0.00    +0.000 C 
ENDROOT
BRANCH  11  12
ATOM     12  C   UNL     1       0.759  10.179  19.184  0.00  0.00    +0.000 A 
ATOM     13  C   UNL     1       0.325   9.973  20.501  0.00  0.00    +0.000 A 
ATOM     14  C   UNL     1       0.676   8.803  21.172  0.00  0.00    +0.000 A 
ATOM     15  F   UNL     1       0.258   8.622  22.433  0.00  0.00    +0.000 F 
ATOM     16  C   UNL     1       1.454   7.835  20.549  0.00  0.00    +0.000 A 
ATOM     17  F   UNL     1       1.782   6.711  21.202  0.00  0.00    +0.000 F 
ATOM     18  C   UNL     1       1.903   8.019  19.252  0.00  0.00    +0.000 A 
ATOM     19  C   UNL     1       1.561   9.192  18.584  0.00  0.00    +0.000 A 
ATOM     20  F   UNL     1       2.027   9.368  17.340  0.00  0.00    +0.000 F 
ENDBRANCH  11  12
BRANCH   6  21
ATOM     21  C   UNL     1      -4.752  13.581  22.119  0.00  0.00    +0.000 A 
ATOM     22  C   UNL     1      -5.839  12.913  21.460  0.00  0.00    +0.000 A 
ATOM     23  C   UNL     1      -6.804  12.475  22.339  0.00  0.00    +0.000 A 
ATOM     24  S   UNL     1      -6.413  12.856  23.957  0.00  0.00    +0.000 S 
ATOM     25  C   UNL     1      -4.944  13.603  23.487  0.00  0.00    +0.000 A 
ENDBRANCH   6  21
BRANCH   1  26
ATOM     26  N   UNL     1       2.430  12.683  17.742  0.00  0.00    +0.000 NA
ATOM     27  H   UNL     1       2.079  12.411  16.823  0.00  0.00    +0.000 HD
ATOM     28  H   UNL     1       3.142  11.993  17.983  0.00  0.00    +0.000 HD
ENDBRANCH   1  26
TORSDOF 3
ENDMDL
MODEL 8
REMARK VINA RESULT:      -6.3      3.830      7.270
REMARK  Name = 
REMARK  3 active torsions:
REMARK  status: ('A' for Active; 'I' for Inactive)
REMARK    1  A    between atoms: N_1  and  C_2
REMARK    2  A    between atoms: C_7  and  C_8
REMARK    3  A    between atoms: C_17  and  C_18
REMARK                            x       y       z     vdW  Elec       q    Type
REMARK                         _______ _______ _______ _____ _____    ______ ____
ROOT
ATOM      1  C   UNL     1       4.019   6.680  18.285  0.00  0.00    +0.000 C 
ATOM      2  C   UNL     1       3.828   8.086  17.678  0.00  0.00    +0.000 C 
ATOM      3  N   UNL     1       2.385   8.247  17.663  0.00  0.00    +0.000 N 
ATOM      4  C   UNL     1       1.762   9.443  17.903  0.00  0.00    +0.000 A 
ATOM      5  C   UNL     1       0.386   9.534  17.966  0.00  0.00    +0.000 A 
ATOM      6  C   UNL     1      -0.178  10.760  18.254  0.00  0.00    +0.000 A 
ATOM      7  N   UNL     1       0.552  11.871  18.438  0.00  0.00    +0.000 NA
ATOM      8  C   UNL     1       1.874  11.694  18.351  0.00  0.00    +0.000 A 
ATOM      9  N   UNL     1       2.514  10.539  18.095  0.00  0.00    +0.000 NA
ATOM     10  C   UNL     1       1.712   6.971  17.483  0.00  0.00    +0.000 C 
ATOM     11  C   UNL     1       2.758   5.895  17.839  0.00  0.00    +0.000 C 
ENDROOT
BRANCH  11  12
ATOM     12  C   UNL     1       2.251   4.932  18.901  0.00  0.00    +0.000 A 
ATOM     13  C   UNL     1       2.079   3.574  18.597  0.00  0.00    +0.000 A 
ATOM     14  C   UNL     1       1.627   2.695  19.580  0.00  0.00    +0.000 A 
ATOM     15  F   UNL     1       1.462   1.401  19.273  0.00  0.00    +0.000 F 
ATOM     16  C   UNL     1       1.344   3.152  20.862  0.00  0.00    +0.000 A 
ATOM     17  F   UNL     1       0.913   2.297  21.801  0.00  0.00    +0.000 F 
ATOM     18  C   UNL     1       1.496   4.489  21.185  0.00  0.00    +0.000 A 
ATOM     19  C   UNL     1       1.939   5.370  20.200  0.00  0.00    +0.000 A 
ATOM     20  F   UNL     1       2.054   6.666  20.520  0.00  0.00    +0.000 F 
ENDBRANCH  11  12
BRANCH   6  21
ATOM     21  C   UNL     1      -1.628  10.871  18.399  0.00  0.00    +0.000 A 
ATOM     22  C   UNL     1      -2.627  10.030  17.799  0.00  0.00    +0.000 A 
ATOM     23  C   UNL     1      -3.909  10.423  18.112  0.00  0.00    +0.000 A 
ATOM     24  S   UNL     1      -3.925  11.796  19.128  0.00  0.00    +0.000 S 
ATOM     25  C   UNL     1      -2.213  11.865  19.159  0.00  0.00    +0.000 A 
ENDBRANCH   6  21
BRANCH   1  26
ATOM     26  N   UNL     1       5.259   5.986  17.910  0.00  0.00    +0.000 NA
ATOM     27  H   UNL     1       5.120   4.978  17.997  0.00  0.00    +0.000 HD
ATOM     28  H   UNL     1       6.003   6.221  18.568  0.00  0.00    +0.000 HD
ENDBRANCH   1  26
TORSDOF 3
ENDMDL
MODEL 9
REMARK VINA RESULT:      -6.3      6.610      9.817
REMARK  Name = 
REMARK  3 active torsions:
REMARK  status: ('A' for Active; 'I' for Inactive)
REMARK    1  A    between atoms: N_1  and  C_2
REMARK    2  A    between atoms: C_7  and  C_8
REMARK    3  A    between atoms: C_17  and  C_18
REMARK                            x       y       z     vdW  Elec       q    Type
REMARK                         _______ _______ _______ _____ _____    ______ ____
ROOT
ATOM      1  C   UNL     1       6.909  16.441  18.884  0.00  0.00    +0.000 C 
ATOM      2  C   UNL     1       5.402  16.756  18.768  0.00  0.00    +0.000 C 
ATOM      3  N   UNL     1       4.812  15.453  18.517  0.00  0.00    +0.000 N 
ATOM      4  C   UNL     1       3.595  15.074  19.019  0.00  0.00    +0.000 A 
ATOM      5  C   UNL     1       3.109  13.796  18.830  0.00  0.00    +0.000 A 
ATOM      6  C   UNL     1       1.896  13.464  19.399  0.00  0.00    +0.000 A 
ATOM      7  N   UNL     1       1.154  14.340  20.093  0.00  0.00    +0.000 NA
ATOM      8  C   UNL     1       1.695  15.557  20.220  0.00  0.00    +0.000 A 
ATOM      9  N   UNL     1       2.875  15.965  19.721  0.00  0.00    +0.000 NA
ATOM     10  C   UNL     1       5.722  14.591  17.781  0.00  0.00    +0.000 C 
ATOM     11  C   UNL     1       7.120  15.220  17.953  0.00  0.00    +0.000 C 
ENDROOT
BRANCH  11  12
ATOM     12  C   UNL     1       8.132  14.225  18.499  0.00  0.00    +0.000 A 
ATOM     13  C   UNL     1       8.826  14.504  19.685  0.00  0.00    +0.000 A 
ATOM     14  C   UNL     1       9.742  13.581  20.187  0.00  0.00    +0.000 A 
ATOM     15  F   UNL     1      10.402  13.864  21.319  0.00  0.00    +0.000 F 
ATOM     16  C   UNL     1       9.976  12.384  19.522  0.00  0.00    +0.000 A 
ATOM     17  F   UNL     1      10.857  11.501  20.015  0.00  0.00    +0.000 F 
ATOM     18  C   UNL     1       9.312  12.088  18.344  0.00  0.00    +0.000 A 
ATOM     19  C   UNL     1       8.403  13.015  17.837  0.00  0.00    +0.000 A 
ATOM     20  F   UNL     1       7.789  12.727  16.682  0.00  0.00    +0.000 F 
ENDBRANCH  11  12
BRANCH   6  21
ATOM     21  C   UNL     1       1.391  12.098  19.276  0.00  0.00    +0.000 A 
ATOM     22  C   UNL     1       0.398  11.462  20.096  0.00  0.00    +0.000 A 
ATOM     23  C   UNL     1       0.169  10.154  19.734  0.00  0.00    +0.000 A 
ATOM     24  S   UNL     1       1.137   9.680  18.409  0.00  0.00    +0.000 S 
ATOM     25  C   UNL     1       1.862  11.229  18.310  0.00  0.00    +0.000 A 
ENDBRANCH   6  21
BRANCH   1  26
ATOM     26  N   UNL     1       7.820  17.547  18.555  0.00  0.00    +0.000 NA
ATOM     27  H   UNL     1       8.775  17.277  18.789  0.00  0.00    +0.000 HD
ATOM     28  H   UNL     1       7.609  18.358  19.137  0.00  0.00    +0.000 HD
ENDBRANCH   1  26
TORSDOF 3
ENDMDL
