MODEL 1
REMARK VINA RESULT:      -8.5      0.000      0.000
REMARK  Name = 
REMARK  10 active torsions:
REMARK  status: ('A' for Active; 'I' for Inactive)
REMARK    1  A    between atoms: C_1  and  C_2
REMARK    2  A    between atoms: C_2  and  C_4
REMARK    3  A    between atoms: C_7  and  C_8
REMARK    4  A    between atoms: C_10  and  C_11
REMARK    5  A    between atoms: C_11  and  O_13
REMARK    6  A    between atoms: C_17  and  O_18
REMARK    7  A    between atoms: O_18  and  C_19
REMARK    8  A    between atoms: C_19  and  C_20
REMARK    9  A    between atoms: C_21  and  C_22
REMARK   10  A    between atoms: C_26  and  C_27
REMARK                            x       y       z     vdW  Elec       q    Type
REMARK                         _______ _______ _______ _____ _____    ______ ____
ROOT
ATOM      1  C   UNL     1       6.739   5.662  17.160  0.00  0.00    +0.000 A 
ATOM      2  C   UNL     1       6.990   5.318  15.826  0.00  0.00    +0.000 A 
ATOM      3  C   UNL     1       6.096   4.533  15.091  0.00  0.00    +0.000 A 
ATOM      4  C   UNL     1       4.837   4.254  15.635  0.00  0.00    +0.000 A 
ATOM      5  C   UNL     1       4.602   4.555  16.980  0.00  0.00    +0.000 A 
ATOM      6  C   UNL     1       3.320   4.590  17.541  0.00  0.00    +0.000 A 
ATOM      7  C   UNL     1       3.175   4.902  18.895  0.00  0.00    +0.000 A 
ATOM      8  C   UNL     1       4.249   4.705  19.738  0.00  0.00    +0.000 A 
ATOM      9  C   UNL     1       5.508   4.820  19.182  0.00  0.00    +0.000 A 
ATOM     10  C   UNL     1       5.661   4.986  17.792  0.00  0.00    +0.000 A 
ENDROOT
BRANCH   1  14
ATOM     11  C   UNL     1       8.718   9.294  18.596  0.00  0.00    +0.000 A 
ATOM     12  C   UNL     1       7.837   9.340  17.515  0.00  0.00    +0.000 A 
ATOM     13  C   UNL     1       7.172   8.174  17.104  0.00  0.00    +0.000 A 
ATOM     14  C   UNL     1       7.327   6.924  17.749  0.00  0.00    +0.000 A 
ATOM     15  C   UNL     1       8.233   6.915  18.825  0.00  0.00    +0.000 A 
ATOM     16  C   UNL     1       8.924   8.072  19.240  0.00  0.00    +0.000 A 
BRANCH  11  18
ATOM     17  C   UNL     1       9.335  10.987  20.436  0.00  0.00    +0.000 C 
ATOM     18  C   UNL     1       9.413  10.549  18.989  0.00  0.00    +0.000 C 
ATOM     19  O   UNL     1      10.004  11.216  18.156  0.00  0.00    +0.000 OA
ENDBRANCH  11  18
ENDBRANCH   1  14
BRANCH   3  20
ATOM     20  C   UNL     1       6.427   4.170  13.701  0.00  0.00    +0.000 C 
ATOM     21  O   UNL     1       5.829   3.301  13.081  0.00  0.00    +0.000 OA
BRANCH  20  22
ATOM     22  O   UNL     1       7.394   4.942  13.173  0.00  0.00    +0.000 OA
ATOM     23  H   UNL     1       7.843   4.555  12.395  0.00  0.00    +0.000 HD
ENDBRANCH  20  22
ENDBRANCH   3  20
BRANCH   7  24
ATOM     24  O   UNL     1       2.044   5.593  19.210  0.00  0.00    +0.000 OA
BRANCH  24  25
ATOM     25  C   UNL     1       2.076   6.677  20.145  0.00  0.00    +0.000 C 
BRANCH  25  26
ATOM     26  C   UNL     1       1.612   8.030  19.589  0.00  0.00    +0.000 A 
ATOM     27  C   UNL     1       0.640   8.809  20.280  0.00  0.00    +0.000 A 
ATOM     28  C   UNL     1      -0.079   8.361  21.529  0.00  0.00    +0.000 C 
ATOM     29  C   UNL     1       0.344  10.114  19.845  0.00  0.00    +0.000 A 
ATOM     30  C   UNL     1       0.959  10.662  18.733  0.00  0.00    +0.000 A 
ATOM     31  C   UNL     1       1.889   9.907  18.028  0.00  0.00    +0.000 A 
ATOM     32  C   UNL     1       2.230   8.610  18.441  0.00  0.00    +0.000 A 
ATOM     33  C   UNL     1       3.229   7.883  17.564  0.00  0.00    +0.000 C 
ENDBRANCH  25  26
ENDBRANCH  24  25
ENDBRANCH   7  24
TORSDOF 7
ENDMDL
MODEL 2
REMARK VINA RESULT:      -8.4      0.449      1.653
REMARK  Name = 
REMARK  10 active torsions:
REMARK  status: ('A' for Active; 'I' for Inactive)
REMARK    1  A    between atoms: C_1  and  C_2
REMARK    2  A    between atoms: C_2  and  C_4
REMARK    3  A    between atoms: C_7  and  C_8
REMARK    4  A    between atoms: C_10  and  C_11
REMARK    5  A    between atoms: C_11  and  O_13
REMARK    6  A    between atoms: C_17  and  O_18
REMARK    7  A    between atoms: O_18  and  C_19
REMARK    8  A    between atoms: C_19  and  C_20
REMARK    9  A    between atoms: C_21  and  C_22
REMARK   10  A    between atoms: C_26  and  C_27
REMARK                            x       y       z     vdW  Elec       q    Type
REMARK                         _______ _______ _______ _____ _____    ______ ____
ROOT
ATOM      1  C   UNL     1       6.716   5.698  17.159  0.00  0.00    +0.000 A 
ATOM      2  C   UNL     1       6.968   5.342  15.828  0.00  0.00    +0.000 A 
ATOM      3  C   UNL     1       6.082   4.539  15.104  0.00  0.00    +0.000 A 
ATOM      4  C   UNL     1       4.827   4.251  15.654  0.00  0.00    +0.000 A 
ATOM      5  C   UNL     1       4.592   4.565  16.996  0.00  0.00    +0.000 A 
ATOM      6  C   UNL     1       3.310   4.590  17.560  0.00  0.00    +0.000 A 
ATOM      7  C   UNL     1       3.164   4.915  18.910  0.00  0.00    +0.000 A 
ATOM      8  C   UNL     1       4.242   4.740  19.753  0.00  0.00    +0.000 A 
ATOM      9  C   UNL     1       5.499   4.864  19.193  0.00  0.00    +0.000 A 
ATOM     10  C   UNL     1       5.647   5.017  17.801  0.00  0.00    +0.000 A 
ENDROOT
BRANCH   1  14
ATOM     11  C   UNL     1       8.642   9.380  18.538  0.00  0.00    +0.000 A 
ATOM     12  C   UNL     1       7.708   9.407  17.502  0.00  0.00    +0.000 A 
ATOM     13  C   UNL     1       7.063   8.224  17.110  0.00  0.00    +0.000 A 
ATOM     14  C   UNL     1       7.290   6.973  17.733  0.00  0.00    +0.000 A 
ATOM     15  C   UNL     1       8.248   6.984  18.763  0.00  0.00    +0.000 A 
ATOM     16  C   UNL     1       8.920   8.159  19.157  0.00  0.00    +0.000 A 
BRANCH  11  18
ATOM     17  C   UNL     1       9.060  11.874  18.050  0.00  0.00    +0.000 C 
ATOM     18  C   UNL     1       9.315  10.654  18.910  0.00  0.00    +0.000 C 
ATOM     19  O   UNL     1      10.071  10.698  19.865  0.00  0.00    +0.000 OA
ENDBRANCH  11  18
ENDBRANCH   1  14
BRANCH   3  20
ATOM     20  C   UNL     1       6.413   4.165  13.717  0.00  0.00    +0.000 C 
ATOM     21  O   UNL     1       5.823   3.283  13.107  0.00  0.00    +0.000 OA
BRANCH  20  22
ATOM     22  O   UNL     1       7.372   4.940  13.180  0.00  0.00    +0.000 OA
ATOM     23  H   UNL     1       7.843   5.508  13.821  0.00  0.00    +0.000 HD
ENDBRANCH  20  22
ENDBRANCH   3  20
BRANCH   7  24
ATOM     24  O   UNL     1       2.026   5.597  19.220  0.00  0.00    +0.000 OA
BRANCH  24  25
ATOM     25  C   UNL     1       2.029   6.627  20.215  0.00  0.00    +0.000 C 
BRANCH  25  26
ATOM     26  C   UNL     1       1.619   8.019  19.711  0.00  0.00    +0.000 A 
ATOM     27  C   UNL     1       2.160   8.548  18.505  0.00  0.00    +0.000 A 
ATOM     28  C   UNL     1       3.223   7.867  17.678  0.00  0.00    +0.000 C 
ATOM     29  C   UNL     1       1.656   9.749  17.974  0.00  0.00    +0.000 A 
ATOM     30  C   UNL     1       0.652  10.458  18.613  0.00  0.00    +0.000 A 
ATOM     31  C   UNL     1       0.132   9.972  19.807  0.00  0.00    +0.000 A 
ATOM     32  C   UNL     1       0.591   8.766  20.359  0.00  0.00    +0.000 A 
ATOM     33  C   UNL     1      -0.035   8.371  21.682  0.00  0.00    +0.000 C 
ENDBRANCH  25  26
ENDBRANCH  24  25
ENDBRANCH   7  24
TORSDOF 7
ENDMDL
MODEL 3
REMARK VINA RESULT:      -8.4      3.710      8.104
REMARK  Name = 
REMARK  10 active torsions:
REMARK  status: ('A' for Active; 'I' for Inactive)
REMARK    1  A    between atoms: C_1  and  C_2
REMARK    2  A    between atoms: C_2  and  C_4
REMARK    3  A    between atoms: C_7  and  C_8
REMARK    4  A    between atoms: C_10  and  C_11
REMARK    5  A    between atoms: C_11  and  O_13
REMARK    6  A    between atoms: C_17  and  O_18
REMARK    7  A    between atoms: O_18  and  C_19
REMARK    8  A    between atoms: C_19  and  C_20
REMARK    9  A    between atoms: C_21  and  C_22
REMARK   10  A    between atoms: C_26  and  C_27
REMARK                            x       y       z     vdW  Elec       q    Type
REMARK                         _______ _______ _______ _____ _____    ______ ____
ROOT
ATOM      1  C   UNL     1       1.013  11.415  19.967  0.00  0.00    +0.000 A 
ATOM      2  C   UNL     1       0.333  11.488  21.190  0.00  0.00    +0.000 A 
ATOM      3  C   UNL     1      -0.065  10.337  21.877  0.00  0.00    +0.000 A 
ATOM      4  C   UNL     1       0.397   9.092  21.435  0.00  0.00    +0.000 A 
ATOM      5  C   UNL     1       1.034   9.012  20.192  0.00  0.00    +0.000 A 
ATOM      6  C   UNL     1       1.780   7.898  19.788  0.00  0.00    +0.000 A 
ATOM      7  C   UNL     1       2.385   7.901  18.529  0.00  0.00    +0.000 A 
ATOM      8  C   UNL     1       1.877   8.733  17.553  0.00  0.00    +0.000 A 
ATOM      9  C   UNL     1       1.272   9.900  17.980  0.00  0.00    +0.000 A 
ATOM     10  C   UNL     1       1.066  10.134  19.353  0.00  0.00    +0.000 A 
ENDROOT
BRANCH   1  14
ATOM     11  C   UNL     1       3.408  14.894  18.816  0.00  0.00    +0.000 A 
ATOM     12  C   UNL     1       3.339  14.483  20.148  0.00  0.00    +0.000 A 
ATOM     13  C   UNL     1       2.608  13.334  20.488  0.00  0.00    +0.000 A 
ATOM     14  C   UNL     1       1.937  12.530  19.536  0.00  0.00    +0.000 A 
ATOM     15  C   UNL     1       2.019  12.984  18.207  0.00  0.00    +0.000 A 
ATOM     16  C   UNL     1       2.732  14.147  17.849  0.00  0.00    +0.000 A 
BRANCH  11  18
ATOM     17  C   UNL     1       5.634  16.184  18.918  0.00  0.00    +0.000 C 
ATOM     18  C   UNL     1       4.180  16.126  18.501  0.00  0.00    +0.000 C 
ATOM     19  O   UNL     1       3.640  17.070  17.949  0.00  0.00    +0.000 OA
ENDBRANCH  11  18
ENDBRANCH   1  14
BRANCH   3  20
ATOM     20  C   UNL     1      -0.809  10.472  23.142  0.00  0.00    +0.000 C 
ATOM     21  O   UNL     1      -1.752  11.239  23.281  0.00  0.00    +0.000 OA
BRANCH  20  22
ATOM     22  O   UNL     1      -0.390   9.615  24.090  0.00  0.00    +0.000 OA
ATOM     23  H   UNL     1      -0.594   9.890  25.006  0.00  0.00    +0.000 HD
ENDBRANCH  20  22
ENDBRANCH   3  20
BRANCH   7  24
ATOM     24  O   UNL     1       3.575   7.241  18.459  0.00  0.00    +0.000 OA
BRANCH  24  25
ATOM     25  C   UNL     1       3.810   6.059  19.232  0.00  0.00    +0.000 C 
BRANCH  25  26
ATOM     26  C   UNL     1       3.149   4.784  18.690  0.00  0.00    +0.000 A 
ATOM     27  C   UNL     1       3.633   4.156  17.507  0.00  0.00    +0.000 A 
ATOM     28  C   UNL     1       4.741   4.708  16.643  0.00  0.00    +0.000 C 
ATOM     29  C   UNL     1       3.123   2.906  17.113  0.00  0.00    +0.000 A 
ATOM     30  C   UNL     1       2.129   2.270  17.836  0.00  0.00    +0.000 A 
ATOM     31  C   UNL     1       1.622   2.880  18.978  0.00  0.00    +0.000 A 
ATOM     32  C   UNL     1       2.119   4.117  19.418  0.00  0.00    +0.000 A 
ATOM     33  C   UNL     1       1.455   4.688  20.654  0.00  0.00    +0.000 C 
ENDBRANCH  25  26
ENDBRANCH  24  25
ENDBRANCH   7  24
TORSDOF 7
ENDMDL
MODEL 4
REMARK VINA RESULT:      -8.4      3.647      8.054
REMARK  Name = 
REMARK  10 active torsions:
REMARK  status: ('A' for Active; 'I' for Inactive)
REMARK    1  A    between atoms: C_1  and  C_2
REMARK    2  A    between atoms: C_2  and  C_4
REMARK    3  A    between atoms: C_7  and  C_8
REMARK    4  A    between atoms: C_10  and  C_11
REMARK    5  A    between atoms: C_11  and  O_13
REMARK    6  A    between atoms: C_17  and  O_18
REMARK    7  A    between atoms: O_18  and  C_19
REMARK    8  A    between atoms: C_19  and  C_20
REMARK    9  A    between atoms: C_21  and  C_22
REMARK   10  A    between atoms: C_26  and  C_27
REMARK                            x       y       z     vdW  Elec       q    Type
REMARK                         _______ _______ _______ _____ _____    ______ ____
ROOT
ATOM      1  C   UNL     1       0.510  11.267  19.742  0.00  0.00    +0.000 A 
ATOM      2  C   UNL     1      -0.045  11.353  21.026  0.00  0.00    +0.000 A 
ATOM      3  C   UNL     1      -0.165  10.230  21.849  0.00  0.00    +0.000 A 
ATOM      4  C   UNL     1       0.460   9.039  21.463  0.00  0.00    +0.000 A 
ATOM      5  C   UNL     1       0.973   8.937  20.165  0.00  0.00    +0.000 A 
ATOM      6  C   UNL     1       1.858   7.925  19.772  0.00  0.00    +0.000 A 
ATOM      7  C   UNL     1       2.323   7.898  18.456  0.00  0.00    +0.000 A 
ATOM      8  C   UNL     1       1.582   8.530  17.479  0.00  0.00    +0.000 A 
ATOM      9  C   UNL     1       0.828   9.619  17.873  0.00  0.00    +0.000 A 
ATOM     10  C   UNL     1       0.724   9.957  19.236  0.00  0.00    +0.000 A 
ENDROOT
BRANCH   1  14
ATOM     11  C   UNL     1       2.654  14.778  18.244  0.00  0.00    +0.000 A 
ATOM     12  C   UNL     1       3.211  13.503  18.141  0.00  0.00    +0.000 A 
ATOM     13  C   UNL     1       2.485  12.385  18.579  0.00  0.00    +0.000 A 
ATOM     14  C   UNL     1       1.177  12.469  19.113  0.00  0.00    +0.000 A 
ATOM     15  C   UNL     1       0.655  13.771  19.213  0.00  0.00    +0.000 A 
ATOM     16  C   UNL     1       1.378  14.909  18.796  0.00  0.00    +0.000 A 
BRANCH  11  18
ATOM     17  C   UNL     1       4.799  16.188  18.452  0.00  0.00    +0.000 C 
ATOM     18  C   UNL     1       3.464  15.938  17.783  0.00  0.00    +0.000 C 
ATOM     19  O   UNL     1       3.044  16.677  16.909  0.00  0.00    +0.000 OA
ENDBRANCH  11  18
ENDBRANCH   1  14
BRANCH   3  20
ATOM     20  C   UNL     1      -0.790  10.371  23.177  0.00  0.00    +0.000 C 
ATOM     21  O   UNL     1      -1.785  11.055  23.374  0.00  0.00    +0.000 OA
BRANCH  20  22
ATOM     22  O   UNL     1      -0.198   9.614  24.117  0.00  0.00    +0.000 OA
ATOM     23  H   UNL     1      -0.571   9.715  25.015  0.00  0.00    +0.000 HD
ENDBRANCH  20  22
ENDBRANCH   3  20
BRANCH   7  24
ATOM     24  O   UNL     1       3.597   7.439  18.303  0.00  0.00    +0.000 OA
BRANCH  24  25
ATOM     25  C   UNL     1       4.079   6.329  19.070  0.00  0.00    +0.000 C 
BRANCH  25  26
ATOM     26  C   UNL     1       3.502   4.963  18.670  0.00  0.00    +0.000 A 
ATOM     27  C   UNL     1       2.578   4.284  19.515  0.00  0.00    +0.000 A 
ATOM     28  C   UNL     1       2.160   4.768  20.881  0.00  0.00    +0.000 C 
ATOM     29  C   UNL     1       1.938   3.115  19.064  0.00  0.00    +0.000 A 
ATOM     30  C   UNL     1       2.203   2.582  17.814  0.00  0.00    +0.000 A 
ATOM     31  C   UNL     1       3.124   3.214  16.986  0.00  0.00    +0.000 A 
ATOM     32  C   UNL     1       3.768   4.394  17.388  0.00  0.00    +0.000 A 
ATOM     33  C   UNL     1       4.774   4.960  16.407  0.00  0.00    +0.000 C 
ENDBRANCH  25  26
ENDBRANCH  24  25
ENDBRANCH   7  24
TORSDOF 7
ENDMDL
MODEL 5
REMARK VINA RESULT:      -8.3      3.404      8.263
REMARK  Name = 
REMARK  10 active torsions:
REMARK  status: ('A' for Active; 'I' for Inactive)
REMARK    1  A    between atoms: C_1  and  C_2
REMARK    2  A    between atoms: C_2  and  C_4
REMARK    3  A    between atoms: C_7  and  C_8
REMARK    4  A    between atoms: C_10  and  C_11
REMARK    5  A    between atoms: C_11  and  O_13
REMARK    6  A    between atoms: C_17  and  O_18
REMARK    7  A    between atoms: O_18  and  C_19
REMARK    8  A    between atoms: C_19  and  C_20
REMARK    9  A    between atoms: C_21  and  C_22
REMARK   10  A    between atoms: C_26  and  C_27
REMARK                            x       y       z     vdW  Elec       q    Type
REMARK                         _______ _______ _______ _____ _____    ______ ____
ROOT
ATOM      1  C   UNL     1       0.555  11.230  19.733  0.00  0.00    +0.000 A 
ATOM      2  C   UNL     1       0.023  11.256  21.029  0.00  0.00    +0.000 A 
ATOM      3  C   UNL     1      -0.034  10.106  21.821  0.00  0.00    +0.000 A 
ATOM      4  C   UNL     1       0.632   8.953  21.388  0.00  0.00    +0.000 A 
ATOM      5  C   UNL     1       1.123   8.910  20.078  0.00  0.00    +0.000 A 
ATOM      6  C   UNL     1       2.040   7.947  19.639  0.00  0.00    +0.000 A 
ATOM      7  C   UNL     1       2.480   7.978  18.314  0.00  0.00    +0.000 A 
ATOM      8  C   UNL     1       1.693   8.606  17.370  0.00  0.00    +0.000 A 
ATOM      9  C   UNL     1       0.904   9.651  17.811  0.00  0.00    +0.000 A 
ATOM     10  C   UNL     1       0.813   9.945  19.185  0.00  0.00    +0.000 A 
ENDROOT
BRANCH   1  14
ATOM     11  C   UNL     1       2.519  14.872  18.301  0.00  0.00    +0.000 A 
ATOM     12  C   UNL     1       3.133  13.627  18.160  0.00  0.00    +0.000 A 
ATOM     13  C   UNL     1       2.464  12.466  18.578  0.00  0.00    +0.000 A 
ATOM     14  C   UNL     1       1.159  12.476  19.128  0.00  0.00    +0.000 A 
ATOM     15  C   UNL     1       0.580  13.751  19.266  0.00  0.00    +0.000 A 
ATOM     16  C   UNL     1       1.245  14.930  18.869  0.00  0.00    +0.000 A 
BRANCH  11  18
ATOM     17  C   UNL     1       4.589  16.385  18.536  0.00  0.00    +0.000 C 
ATOM     18  C   UNL     1       3.270  16.078  17.860  0.00  0.00    +0.000 C 
ATOM     19  O   UNL     1       2.814  16.809  16.997  0.00  0.00    +0.000 OA
ENDBRANCH  11  18
ENDBRANCH   1  14
BRANCH   3  20
ATOM     20  C   UNL     1      -0.637  10.182  23.164  0.00  0.00    +0.000 C 
ATOM     21  O   UNL     1      -1.639  10.841  23.406  0.00  0.00    +0.000 OA
BRANCH  20  22
ATOM     22  O   UNL     1      -0.016   9.397  24.062  0.00  0.00    +0.000 OA
ATOM     23  H   UNL     1      -0.222   9.606  24.995  0.00  0.00    +0.000 HD
ENDBRANCH  20  22
ENDBRANCH   3  20
BRANCH   7  24
ATOM     24  O   UNL     1       3.767   7.577  18.124  0.00  0.00    +0.000 OA
BRANCH  24  25
ATOM     25  C   UNL     1       4.210   6.285  18.554  0.00  0.00    +0.000 C 
BRANCH  25  26
ATOM     26  C   UNL     1       4.988   5.480  17.503  0.00  0.00    +0.000 A 
ATOM     27  C   UNL     1       4.405   4.343  16.875  0.00  0.00    +0.000 A 
ATOM     28  C   UNL     1       3.054   3.773  17.231  0.00  0.00    +0.000 C 
ATOM     29  C   UNL     1       5.064   3.714  15.803  0.00  0.00    +0.000 A 
ATOM     30  C   UNL     1       6.295   4.159  15.350  0.00  0.00    +0.000 A 
ATOM     31  C   UNL     1       6.893   5.250  15.969  0.00  0.00    +0.000 A 
ATOM     32  C   UNL     1       6.260   5.919  17.027  0.00  0.00    +0.000 A 
ATOM     33  C   UNL     1       7.037   7.069  17.636  0.00  0.00    +0.000 C 
ENDBRANCH  25  26
ENDBRANCH  24  25
ENDBRANCH   7  24
TORSDOF 7
ENDMDL
MODEL 6
REMARK VINA RESULT:      -8.3      3.510      8.214
REMARK  Name = 
REMARK  10 active torsions:
REMARK  status: ('A' for Active; 'I' for Inactive)
REMARK    1  A    between atoms: C_1  and  C_2
REMARK    2  A    between atoms: C_2  and  C_4
REMARK    3  A    between atoms: C_7  and  C_8
REMARK    4  A    between atoms: C_10  and  C_11
REMARK    5  A    between atoms: C_11  and  O_13
REMARK    6  A    between atoms: C_17  and  O_18
REMARK    7  A    between atoms: O_18  and  C_19
REMARK    8  A    between atoms: C_19  and  C_20
REMARK    9  A    between atoms: C_21  and  C_22
REMARK   10  A    between atoms: C_26  and  C_27
REMARK                            x       y       z     vdW  Elec       q    Type
REMARK                         _______ _______ _______ _____ _____    ______ ____
ROOT
ATOM      1  C   UNL     1       0.511  11.249  19.768  0.00  0.00    +0.000 A 
ATOM      2  C   UNL     1      -0.031  11.311  21.058  0.00  0.00    +0.000 A 
ATOM      3  C   UNL     1      -0.123  10.176  21.869  0.00  0.00    +0.000 A 
ATOM      4  C   UNL     1       0.518   9.000  21.462  0.00  0.00    +0.000 A 
ATOM      5  C   UNL     1       1.017   8.922  20.157  0.00  0.00    +0.000 A 
ATOM      6  C   UNL     1       1.914   7.929  19.743  0.00  0.00    +0.000 A 
ATOM      7  C   UNL     1       2.365   7.926  18.421  0.00  0.00    +0.000 A 
ATOM      8  C   UNL     1       1.602   8.557  17.460  0.00  0.00    +0.000 A 
ATOM      9  C   UNL     1       0.835   9.629  17.876  0.00  0.00    +0.000 A 
ATOM     10  C   UNL     1       0.741   9.949  19.244  0.00  0.00    +0.000 A 
ENDROOT
BRANCH   1  14
ATOM     11  C   UNL     1       2.603  14.793  18.273  0.00  0.00    +0.000 A 
ATOM     12  C   UNL     1       3.122  13.515  18.062  0.00  0.00    +0.000 A 
ATOM     13  C   UNL     1       2.409  12.389  18.503  0.00  0.00    +0.000 A 
ATOM     14  C   UNL     1       1.151  12.469  19.146  0.00  0.00    +0.000 A 
ATOM     15  C   UNL     1       0.667  13.774  19.352  0.00  0.00    +0.000 A 
ATOM     16  C   UNL     1       1.378  14.918  18.933  0.00  0.00    +0.000 A 
BRANCH  11  18
ATOM     17  C   UNL     1       4.266  16.684  18.812  0.00  0.00    +0.000 C 
ATOM     18  C   UNL     1       3.398  15.960  17.804  0.00  0.00    +0.000 C 
ATOM     19  O   UNL     1       3.324  16.333  16.646  0.00  0.00    +0.000 OA
ENDBRANCH  11  18
ENDBRANCH   1  14
BRANCH   3  20
ATOM     20  C   UNL     1      -0.735  10.291  23.205  0.00  0.00    +0.000 C 
ATOM     21  O   UNL     1      -1.739  10.956  23.422  0.00  0.00    +0.000 OA
BRANCH  20  22
ATOM     22  O   UNL     1      -0.120   9.532  24.130  0.00  0.00    +0.000 OA
ATOM     23  H   UNL     1       0.840   9.415  23.987  0.00  0.00    +0.000 HD
ENDBRANCH  20  22
ENDBRANCH   3  20
BRANCH   7  24
ATOM     24  O   UNL     1       3.644   7.490  18.249  0.00  0.00    +0.000 OA
BRANCH  24  25
ATOM     25  C   UNL     1       3.932   6.350  17.431  0.00  0.00    +0.000 C 
BRANCH  25  26
ATOM     26  C   UNL     1       3.902   5.000  18.163  0.00  0.00    +0.000 A 
ATOM     27  C   UNL     1       5.036   4.539  18.891  0.00  0.00    +0.000 A 
ATOM     28  C   UNL     1       6.366   5.251  18.938  0.00  0.00    +0.000 C 
ATOM     29  C   UNL     1       4.940   3.382  19.686  0.00  0.00    +0.000 A 
ATOM     30  C   UNL     1       3.766   2.653  19.763  0.00  0.00    +0.000 A 
ATOM     31  C   UNL     1       2.657   3.071  19.037  0.00  0.00    +0.000 A 
ATOM     32  C   UNL     1       2.703   4.232  18.249  0.00  0.00    +0.000 A 
ATOM     33  C   UNL     1       1.437   4.554  17.481  0.00  0.00    +0.000 C 
ENDBRANCH  25  26
ENDBRANCH  24  25
ENDBRANCH   7  24
TORSDOF 7
ENDMDL
MODEL 7
REMARK VINA RESULT:      -8.1      3.556      7.977
REMARK  Name = 
REMARK  10 active torsions:
REMARK  status: ('A' for Active; 'I' for Inactive)
REMARK    1  A    between atoms: C_1  and  C_2
REMARK    2  A    between atoms: C_2  and  C_4
REMARK    3  A    between atoms: C_7  and  C_8
REMARK    4  A    between atoms: C_10  and  C_11
REMARK    5  A    between atoms: C_11  and  O_13
REMARK    6  A    between atoms: C_17  and  O_18
REMARK    7  A    between atoms: O_18  and  C_19
REMARK    8  A    between atoms: C_19  and  C_20
REMARK    9  A    between atoms: C_21  and  C_22
REMARK   10  A    between atoms: C_26  and  C_27
REMARK                            x       y       z     vdW  Elec       q    Type
REMARK                         _______ _______ _______ _____ _____    ______ ____
ROOT
ATOM      1  C   UNL     1       0.747  11.161  19.890  0.00  0.00    +0.000 A 
ATOM      2  C   UNL     1       0.175  11.177  21.169  0.00  0.00    +0.000 A 
ATOM      3  C   UNL     1      -0.003  10.004  21.908  0.00  0.00    +0.000 A 
ATOM      4  C   UNL     1       0.581   8.819  21.445  0.00  0.00    +0.000 A 
ATOM      5  C   UNL     1       1.111   8.790  20.150  0.00  0.00    +0.000 A 
ATOM      6  C   UNL     1       1.960   7.773  19.697  0.00  0.00    +0.000 A 
ATOM      7  C   UNL     1       2.446   7.821  18.388  0.00  0.00    +0.000 A 
ATOM      8  C   UNL     1       1.746   8.552  17.450  0.00  0.00    +0.000 A 
ATOM      9  C   UNL     1       1.030   9.639  17.912  0.00  0.00    +0.000 A 
ATOM     10  C   UNL     1       0.917   9.882  19.294  0.00  0.00    +0.000 A 
ENDROOT
BRANCH   1  14
ATOM     11  C   UNL     1       3.165  14.544  18.521  0.00  0.00    +0.000 A 
ATOM     12  C   UNL     1       3.162  13.338  17.820  0.00  0.00    +0.000 A 
ATOM     13  C   UNL     1       2.340  12.283  18.245  0.00  0.00    +0.000 A 
ATOM     14  C   UNL     1       1.471  12.376  19.360  0.00  0.00    +0.000 A 
ATOM     15  C   UNL     1       1.513  13.602  20.048  0.00  0.00    +0.000 A 
ATOM     16  C   UNL     1       2.347  14.666  19.646  0.00  0.00    +0.000 A 
BRANCH  11  18
ATOM     17  C   UNL     1       5.526  15.303  17.828  0.00  0.00    +0.000 C 
ATOM     18  C   UNL     1       4.064  15.630  18.046  0.00  0.00    +0.000 C 
ATOM     19  O   UNL     1       3.632  16.756  17.867  0.00  0.00    +0.000 OA
ENDBRANCH  11  18
ENDBRANCH   1  14
BRANCH   3  20
ATOM     20  C   UNL     1      -0.643  10.074  23.233  0.00  0.00    +0.000 C 
ATOM     21  O   UNL     1      -1.655  10.728  23.450  0.00  0.00    +0.000 OA
BRANCH  20  22
ATOM     22  O   UNL     1      -0.043   9.291  24.147  0.00  0.00    +0.000 OA
ATOM     23  H   UNL     1      -0.487   8.433  24.302  0.00  0.00    +0.000 HD
ENDBRANCH  20  22
ENDBRANCH   3  20
BRANCH   7  24
ATOM     24  O   UNL     1       3.702   7.323  18.220  0.00  0.00    +0.000 OA
BRANCH  24  25
ATOM     25  C   UNL     1       3.926   6.115  17.484  0.00  0.00    +0.000 C 
BRANCH  25  26
ATOM     26  C   UNL     1       3.808   4.822  18.305  0.00  0.00    +0.000 A 
ATOM     27  C   UNL     1       2.636   4.015  18.232  0.00  0.00    +0.000 A 
ATOM     28  C   UNL     1       1.399   4.380  17.450  0.00  0.00    +0.000 C 
ATOM     29  C   UNL     1       2.607   2.758  18.861  0.00  0.00    +0.000 A 
ATOM     30  C   UNL     1       3.690   2.284  19.583  0.00  0.00    +0.000 A 
ATOM     31  C   UNL     1       4.832   3.070  19.689  0.00  0.00    +0.000 A 
ATOM     32  C   UNL     1       4.911   4.321  19.058  0.00  0.00    +0.000 A 
ATOM     33  C   UNL     1       6.197   5.090  19.284  0.00  0.00    +0.000 C 
ENDBRANCH  25  26
ENDBRANCH  24  25
ENDBRANCH   7  24
TORSDOF 7
ENDMDL
MODEL 8
REMARK VINA RESULT:      -8.1      0.689      1.978
REMARK  Name = 
REMARK  10 active torsions:
REMARK  status: ('A' for Active; 'I' for Inactive)
REMARK    1  A    between atoms: C_1  and  C_2
REMARK    2  A    between atoms: C_2  and  C_4
REMARK    3  A    between atoms: C_7  and  C_8
REMARK    4  A    between atoms: C_10  and  C_11
REMARK    5  A    between atoms: C_11  and  O_13
REMARK    6  A    between atoms: C_17  and  O_18
REMARK    7  A    between atoms: O_18  and  C_19
REMARK    8  A    between atoms: C_19  and  C_20
REMARK    9  A    between atoms: C_21  and  C_22
REMARK   10  A    between atoms: C_26  and  C_27
REMARK                            x       y       z     vdW  Elec       q    Type
REMARK                         _______ _______ _______ _____ _____    ______ ____
ROOT
ATOM      1  C   UNL     1       6.671   5.427  16.915  0.00  0.00    +0.000 A 
ATOM      2  C   UNL     1       6.778   5.048  15.571  0.00  0.00    +0.000 A 
ATOM      3  C   UNL     1       5.767   4.324  14.931  0.00  0.00    +0.000 A 
ATOM      4  C   UNL     1       4.543   4.148  15.587  0.00  0.00    +0.000 A 
ATOM      5  C   UNL     1       4.450   4.483  16.942  0.00  0.00    +0.000 A 
ATOM      6  C   UNL     1       3.227   4.622  17.610  0.00  0.00    +0.000 A 
ATOM      7  C   UNL     1       3.225   4.961  18.965  0.00  0.00    +0.000 A 
ATOM      8  C   UNL     1       4.351   4.694  19.716  0.00  0.00    +0.000 A 
ATOM      9  C   UNL     1       5.562   4.707  19.051  0.00  0.00    +0.000 A 
ATOM     10  C   UNL     1       5.604   4.843  17.651  0.00  0.00    +0.000 A 
ENDROOT
BRANCH   1  14
ATOM     11  C   UNL     1       8.502   8.999  18.663  0.00  0.00    +0.000 A 
ATOM     12  C   UNL     1       8.710   7.741  19.228  0.00  0.00    +0.000 A 
ATOM     13  C   UNL     1       8.157   6.602  18.622  0.00  0.00    +0.000 A 
ATOM     14  C   UNL     1       7.399   6.648  17.427  0.00  0.00    +0.000 A 
ATOM     15  C   UNL     1       7.201   7.935  16.896  0.00  0.00    +0.000 A 
ATOM     16  C   UNL     1       7.732   9.093  17.501  0.00  0.00    +0.000 A 
BRANCH  11  18
ATOM     17  C   UNL     1       9.840  11.193  18.504  0.00  0.00    +0.000 C 
ATOM     18  C   UNL     1       9.092  10.182  19.346  0.00  0.00    +0.000 C 
ATOM     19  O   UNL     1       8.996  10.309  20.555  0.00  0.00    +0.000 OA
ENDBRANCH  11  18
ENDBRANCH   1  14
BRANCH   3  20
ATOM     20  C   UNL     1       5.946   3.919  13.525  0.00  0.00    +0.000 C 
ATOM     21  O   UNL     1       7.042   3.877  12.980  0.00  0.00    +0.000 OA
BRANCH  20  22
ATOM     22  O   UNL     1       4.799   3.535  12.939  0.00  0.00    +0.000 OA
ATOM     23  H   UNL     1       4.159   3.106  13.541  0.00  0.00    +0.000 HD
ENDBRANCH  20  22
ENDBRANCH   3  20
BRANCH   7  24
ATOM     24  O   UNL     1       2.181   5.740  19.363  0.00  0.00    +0.000 OA
BRANCH  24  25
ATOM     25  C   UNL     1       2.389   6.886  20.196  0.00  0.00    +0.000 C 
BRANCH  25  26
ATOM     26  C   UNL     1       1.795   8.197  19.660  0.00  0.00    +0.000 A 
ATOM     27  C   UNL     1       2.189   8.713  18.393  0.00  0.00    +0.000 A 
ATOM     28  C   UNL     1       3.260   8.104  17.521  0.00  0.00    +0.000 C 
ATOM     29  C   UNL     1       1.522   9.823  17.846  0.00  0.00    +0.000 A 
ATOM     30  C   UNL     1       0.494  10.456  18.524  0.00  0.00    +0.000 A 
ATOM     31  C   UNL     1       0.114   9.985  19.775  0.00  0.00    +0.000 A 
ATOM     32  C   UNL     1       0.739   8.866  20.348  0.00  0.00    +0.000 A 
ATOM     33  C   UNL     1       0.254   8.480  21.731  0.00  0.00    +0.000 C 
ENDBRANCH  25  26
ENDBRANCH  24  25
ENDBRANCH   7  24
TORSDOF 7
ENDMDL
MODEL 9
REMARK VINA RESULT:      -8.1      3.446      8.183
REMARK  Name = 
REMARK  10 active torsions:
REMARK  status: ('A' for Active; 'I' for Inactive)
REMARK    1  A    between atoms: C_1  and  C_2
REMARK    2  A    between atoms: C_2  and  C_4
REMARK    3  A    between atoms: C_7  and  C_8
REMARK    4  A    between atoms: C_10  and  C_11
REMARK    5  A    between atoms: C_11  and  O_13
REMARK    6  A    between atoms: C_17  and  O_18
REMARK    7  A    between atoms: O_18  and  C_19
REMARK    8  A    between atoms: C_19  and  C_20
REMARK    9  A    between atoms: C_21  and  C_22
REMARK   10  A    between atoms: C_26  and  C_27
REMARK                            x       y       z     vdW  Elec       q    Type
REMARK                         _______ _______ _______ _____ _____    ______ ____
ROOT
ATOM      1  C   UNL     1       0.544  10.998  19.907  0.00  0.00    +0.000 A 
ATOM      2  C   UNL     1       0.130  10.971  21.246  0.00  0.00    +0.000 A 
ATOM      3  C   UNL     1       0.185   9.799  22.006  0.00  0.00    +0.000 A 
ATOM      4  C   UNL     1       0.851   8.684  21.482  0.00  0.00    +0.000 A 
ATOM      5  C   UNL     1       1.223   8.693  20.134  0.00  0.00    +0.000 A 
ATOM      6  C   UNL     1       2.131   7.778  19.587  0.00  0.00    +0.000 A 
ATOM      7  C   UNL     1       2.448   7.859  18.229  0.00  0.00    +0.000 A 
ATOM      8  C   UNL     1       1.558   8.481  17.378  0.00  0.00    +0.000 A 
ATOM      9  C   UNL     1       0.775   9.483  17.917  0.00  0.00    +0.000 A 
ATOM     10  C   UNL     1       0.797   9.738  19.301  0.00  0.00    +0.000 A 
ENDROOT
BRANCH   1  14
ATOM     11  C   UNL     1       2.128  14.815  18.463  0.00  0.00    +0.000 A 
ATOM     12  C   UNL     1       2.961  13.704  18.605  0.00  0.00    +0.000 A 
ATOM     13  C   UNL     1       2.423  12.476  19.019  0.00  0.00    +0.000 A 
ATOM     14  C   UNL     1       1.046  12.281  19.287  0.00  0.00    +0.000 A 
ATOM     15  C   UNL     1       0.243  13.427  19.146  0.00  0.00    +0.000 A 
ATOM     16  C   UNL     1       0.769  14.674  18.749  0.00  0.00    +0.000 A 
BRANCH  11  18
ATOM     17  C   UNL     1       2.573  17.306  18.939  0.00  0.00    +0.000 C 
ATOM     18  C   UNL     1       2.742  16.102  18.037  0.00  0.00    +0.000 C 
ATOM     19  O   UNL     1       3.338  16.182  16.976  0.00  0.00    +0.000 OA
ENDBRANCH  11  18
ENDBRANCH   1  14
BRANCH   3  20
ATOM     20  C   UNL     1      -0.297   9.817  23.399  0.00  0.00    +0.000 C 
ATOM     21  O   UNL     1       0.399   9.482  24.348  0.00  0.00    +0.000 OA
BRANCH  20  22
ATOM     22  O   UNL     1      -1.544  10.308  23.515  0.00  0.00    +0.000 OA
ATOM     23  H   UNL     1      -1.618  11.098  24.086  0.00  0.00    +0.000 HD
ENDBRANCH  20  22
ENDBRANCH   3  20
BRANCH   7  24
ATOM     24  O   UNL     1       3.727   7.513  17.915  0.00  0.00    +0.000 OA
BRANCH  24  25
ATOM     25  C   UNL     1       4.020   6.260  17.285  0.00  0.00    +0.000 C 
BRANCH  25  26
ATOM     26  C   UNL     1       3.934   5.034  18.205  0.00  0.00    +0.000 A 
ATOM     27  C   UNL     1       2.758   4.231  18.245  0.00  0.00    +0.000 A 
ATOM     28  C   UNL     1       1.488   4.544  17.491  0.00  0.00    +0.000 C 
ATOM     29  C   UNL     1       2.752   3.025  18.967  0.00  0.00    +0.000 A 
ATOM     30  C   UNL     1       3.864   2.600  19.674  0.00  0.00    +0.000 A 
ATOM     31  C   UNL     1       5.012   3.383  19.671  0.00  0.00    +0.000 A 
ATOM     32  C   UNL     1       5.068   4.583  18.945  0.00  0.00    +0.000 A 
ATOM     33  C   UNL     1       6.365   5.358  19.056  0.00  0.00    +0.000 C 
ENDBRANCH  25  26
ENDBRANCH  24  25
ENDBRANCH   7  24
TORSDOF 7
ENDMDL
