MODEL 1
REMARK VINA RESULT:      -8.9      0.000      0.000
REMARK  Name = 
REMARK  6 active torsions:
REMARK  status: ('A' for Active; 'I' for Inactive)
REMARK    1  A    between atoms: O_1  and  N_2
REMARK    2  A    between atoms: C_3  and  C_12
REMARK    3  A    between atoms: N_4  and  C_5
REMARK    4  A    between atoms: C_5  and  C_6
REMARK    5  A    between atoms: C_17  and  O_18
REMARK    6  A    between atoms: O_18  and  C_19
REMARK                            x       y       z     vdW  Elec       q    Type
REMARK                         _______ _______ _______ _____ _____    ______ ____
ROOT
ATOM      1  C   UNL     1       3.410   3.845  18.491  0.00  0.00    +0.000 A 
ATOM      2  C   UNL     1       2.864   2.619  18.068  0.00  0.00    +0.000 A 
ATOM      3  C   UNL     1       1.622   2.189  18.523  0.00  0.00    +0.000 A 
ATOM      4  C   UNL     1       0.925   3.023  19.367  0.00  0.00    +0.000 A 
ATOM      5  N   UNL     1       1.394   4.215  19.780  0.00  0.00    +0.000 NA
ATOM      6  C   UNL     1       2.646   4.595  19.380  0.00  0.00    +0.000 A 
ENDROOT
BRANCH   1   8
ATOM      7  N   UNL     1       5.731   4.026  18.840  0.00  0.00    +0.000 NA
ATOM      8  C   UNL     1       4.783   4.205  17.961  0.00  0.00    +0.000 C 
ATOM      9  N   UNL     1       4.907   4.596  16.644  0.00  0.00    +0.000 N 
ATOM     10  H   UNL     1       4.086   4.561  16.048  0.00  0.00    +0.000 HD
BRANCH   7  11
ATOM     11  O   UNL     1       7.020   4.160  18.341  0.00  0.00    +0.000 OA
ATOM     12  H   UNL     1       6.856   4.350  17.399  0.00  0.00    +0.000 HD
ENDBRANCH   7  11
BRANCH   9  13
ATOM     13  C   UNL     1       5.962   5.420  16.077  0.00  0.00    +0.000 C 
BRANCH  13  14
ATOM     14  C   UNL     1       6.370   4.934  14.697  0.00  0.00    +0.000 A 
ATOM     15  C   UNL     1       5.607   3.982  14.019  0.00  0.00    +0.000 A 
ATOM     16  C   UNL     1       5.994   3.580  12.743  0.00  0.00    +0.000 A 
ATOM     17  C   UNL     1       7.132   4.130  12.174  0.00  0.00    +0.000 A 
ATOM     18  C   UNL     1       7.844   5.065  12.912  0.00  0.00    +0.000 A 
ATOM     19  N   UNL     1       7.489   5.480  14.149  0.00  0.00    +0.000 NA
ENDBRANCH  13  14
ENDBRANCH   9  13
ENDBRANCH   1   8
BRANCH   6  20
ATOM     20  O   UNL     1       3.164   5.766  19.937  0.00  0.00    +0.000 OA
BRANCH  20  21
ATOM     21  C   UNL     1       2.507   6.943  19.623  0.00  0.00    +0.000 A 
ATOM     22  C   UNL     1       1.814   7.697  20.583  0.00  0.00    +0.000 A 
ATOM     23  C   UNL     1       1.101   8.837  20.203  0.00  0.00    +0.000 A 
ATOM     24  C   UNL     1       1.126   9.255  18.875  0.00  0.00    +0.000 A 
ATOM     25 CL   UNL     1       0.231  10.648  18.403  0.00  0.00    +0.000 Cl
ATOM     26  C   UNL     1       1.865   8.548  17.927  0.00  0.00    +0.000 A 
ATOM     27  C   UNL     1       2.562   7.391  18.301  0.00  0.00    +0.000 A 
ENDBRANCH  20  21
ENDBRANCH   6  20
TORSDOF 6
ENDMDL
MODEL 2
REMARK VINA RESULT:      -8.6      0.972      1.080
REMARK  Name = 
REMARK  6 active torsions:
REMARK  status: ('A' for Active; 'I' for Inactive)
REMARK    1  A    between atoms: O_1  and  N_2
REMARK    2  A    between atoms: C_3  and  C_12
REMARK    3  A    between atoms: N_4  and  C_5
REMARK    4  A    between atoms: C_5  and  C_6
REMARK    5  A    between atoms: C_17  and  O_18
REMARK    6  A    between atoms: O_18  and  C_19
REMARK                            x       y       z     vdW  Elec       q    Type
REMARK                         _______ _______ _______ _____ _____    ______ ____
ROOT
ATOM      1  C   UNL     1       4.037   3.981  18.682  0.00  0.00    +0.000 A 
ATOM      2  C   UNL     1       3.929   2.812  19.459  0.00  0.00    +0.000 A 
ATOM      3  C   UNL     1       2.699   2.383  19.945  0.00  0.00    +0.000 A 
ATOM      4  C   UNL     1       1.585   3.116  19.607  0.00  0.00    +0.000 A 
ATOM      5  N   UNL     1       1.634   4.227  18.848  0.00  0.00    +0.000 NA
ATOM      6  C   UNL     1       2.857   4.676  18.433  0.00  0.00    +0.000 A 
ENDROOT
BRANCH   1   8
ATOM      7  N   UNL     1       6.257   4.551  19.221  0.00  0.00    +0.000 NA
ATOM      8  C   UNL     1       5.427   4.379  18.228  0.00  0.00    +0.000 C 
ATOM      9  N   UNL     1       5.692   4.443  16.876  0.00  0.00    +0.000 N 
ATOM     10  H   UNL     1       4.970   4.152  16.225  0.00  0.00    +0.000 HD
BRANCH   7  11
ATOM     11  O   UNL     1       7.583   4.728  18.846  0.00  0.00    +0.000 OA
ATOM     12  H   UNL     1       8.061   4.300  19.579  0.00  0.00    +0.000 HD
ENDBRANCH   7  11
BRANCH   9  13
ATOM     13  C   UNL     1       6.727   5.234  16.230  0.00  0.00    +0.000 C 
BRANCH  13  14
ATOM     14  C   UNL     1       6.876   4.869  14.763  0.00  0.00    +0.000 A 
ATOM     15  C   UNL     1       6.027   3.933  14.170  0.00  0.00    +0.000 A 
ATOM     16  C   UNL     1       6.172   3.642  12.815  0.00  0.00    +0.000 A 
ATOM     17  C   UNL     1       7.160   4.285  12.086  0.00  0.00    +0.000 A 
ATOM     18  C   UNL     1       7.970   5.196  12.746  0.00  0.00    +0.000 A 
ATOM     19  N   UNL     1       7.848   5.505  14.057  0.00  0.00    +0.000 NA
ENDBRANCH  13  14
ENDBRANCH   9  13
ENDBRANCH   1   8
BRANCH   6  20
ATOM     20  O   UNL     1       2.892   5.905  17.771  0.00  0.00    +0.000 OA
BRANCH  20  21
ATOM     21  C   UNL     1       2.399   6.996  18.465  0.00  0.00    +0.000 A 
ATOM     22  C   UNL     1       2.201   6.977  19.854  0.00  0.00    +0.000 A 
ATOM     23  C   UNL     1       1.629   8.076  20.500  0.00  0.00    +0.000 A 
ATOM     24  C   UNL     1       1.304   9.214  19.766  0.00  0.00    +0.000 A 
ATOM     25 CL   UNL     1       0.579  10.560  20.558  0.00  0.00    +0.000 Cl
ATOM     26  C   UNL     1       1.557   9.265  18.396  0.00  0.00    +0.000 A 
ATOM     27  C   UNL     1       2.110   8.156  17.742  0.00  0.00    +0.000 A 
ENDBRANCH  20  21
ENDBRANCH   6  20
TORSDOF 6
ENDMDL
MODEL 3
REMARK VINA RESULT:      -8.1      0.640      1.383
REMARK  Name = 
REMARK  6 active torsions:
REMARK  status: ('A' for Active; 'I' for Inactive)
REMARK    1  A    between atoms: O_1  and  N_2
REMARK    2  A    between atoms: C_3  and  C_12
REMARK    3  A    between atoms: N_4  and  C_5
REMARK    4  A    between atoms: C_5  and  C_6
REMARK    5  A    between atoms: C_17  and  O_18
REMARK    6  A    between atoms: O_18  and  C_19
REMARK                            x       y       z     vdW  Elec       q    Type
REMARK                         _______ _______ _______ _____ _____    ______ ____
ROOT
ATOM      1  C   UNL     1       3.235   3.924  18.548  0.00  0.00    +0.000 A 
ATOM      2  C   UNL     1       2.672   2.686  18.187  0.00  0.00    +0.000 A 
ATOM      3  C   UNL     1       1.434   2.287  18.681  0.00  0.00    +0.000 A 
ATOM      4  C   UNL     1       0.759   3.163  19.500  0.00  0.00    +0.000 A 
ATOM      5  N   UNL     1       1.245   4.367  19.854  0.00  0.00    +0.000 NA
ATOM      6  C   UNL     1       2.493   4.717  19.417  0.00  0.00    +0.000 A 
ENDROOT
BRANCH   1   8
ATOM      7  N   UNL     1       5.566   4.074  18.844  0.00  0.00    +0.000 NA
ATOM      8  C   UNL     1       4.603   4.248  17.981  0.00  0.00    +0.000 C 
ATOM      9  N   UNL     1       4.705   4.605  16.653  0.00  0.00    +0.000 N 
ATOM     10  H   UNL     1       3.870   4.570  16.075  0.00  0.00    +0.000 HD
BRANCH   7  11
ATOM     11  O   UNL     1       6.847   4.174  18.315  0.00  0.00    +0.000 OA
ATOM     12  H   UNL     1       6.833   3.494  17.617  0.00  0.00    +0.000 HD
ENDBRANCH   7  11
BRANCH   9  13
ATOM     13  C   UNL     1       5.760   5.398  16.044  0.00  0.00    +0.000 C 
BRANCH  13  14
ATOM     14  C   UNL     1       6.129   4.875  14.666  0.00  0.00    +0.000 A 
ATOM     15  C   UNL     1       7.324   5.255  14.053  0.00  0.00    +0.000 A 
ATOM     16  C   UNL     1       7.645   4.735  12.802  0.00  0.00    +0.000 A 
ATOM     17  C   UNL     1       6.767   3.854  12.188  0.00  0.00    +0.000 A 
ATOM     18  C   UNL     1       5.595   3.529  12.856  0.00  0.00    +0.000 A 
ATOM     19  N   UNL     1       5.261   4.012  14.074  0.00  0.00    +0.000 NA
ENDBRANCH  13  14
ENDBRANCH   9  13
ENDBRANCH   1   8
BRANCH   6  20
ATOM     20  O   UNL     1       3.030   5.907  19.916  0.00  0.00    +0.000 OA
BRANCH  20  21
ATOM     21  C   UNL     1       2.391   7.077  19.546  0.00  0.00    +0.000 A 
ATOM     22  C   UNL     1       2.369   7.535  18.219  0.00  0.00    +0.000 A 
ATOM     23  C   UNL     1       1.777   8.761  17.906  0.00  0.00    +0.000 A 
ATOM     24  C   UNL     1       1.161   9.505  18.910  0.00  0.00    +0.000 A 
ATOM     25 CL   UNL     1       0.452  11.026  18.528  0.00  0.00    +0.000 Cl
ATOM     26  C   UNL     1       1.124   9.027  20.219  0.00  0.00    +0.000 A 
ATOM     27  C   UNL     1       1.736   7.808  20.539  0.00  0.00    +0.000 A 
ENDBRANCH  20  21
ENDBRANCH   6  20
TORSDOF 6
ENDMDL
MODEL 4
REMARK VINA RESULT:      -8.1      1.248      1.678
REMARK  Name = 
REMARK  6 active torsions:
REMARK  status: ('A' for Active; 'I' for Inactive)
REMARK    1  A    between atoms: O_1  and  N_2
REMARK    2  A    between atoms: C_3  and  C_12
REMARK    3  A    between atoms: N_4  and  C_5
REMARK    4  A    between atoms: C_5  and  C_6
REMARK    5  A    between atoms: C_17  and  O_18
REMARK    6  A    between atoms: O_18  and  C_19
REMARK                            x       y       z     vdW  Elec       q    Type
REMARK                         _______ _______ _______ _____ _____    ______ ____
ROOT
ATOM      1  C   UNL     1       3.716   4.820  17.756  0.00  0.00    +0.000 A 
ATOM      2  C   UNL     1       3.363   3.599  17.151  0.00  0.00    +0.000 A 
ATOM      3  C   UNL     1       2.193   2.934  17.505  0.00  0.00    +0.000 A 
ATOM      4  C   UNL     1       1.372   3.530  18.434  0.00  0.00    +0.000 A 
ATOM      5  N   UNL     1       1.655   4.708  19.021  0.00  0.00    +0.000 NA
ATOM      6  C   UNL     1       2.840   5.318  18.716  0.00  0.00    +0.000 A 
ENDROOT
BRANCH   1   8
ATOM      7  N   UNL     1       4.909   6.710  17.014  0.00  0.00    +0.000 NA
ATOM      8  C   UNL     1       5.026   5.447  17.323  0.00  0.00    +0.000 C 
ATOM      9  N   UNL     1       6.175   4.685  17.368  0.00  0.00    +0.000 N 
ATOM     10  H   UNL     1       6.122   3.748  17.757  0.00  0.00    +0.000 HD
BRANCH   7  11
ATOM     11  O   UNL     1       6.112   7.369  16.798  0.00  0.00    +0.000 OA
ATOM     12  H   UNL     1       6.613   7.150  17.604  0.00  0.00    +0.000 HD
ENDBRANCH   7  11
BRANCH   9  13
ATOM     13  C   UNL     1       7.382   4.885  16.582  0.00  0.00    +0.000 C 
BRANCH  13  14
ATOM     14  C   UNL     1       7.131   4.650  15.102  0.00  0.00    +0.000 A 
ATOM     15  C   UNL     1       6.140   3.764  14.677  0.00  0.00    +0.000 A 
ATOM     16  C   UNL     1       5.917   3.593  13.313  0.00  0.00    +0.000 A 
ATOM     17  C   UNL     1       6.688   4.302  12.405  0.00  0.00    +0.000 A 
ATOM     18  C   UNL     1       7.660   5.158  12.903  0.00  0.00    +0.000 A 
ATOM     19  N   UNL     1       7.893   5.350  14.221  0.00  0.00    +0.000 NA
ENDBRANCH  13  14
ENDBRANCH   9  13
ENDBRANCH   1   8
BRANCH   6  20
ATOM     20  O   UNL     1       3.173   6.462  19.445  0.00  0.00    +0.000 OA
BRANCH  20  21
ATOM     21  C   UNL     1       2.325   7.548  19.313  0.00  0.00    +0.000 A 
ATOM     22  C   UNL     1       2.101   8.181  18.081  0.00  0.00    +0.000 A 
ATOM     23  C   UNL     1       1.296   9.322  18.010  0.00  0.00    +0.000 A 
ATOM     24  C   UNL     1       0.674   9.798  19.162  0.00  0.00    +0.000 A 
ATOM     25 CL   UNL     1      -0.300  11.215  19.080  0.00  0.00    +0.000 Cl
ATOM     26  C   UNL     1       0.841   9.136  20.378  0.00  0.00    +0.000 A 
ATOM     27  C   UNL     1       1.665   8.006  20.455  0.00  0.00    +0.000 A 
ENDBRANCH  20  21
ENDBRANCH   6  20
TORSDOF 6
ENDMDL
MODEL 5
REMARK VINA RESULT:      -8.0      1.989      2.827
REMARK  Name = 
REMARK  6 active torsions:
REMARK  status: ('A' for Active; 'I' for Inactive)
REMARK    1  A    between atoms: O_1  and  N_2
REMARK    2  A    between atoms: C_3  and  C_12
REMARK    3  A    between atoms: N_4  and  C_5
REMARK    4  A    between atoms: C_5  and  C_6
REMARK    5  A    between atoms: C_17  and  O_18
REMARK    6  A    between atoms: O_18  and  C_19
REMARK                            x       y       z     vdW  Elec       q    Type
REMARK                         _______ _______ _______ _____ _____    ______ ____
ROOT
ATOM      1  C   UNL     1       2.957   4.064  18.450  0.00  0.00    +0.000 A 
ATOM      2  C   UNL     1       2.308   2.825  18.605  0.00  0.00    +0.000 A 
ATOM      3  C   UNL     1       1.339   2.637  19.584  0.00  0.00    +0.000 A 
ATOM      4  C   UNL     1       1.004   3.717  20.370  0.00  0.00    +0.000 A 
ATOM      5  N   UNL     1       1.579   4.927  20.244  0.00  0.00    +0.000 NA
ATOM      6  C   UNL     1       2.579   5.079  19.324  0.00  0.00    +0.000 A 
ENDROOT
BRANCH   1   8
ATOM      7  N   UNL     1       4.625   3.017  17.160  0.00  0.00    +0.000 NA
ATOM      8  C   UNL     1       4.020   4.154  17.375  0.00  0.00    +0.000 C 
ATOM      9  N   UNL     1       4.188   5.347  16.703  0.00  0.00    +0.000 N 
ATOM     10  H   UNL     1       3.546   6.109  16.898  0.00  0.00    +0.000 HD
BRANCH   7  11
ATOM     11  O   UNL     1       5.469   3.007  16.057  0.00  0.00    +0.000 OA
ATOM     12  H   UNL     1       4.932   3.464  15.385  0.00  0.00    +0.000 HD
ENDBRANCH   7  11
BRANCH   9  13
ATOM     13  C   UNL     1       5.393   5.804  16.031  0.00  0.00    +0.000 C 
BRANCH  13  14
ATOM     14  C   UNL     1       6.410   6.354  17.017  0.00  0.00    +0.000 A 
ATOM     15  C   UNL     1       6.880   5.569  18.071  0.00  0.00    +0.000 A 
ATOM     16  C   UNL     1       7.833   6.094  18.940  0.00  0.00    +0.000 A 
ATOM     17  C   UNL     1       8.290   7.388  18.744  0.00  0.00    +0.000 A 
ATOM     18  C   UNL     1       7.770   8.109  17.680  0.00  0.00    +0.000 A 
ATOM     19  N   UNL     1       6.851   7.624  16.815  0.00  0.00    +0.000 NA
ENDBRANCH  13  14
ENDBRANCH   9  13
ENDBRANCH   1   8
BRANCH   6  20
ATOM     20  O   UNL     1       3.254   6.302  19.314  0.00  0.00    +0.000 OA
BRANCH  20  21
ATOM     21  C   UNL     1       2.472   7.440  19.219  0.00  0.00    +0.000 A 
ATOM     22  C   UNL     1       1.804   7.988  20.325  0.00  0.00    +0.000 A 
ATOM     23  C   UNL     1       0.963   9.093  20.165  0.00  0.00    +0.000 A 
ATOM     24  C   UNL     1       0.832   9.682  18.910  0.00  0.00    +0.000 A 
ATOM     25 CL   UNL     1      -0.220  11.030  18.708  0.00  0.00    +0.000 Cl
ATOM     26  C   UNL     1       1.542   9.183  17.819  0.00  0.00    +0.000 A 
ATOM     27  C   UNL     1       2.368   8.061  17.973  0.00  0.00    +0.000 A 
ENDBRANCH  20  21
ENDBRANCH   6  20
TORSDOF 6
ENDMDL
MODEL 6
REMARK VINA RESULT:      -7.9      2.734      5.398
REMARK  Name = 
REMARK  6 active torsions:
REMARK  status: ('A' for Active; 'I' for Inactive)
REMARK    1  A    between atoms: O_1  and  N_2
REMARK    2  A    between atoms: C_3  and  C_12
REMARK    3  A    between atoms: N_4  and  C_5
REMARK    4  A    between atoms: C_5  and  C_6
REMARK    5  A    between atoms: C_17  and  O_18
REMARK    6  A    between atoms: O_18  and  C_19
REMARK                            x       y       z     vdW  Elec       q    Type
REMARK                         _______ _______ _______ _____ _____    ______ ____
ROOT
ATOM      1  C   UNL     1       5.766   5.194  17.915  0.00  0.00    +0.000 A 
ATOM      2  C   UNL     1       7.166   5.335  17.956  0.00  0.00    +0.000 A 
ATOM      3  C   UNL     1       7.772   6.564  17.721  0.00  0.00    +0.000 A 
ATOM      4  C   UNL     1       6.956   7.648  17.491  0.00  0.00    +0.000 A 
ATOM      5  N   UNL     1       5.613   7.568  17.466  0.00  0.00    +0.000 NA
ATOM      6  C   UNL     1       5.032   6.341  17.630  0.00  0.00    +0.000 A 
ENDROOT
BRANCH   1   8
ATOM      7  N   UNL     1       4.732   3.256  17.069  0.00  0.00    +0.000 NA
ATOM      8  C   UNL     1       5.208   3.806  18.153  0.00  0.00    +0.000 C 
ATOM      9  N   UNL     1       5.319   3.250  19.411  0.00  0.00    +0.000 N 
ATOM     10  H   UNL     1       5.836   3.758  20.122  0.00  0.00    +0.000 HD
BRANCH   7  11
ATOM     11  O   UNL     1       4.387   1.917  17.200  0.00  0.00    +0.000 OA
ATOM     12  H   UNL     1       4.976   1.623  17.918  0.00  0.00    +0.000 HD
ENDBRANCH   7  11
BRANCH   9  13
ATOM     13  C   UNL     1       4.474   2.214  19.981  0.00  0.00    +0.000 C 
BRANCH  13  14
ATOM     14  C   UNL     1       3.012   2.629  19.993  0.00  0.00    +0.000 A 
ATOM     15  C   UNL     1       2.533   3.531  20.944  0.00  0.00    +0.000 A 
ATOM     16  C   UNL     1       1.194   3.912  20.910  0.00  0.00    +0.000 A 
ATOM     17  C   UNL     1       0.363   3.383  19.934  0.00  0.00    +0.000 A 
ATOM     18  C   UNL     1       0.909   2.486  19.028  0.00  0.00    +0.000 A 
ATOM     19  N   UNL     1       2.207   2.103  19.032  0.00  0.00    +0.000 NA
ENDBRANCH  13  14
ENDBRANCH   9  13
ENDBRANCH   1   8
BRANCH   6  20
ATOM     20  O   UNL     1       3.647   6.264  17.457  0.00  0.00    +0.000 OA
BRANCH  20  21
ATOM     21  C   UNL     1       2.881   7.135  18.212  0.00  0.00    +0.000 A 
ATOM     22  C   UNL     1       2.603   6.908  19.569  0.00  0.00    +0.000 A 
ATOM     23  C   UNL     1       1.760   7.775  20.270  0.00  0.00    +0.000 A 
ATOM     24  C   UNL     1       1.238   8.897  19.630  0.00  0.00    +0.000 A 
ATOM     25 CL   UNL     1       0.183   9.952  20.487  0.00  0.00    +0.000 Cl
ATOM     26  C   UNL     1       1.561   9.163  18.300  0.00  0.00    +0.000 A 
ATOM     27  C   UNL     1       2.388   8.283  17.588  0.00  0.00    +0.000 A 
ENDBRANCH  20  21
ENDBRANCH   6  20
TORSDOF 6
ENDMDL
MODEL 7
REMARK VINA RESULT:      -7.9      1.902      2.969
REMARK  Name = 
REMARK  6 active torsions:
REMARK  status: ('A' for Active; 'I' for Inactive)
REMARK    1  A    between atoms: O_1  and  N_2
REMARK    2  A    between atoms: C_3  and  C_12
REMARK    3  A    between atoms: N_4  and  C_5
REMARK    4  A    between atoms: C_5  and  C_6
REMARK    5  A    between atoms: C_17  and  O_18
REMARK    6  A    between atoms: O_18  and  C_19
REMARK                            x       y       z     vdW  Elec       q    Type
REMARK                         _______ _______ _______ _____ _____    ______ ____
ROOT
ATOM      1  C   UNL     1       3.112   3.813  17.979  0.00  0.00    +0.000 A 
ATOM      2  C   UNL     1       2.435   2.580  17.941  0.00  0.00    +0.000 A 
ATOM      3  C   UNL     1       1.404   2.298  18.830  0.00  0.00    +0.000 A 
ATOM      4  C   UNL     1       1.040   3.281  19.722  0.00  0.00    +0.000 A 
ATOM      5  N   UNL     1       1.641   4.484  19.781  0.00  0.00    +0.000 NA
ATOM      6  C   UNL     1       2.698   4.723  18.946  0.00  0.00    +0.000 A 
ENDROOT
BRANCH   1   8
ATOM      7  N   UNL     1       4.895   2.907  16.736  0.00  0.00    +0.000 NA
ATOM      8  C   UNL     1       4.241   4.008  16.987  0.00  0.00    +0.000 C 
ATOM      9  N   UNL     1       4.416   5.251  16.413  0.00  0.00    +0.000 N 
ATOM     10  H   UNL     1       3.739   5.979  16.617  0.00  0.00    +0.000 HD
BRANCH   7  11
ATOM     11  O   UNL     1       5.810   2.998  15.695  0.00  0.00    +0.000 OA
ATOM     12  H   UNL     1       5.288   3.445  15.004  0.00  0.00    +0.000 HD
ENDBRANCH   7  11
BRANCH   9  13
ATOM     13  C   UNL     1       5.648   5.787  15.859  0.00  0.00    +0.000 C 
BRANCH  13  14
ATOM     14  C   UNL     1       6.572   6.307  16.947  0.00  0.00    +0.000 A 
ATOM     15  C   UNL     1       6.946   5.493  18.017  0.00  0.00    +0.000 A 
ATOM     16  C   UNL     1       7.816   5.993  18.982  0.00  0.00    +0.000 A 
ATOM     17  C   UNL     1       8.289   7.290  18.863  0.00  0.00    +0.000 A 
ATOM     18  C   UNL     1       7.866   8.042  17.777  0.00  0.00    +0.000 A 
ATOM     19  N   UNL     1       7.028   7.582  16.820  0.00  0.00    +0.000 NA
ENDBRANCH  13  14
ENDBRANCH   9  13
ENDBRANCH   1   8
BRANCH   6  20
ATOM     20  O   UNL     1       3.392   5.922  19.127  0.00  0.00    +0.000 OA
BRANCH  20  21
ATOM     21  C   UNL     1       2.649   7.086  19.040  0.00  0.00    +0.000 A 
ATOM     22  C   UNL     1       2.519   7.807  17.843  0.00  0.00    +0.000 A 
ATOM     23  C   UNL     1       1.822   9.019  17.822  0.00  0.00    +0.000 A 
ATOM     24  C   UNL     1       1.211   9.483  18.984  0.00  0.00    +0.000 A 
ATOM     25 CL   UNL     1       0.371  10.985  18.963  0.00  0.00    +0.000 Cl
ATOM     26  C   UNL     1       1.282   8.740  20.162  0.00  0.00    +0.000 A 
ATOM     27  C   UNL     1       1.999   7.536  20.191  0.00  0.00    +0.000 A 
ENDBRANCH  20  21
ENDBRANCH   6  20
TORSDOF 6
ENDMDL
MODEL 8
REMARK VINA RESULT:      -7.9      1.127      1.682
REMARK  Name = 
REMARK  6 active torsions:
REMARK  status: ('A' for Active; 'I' for Inactive)
REMARK    1  A    between atoms: O_1  and  N_2
REMARK    2  A    between atoms: C_3  and  C_12
REMARK    3  A    between atoms: N_4  and  C_5
REMARK    4  A    between atoms: C_5  and  C_6
REMARK    5  A    between atoms: C_17  and  O_18
REMARK    6  A    between atoms: O_18  and  C_19
REMARK                            x       y       z     vdW  Elec       q    Type
REMARK                         _______ _______ _______ _____ _____    ______ ____
ROOT
ATOM      1  C   UNL     1       3.946   3.987  18.392  0.00  0.00    +0.000 A 
ATOM      2  C   UNL     1       3.636   2.723  18.929  0.00  0.00    +0.000 A 
ATOM      3  C   UNL     1       2.324   2.371  19.228  0.00  0.00    +0.000 A 
ATOM      4  C   UNL     1       1.334   3.284  18.942  0.00  0.00    +0.000 A 
ATOM      5  N   UNL     1       1.579   4.494  18.407  0.00  0.00    +0.000 NA
ATOM      6  C   UNL     1       2.879   4.854  18.181  0.00  0.00    +0.000 A 
ENDROOT
BRANCH   1   8
ATOM      7  N   UNL     1       6.038   4.713  19.192  0.00  0.00    +0.000 NA
ATOM      8  C   UNL     1       5.409   4.283  18.133  0.00  0.00    +0.000 C 
ATOM      9  N   UNL     1       5.931   4.012  16.885  0.00  0.00    +0.000 N 
ATOM     10  H   UNL     1       5.338   3.554  16.199  0.00  0.00    +0.000 HD
BRANCH   7  11
ATOM     11  O   UNL     1       7.416   4.814  19.050  0.00  0.00    +0.000 OA
ATOM     12  H   UNL     1       7.523   4.792  18.082  0.00  0.00    +0.000 HD
ENDBRANCH   7  11
BRANCH   9  13
ATOM     13  C   UNL     1       7.096   4.634  16.276  0.00  0.00    +0.000 C 
BRANCH  13  14
ATOM     14  C   UNL     1       7.050   4.542  14.760  0.00  0.00    +0.000 A 
ATOM     15  C   UNL     1       7.882   5.338  13.971  0.00  0.00    +0.000 A 
ATOM     16  C   UNL     1       7.835   5.208  12.585  0.00  0.00    +0.000 A 
ATOM     17  C   UNL     1       6.960   4.294  12.018  0.00  0.00    +0.000 A 
ATOM     18  C   UNL     1       6.160   3.544  12.867  0.00  0.00    +0.000 A 
ATOM     19  N   UNL     1       6.188   3.643  14.215  0.00  0.00    +0.000 NA
ENDBRANCH  13  14
ENDBRANCH   9  13
ENDBRANCH   1   8
BRANCH   6  20
ATOM     20  O   UNL     1       3.111   6.166  17.761  0.00  0.00    +0.000 OA
BRANCH  20  21
ATOM     21  C   UNL     1       2.439   7.163  18.445  0.00  0.00    +0.000 A 
ATOM     22  C   UNL     1       1.927   8.302  17.804  0.00  0.00    +0.000 A 
ATOM     23  C   UNL     1       1.323   9.319  18.548  0.00  0.00    +0.000 A 
ATOM     24  C   UNL     1       1.184   9.175  19.926  0.00  0.00    +0.000 A 
ATOM     25 CL   UNL     1       0.460  10.437  20.846  0.00  0.00    +0.000 Cl
ATOM     26  C   UNL     1       1.633   8.018  20.563  0.00  0.00    +0.000 A 
ATOM     27  C   UNL     1       2.259   7.007  19.822  0.00  0.00    +0.000 A 
ENDBRANCH  20  21
ENDBRANCH   6  20
TORSDOF 6
ENDMDL
MODEL 9
REMARK VINA RESULT:      -7.7      2.060      3.083
REMARK  Name = 
REMARK  6 active torsions:
REMARK  status: ('A' for Active; 'I' for Inactive)
REMARK    1  A    between atoms: O_1  and  N_2
REMARK    2  A    between atoms: C_3  and  C_12
REMARK    3  A    between atoms: N_4  and  C_5
REMARK    4  A    between atoms: C_5  and  C_6
REMARK    5  A    between atoms: C_17  and  O_18
REMARK    6  A    between atoms: O_18  and  C_19
REMARK                            x       y       z     vdW  Elec       q    Type
REMARK                         _______ _______ _______ _____ _____    ______ ____
ROOT
ATOM      1  C   UNL     1       2.898   4.069  18.605  0.00  0.00    +0.000 A 
ATOM      2  C   UNL     1       2.259   2.825  18.767  0.00  0.00    +0.000 A 
ATOM      3  C   UNL     1       1.302   2.632  19.756  0.00  0.00    +0.000 A 
ATOM      4  C   UNL     1       0.969   3.710  20.545  0.00  0.00    +0.000 A 
ATOM      5  N   UNL     1       1.535   4.924  20.413  0.00  0.00    +0.000 NA
ATOM      6  C   UNL     1       2.523   5.082  19.482  0.00  0.00    +0.000 A 
ENDROOT
BRANCH   1   8
ATOM      7  N   UNL     1       4.563   3.033  17.301  0.00  0.00    +0.000 NA
ATOM      8  C   UNL     1       3.949   4.165  17.518  0.00  0.00    +0.000 C 
ATOM      9  N   UNL     1       4.099   5.357  16.840  0.00  0.00    +0.000 N 
ATOM     10  H   UNL     1       3.452   6.114  17.040  0.00  0.00    +0.000 HD
BRANCH   7  11
ATOM     11  O   UNL     1       5.395   3.027  16.189  0.00  0.00    +0.000 OA
ATOM     12  H   UNL     1       4.811   3.382  15.494  0.00  0.00    +0.000 HD
ENDBRANCH   7  11
BRANCH   9  13
ATOM     13  C   UNL     1       5.293   5.823  16.154  0.00  0.00    +0.000 C 
BRANCH  13  14
ATOM     14  C   UNL     1       6.378   6.233  17.135  0.00  0.00    +0.000 A 
ATOM     15  C   UNL     1       6.907   7.525  17.117  0.00  0.00    +0.000 A 
ATOM     16  C   UNL     1       7.880   7.876  18.049  0.00  0.00    +0.000 A 
ATOM     17  C   UNL     1       8.308   6.934  18.972  0.00  0.00    +0.000 A 
ATOM     18  C   UNL     1       7.742   5.668  18.922  0.00  0.00    +0.000 A 
ATOM     19  N   UNL     1       6.790   5.301  18.035  0.00  0.00    +0.000 NA
ENDBRANCH  13  14
ENDBRANCH   9  13
ENDBRANCH   1   8
BRANCH   6  20
ATOM     20  O   UNL     1       3.190   6.310  19.464  0.00  0.00    +0.000 OA
BRANCH  20  21
ATOM     21  C   UNL     1       2.409   7.435  19.274  0.00  0.00    +0.000 A 
ATOM     22  C   UNL     1       2.259   8.043  18.018  0.00  0.00    +0.000 A 
ATOM     23  C   UNL     1       1.522   9.224  17.889  0.00  0.00    +0.000 A 
ATOM     24  C   UNL     1       0.891   9.767  19.005  0.00  0.00    +0.000 A 
ATOM     25 CL   UNL     1       0.001  11.233  18.850  0.00  0.00    +0.000 Cl
ATOM     26  C   UNL     1       0.982   9.134  20.244  0.00  0.00    +0.000 A 
ATOM     27  C   UNL     1       1.739   7.963  20.380  0.00  0.00    +0.000 A 
ENDBRANCH  20  21
ENDBRANCH   6  20
TORSDOF 6
ENDMDL
