MODEL 1
REMARK VINA RESULT:      -6.6      0.000      0.000
REMARK  Name = 
REMARK  7 active torsions:
REMARK  status: ('A' for Active; 'I' for Inactive)
REMARK    1  A    between atoms: C_1  and  C_2
REMARK    2  A    between atoms: C_2  and  N_3
REMARK    3  A    between atoms: N_3  and  C_4
REMARK    4  A    between atoms: N_3  and  C_12
REMARK    5  A    between atoms: C_4  and  C_5
REMARK    6  A    between atoms: C_8  and  C_9
REMARK    7  A    between atoms: C_16  and  O_17
REMARK                            x       y       z     vdW  Elec       q    Type
REMARK                         _______ _______ _______ _____ _____    ______ ____
ROOT
ATOM      1  N   UNL     1       3.893   4.293  19.344  0.00  0.00    +0.000 NA
ENDROOT
BRANCH   1   2
ATOM      2  C   UNL     1       3.675   2.818  19.502  0.00  0.00    +0.000 C 
ATOM      3  C   UNL     1       2.245   2.436  19.961  0.00  0.00    +0.000 C 
ATOM      4  O   UNL     1       1.444   2.137  18.804  0.00  0.00    +0.000 OA
ATOM      5  C   UNL     1       2.315   2.102  17.664  0.00  0.00    +0.000 C 
ATOM      6  C   UNL     1       3.723   1.975  18.215  0.00  0.00    +0.000 C 
BRANCH   6   7
ATOM      7  O   UNL     1       3.998   0.603  18.547  0.00  0.00    +0.000 OA
ATOM      8  H   UNL     1       4.410   0.182  17.769  0.00  0.00    +0.000 HD
ENDBRANCH   6   7
ENDBRANCH   1   2
BRANCH   1  10
ATOM      9  C   UNL     1       2.508   6.413  19.628  0.00  0.00    +0.000 C 
ATOM     10  C   UNL     1       2.965   5.068  20.193  0.00  0.00    +0.000 C 
ENDBRANCH   1  10
BRANCH   1  11
ATOM     11  C   UNL     1       5.310   4.701  19.471  0.00  0.00    +0.000 C 
BRANCH  11  12
ATOM     12  C   UNL     1       6.110   4.698  18.213  0.00  0.00    +0.000 A 
ATOM     13  N   UNL     1       7.397   4.237  18.152  0.00  0.00    +0.000 N 
ATOM     14  N   UNL     1       7.935   4.262  16.925  0.00  0.00    +0.000 NA
ATOM     15  C   UNL     1       6.986   4.833  16.171  0.00  0.00    +0.000 A 
ATOM     16  C   UNL     1       7.214   5.038  14.719  0.00  0.00    +0.000 C 
ATOM     17  C   UNL     1       5.852   5.176  16.945  0.00  0.00    +0.000 A 
ATOM     18 CL   UNL     1       4.479   6.002  16.390  0.00  0.00    +0.000 Cl
ATOM     19  H   UNL     1       7.965   3.867  18.905  0.00  0.00    +0.000 HD
ENDBRANCH  11  12
ENDBRANCH   1  11
TORSDOF 5
ENDMDL
MODEL 2
REMARK VINA RESULT:      -6.3      3.248      5.175
REMARK  Name = 
REMARK  7 active torsions:
REMARK  status: ('A' for Active; 'I' for Inactive)
REMARK    1  A    between atoms: C_1  and  C_2
REMARK    2  A    between atoms: C_2  and  N_3
REMARK    3  A    between atoms: N_3  and  C_4
REMARK    4  A    between atoms: N_3  and  C_12
REMARK    5  A    between atoms: C_4  and  C_5
REMARK    6  A    between atoms: C_8  and  C_9
REMARK    7  A    between atoms: C_16  and  O_17
REMARK                            x       y       z     vdW  Elec       q    Type
REMARK                         _______ _______ _______ _____ _____    ______ ____
ROOT
ATOM      1  N   UNL     1       4.683   6.114  17.570  0.00  0.00    +0.000 NA
ENDROOT
BRANCH   1   2
ATOM      2  C   UNL     1       5.946   6.317  16.788  0.00  0.00    +0.000 C 
ATOM      3  C   UNL     1       7.022   7.150  17.531  0.00  0.00    +0.000 C 
ATOM      4  O   UNL     1       7.926   6.256  18.204  0.00  0.00    +0.000 OA
ATOM      5  C   UNL     1       7.623   4.919  17.776  0.00  0.00    +0.000 C 
ATOM      6  C   UNL     1       6.793   5.061  16.514  0.00  0.00    +0.000 C 
BRANCH   6   7
ATOM      7  O   UNL     1       7.652   5.296  15.385  0.00  0.00    +0.000 OA
ATOM      8  H   UNL     1       7.295   6.055  14.888  0.00  0.00    +0.000 HD
ENDBRANCH   6   7
ENDBRANCH   1   2
BRANCH   1  10
ATOM      9  C   UNL     1       2.626   7.350  18.424  0.00  0.00    +0.000 C 
ATOM     10  C   UNL     1       3.755   7.251  17.399  0.00  0.00    +0.000 C 
ENDBRANCH   1  10
BRANCH   1  11
ATOM     11  C   UNL     1       4.059   4.789  17.358  0.00  0.00    +0.000 C 
BRANCH  11  12
ATOM     12  C   UNL     1       3.921   3.926  18.565  0.00  0.00    +0.000 A 
ATOM     13  N   UNL     1       4.933   3.132  19.031  0.00  0.00    +0.000 N 
ATOM     14  N   UNL     1       4.642   2.470  20.159  0.00  0.00    +0.000 NA
ATOM     15  C   UNL     1       3.362   2.788  20.396  0.00  0.00    +0.000 A 
ATOM     16  C   UNL     1       2.668   2.239  21.586  0.00  0.00    +0.000 C 
ATOM     17  C   UNL     1       2.853   3.648  19.393  0.00  0.00    +0.000 A 
ATOM     18 CL   UNL     1       1.254   4.201  19.272  0.00  0.00    +0.000 Cl
ATOM     19  H   UNL     1       5.861   3.009  18.642  0.00  0.00    +0.000 HD
ENDBRANCH  11  12
ENDBRANCH   1  11
TORSDOF 5
ENDMDL
MODEL 3
REMARK VINA RESULT:      -6.3      1.478      1.677
REMARK  Name = 
REMARK  7 active torsions:
REMARK  status: ('A' for Active; 'I' for Inactive)
REMARK    1  A    between atoms: C_1  and  C_2
REMARK    2  A    between atoms: C_2  and  N_3
REMARK    3  A    between atoms: N_3  and  C_4
REMARK    4  A    between atoms: N_3  and  C_12
REMARK    5  A    between atoms: C_4  and  C_5
REMARK    6  A    between atoms: C_8  and  C_9
REMARK    7  A    between atoms: C_16  and  O_17
REMARK                            x       y       z     vdW  Elec       q    Type
REMARK                         _______ _______ _______ _____ _____    ______ ____
ROOT
ATOM      1  N   UNL     1       3.402   4.869  19.035  0.00  0.00    +0.000 NA
ENDROOT
BRANCH   1   2
ATOM      2  C   UNL     1       2.823   4.312  20.301  0.00  0.00    +0.000 C 
ATOM      3  C   UNL     1       1.276   4.373  20.369  0.00  0.00    +0.000 C 
ATOM      4  O   UNL     1       0.736   3.120  19.914  0.00  0.00    +0.000 OA
ATOM      5  C   UNL     1       1.827   2.202  19.756  0.00  0.00    +0.000 C 
ATOM      6  C   UNL     1       2.991   2.798  20.525  0.00  0.00    +0.000 C 
BRANCH   6   7
ATOM      7  O   UNL     1       2.859   2.500  21.926  0.00  0.00    +0.000 OA
ATOM      8  H   UNL     1       3.440   1.743  22.129  0.00  0.00    +0.000 HD
ENDBRANCH   6   7
ENDBRANCH   1   2
BRANCH   1  10
ATOM      9  C   UNL     1       2.597   7.263  18.703  0.00  0.00    +0.000 C 
ATOM     10  C   UNL     1       2.452   5.780  18.364  0.00  0.00    +0.000 C 
ENDBRANCH   1  10
BRANCH   1  11
ATOM     11  C   UNL     1       4.762   5.430  19.200  0.00  0.00    +0.000 C 
BRANCH  11  12
ATOM     12  C   UNL     1       5.727   5.149  18.099  0.00  0.00    +0.000 A 
ATOM     13  N   UNL     1       6.847   4.383  18.271  0.00  0.00    +0.000 N 
ATOM     14  N   UNL     1       7.565   4.195  17.154  0.00  0.00    +0.000 NA
ATOM     15  C   UNL     1       6.925   4.931  16.235  0.00  0.00    +0.000 A 
ATOM     16  C   UNL     1       7.428   4.978  14.841  0.00  0.00    +0.000 C 
ATOM     17  C   UNL     1       5.805   5.592  16.795  0.00  0.00    +0.000 A 
ATOM     18 CL   UNL     1       4.793   6.691  15.993  0.00  0.00    +0.000 Cl
ATOM     19  H   UNL     1       7.175   3.935  19.119  0.00  0.00    +0.000 HD
ENDBRANCH  11  12
ENDBRANCH   1  11
TORSDOF 5
ENDMDL
MODEL 4
REMARK VINA RESULT:      -6.3      1.940      2.178
REMARK  Name = 
REMARK  7 active torsions:
REMARK  status: ('A' for Active; 'I' for Inactive)
REMARK    1  A    between atoms: C_1  and  C_2
REMARK    2  A    between atoms: C_2  and  N_3
REMARK    3  A    between atoms: N_3  and  C_4
REMARK    4  A    between atoms: N_3  and  C_12
REMARK    5  A    between atoms: C_4  and  C_5
REMARK    6  A    between atoms: C_8  and  C_9
REMARK    7  A    between atoms: C_16  and  O_17
REMARK                            x       y       z     vdW  Elec       q    Type
REMARK                         _______ _______ _______ _____ _____    ______ ____
ROOT
ATOM      1  N   UNL     1       3.041   5.344  19.496  0.00  0.00    +0.000 NA
ENDROOT
BRANCH   1   2
ATOM      2  C   UNL     1       2.475   4.483  20.585  0.00  0.00    +0.000 C 
ATOM      3  C   UNL     1       0.959   4.196  20.439  0.00  0.00    +0.000 C 
ATOM      4  O   UNL     1       0.782   2.942  19.755  0.00  0.00    +0.000 OA
ATOM      5  C   UNL     1       2.070   2.319  19.639  0.00  0.00    +0.000 C 
ATOM      6  C   UNL     1       2.970   3.026  20.635  0.00  0.00    +0.000 C 
BRANCH   6   7
ATOM      7  O   UNL     1       2.759   2.491  21.954  0.00  0.00    +0.000 OA
ATOM      8  H   UNL     1       3.308   1.691  22.045  0.00  0.00    +0.000 HD
ENDBRANCH   6   7
ENDBRANCH   1   2
BRANCH   1  10
ATOM      9  C   UNL     1       2.542   7.517  18.263  0.00  0.00    +0.000 C 
ATOM     10  C   UNL     1       2.511   6.721  19.567  0.00  0.00    +0.000 C 
ENDBRANCH   1  10
BRANCH   1  11
ATOM     11  C   UNL     1       4.515   5.270  19.385  0.00  0.00    +0.000 C 
BRANCH  11  12
ATOM     12  C   UNL     1       5.056   4.884  18.051  0.00  0.00    +0.000 A 
ATOM     13  N   UNL     1       4.523   3.874  17.298  0.00  0.00    +0.000 N 
ATOM     14  N   UNL     1       5.108   3.709  16.103  0.00  0.00    +0.000 NA
ATOM     15  C   UNL     1       6.111   4.597  16.111  0.00  0.00    +0.000 A 
ATOM     16  C   UNL     1       7.005   4.719  14.934  0.00  0.00    +0.000 C 
ATOM     17  C   UNL     1       6.153   5.312  17.332  0.00  0.00    +0.000 A 
ATOM     18 CL   UNL     1       7.325   6.453  17.779  0.00  0.00    +0.000 Cl
ATOM     19  H   UNL     1       3.743   3.269  17.525  0.00  0.00    +0.000 HD
ENDBRANCH  11  12
ENDBRANCH   1  11
TORSDOF 5
ENDMDL
MODEL 5
REMARK VINA RESULT:      -6.2      3.099      5.617
REMARK  Name = 
REMARK  7 active torsions:
REMARK  status: ('A' for Active; 'I' for Inactive)
REMARK    1  A    between atoms: C_1  and  C_2
REMARK    2  A    between atoms: C_2  and  N_3
REMARK    3  A    between atoms: N_3  and  C_4
REMARK    4  A    between atoms: N_3  and  C_12
REMARK    5  A    between atoms: C_4  and  C_5
REMARK    6  A    between atoms: C_8  and  C_9
REMARK    7  A    between atoms: C_16  and  O_17
REMARK                            x       y       z     vdW  Elec       q    Type
REMARK                         _______ _______ _______ _____ _____    ______ ____
ROOT
ATOM      1  N   UNL     1       4.739   5.302  17.526  0.00  0.00    +0.000 NA
ENDROOT
BRANCH   1   2
ATOM      2  C   UNL     1       6.100   4.853  17.084  0.00  0.00    +0.000 C 
ATOM      3  C   UNL     1       6.765   5.787  16.041  0.00  0.00    +0.000 C 
ATOM      4  O   UNL     1       7.615   6.726  16.724  0.00  0.00    +0.000 OA
ATOM      5  C   UNL     1       7.695   6.326  18.100  0.00  0.00    +0.000 C 
ATOM      6  C   UNL     1       7.213   4.888  18.148  0.00  0.00    +0.000 C 
BRANCH   6   7
ATOM      7  O   UNL     1       8.276   4.000  17.762  0.00  0.00    +0.000 OA
ATOM      8  H   UNL     1       9.043   4.544  17.503  0.00  0.00    +0.000 HD
ENDBRANCH   6   7
ENDBRANCH   1   2
BRANCH   1  10
ATOM      9  C   UNL     1       3.372   7.441  17.735  0.00  0.00    +0.000 C 
ATOM     10  C   UNL     1       4.393   6.618  16.951  0.00  0.00    +0.000 C 
ENDBRANCH   1  10
BRANCH   1  11
ATOM     11  C   UNL     1       3.689   4.273  17.352  0.00  0.00    +0.000 C 
BRANCH  11  12
ATOM     12  C   UNL     1       2.880   3.948  18.561  0.00  0.00    +0.000 A 
ATOM     13  N   UNL     1       1.640   4.478  18.789  0.00  0.00    +0.000 N 
ATOM     14  N   UNL     1       1.042   4.028  19.901  0.00  0.00    +0.000 NA
ATOM     15  C   UNL     1       1.962   3.230  20.458  0.00  0.00    +0.000 A 
ATOM     16  C   UNL     1       1.665   2.529  21.731  0.00  0.00    +0.000 C 
ATOM     17  C   UNL     1       3.149   3.197  19.686  0.00  0.00    +0.000 A 
ATOM     18 CL   UNL     1       4.581   2.387  20.095  0.00  0.00    +0.000 Cl
ATOM     19  H   UNL     1       1.126   5.138  18.216  0.00  0.00    +0.000 HD
ENDBRANCH  11  12
ENDBRANCH   1  11
TORSDOF 5
ENDMDL
MODEL 6
REMARK VINA RESULT:      -6.2      1.669      2.183
REMARK  Name = 
REMARK  7 active torsions:
REMARK  status: ('A' for Active; 'I' for Inactive)
REMARK    1  A    between atoms: C_1  and  C_2
REMARK    2  A    between atoms: C_2  and  N_3
REMARK    3  A    between atoms: N_3  and  C_4
REMARK    4  A    between atoms: N_3  and  C_12
REMARK    5  A    between atoms: C_4  and  C_5
REMARK    6  A    between atoms: C_8  and  C_9
REMARK    7  A    between atoms: C_16  and  O_17
REMARK                            x       y       z     vdW  Elec       q    Type
REMARK                         _______ _______ _______ _____ _____    ______ ____
ROOT
ATOM      1  N   UNL     1       3.748   4.373  19.138  0.00  0.00    +0.000 NA
ENDROOT
BRANCH   1   2
ATOM      2  C   UNL     1       3.031   4.356  20.454  0.00  0.00    +0.000 C 
ATOM      3  C   UNL     1       1.637   5.033  20.423  0.00  0.00    +0.000 C 
ATOM      4  O   UNL     1       0.632   4.029  20.192  0.00  0.00    +0.000 OA
ATOM      5  C   UNL     1       1.266   2.744  20.278  0.00  0.00    +0.000 C 
ATOM      6  C   UNL     1       2.592   2.977  20.979  0.00  0.00    +0.000 C 
BRANCH   6   7
ATOM      7  O   UNL     1       2.390   3.044  22.402  0.00  0.00    +0.000 OA
ATOM      8  H   UNL     1       3.242   2.854  22.835  0.00  0.00    +0.000 HD
ENDBRANCH   6   7
ENDBRANCH   1   2
BRANCH   1  10
ATOM      9  C   UNL     1       2.621   3.501  17.026  0.00  0.00    +0.000 C 
ATOM     10  C   UNL     1       2.819   4.643  18.022  0.00  0.00    +0.000 C 
ENDBRANCH   1  10
BRANCH   1  11
ATOM     11  C   UNL     1       4.961   5.222  19.133  0.00  0.00    +0.000 C 
BRANCH  11  12
ATOM     12  C   UNL     1       5.887   5.038  17.979  0.00  0.00    +0.000 A 
ATOM     13  N   UNL     1       7.040   4.306  18.061  0.00  0.00    +0.000 N 
ATOM     14  N   UNL     1       7.715   4.207  16.908  0.00  0.00    +0.000 NA
ATOM     15  C   UNL     1       7.013   4.970  16.059  0.00  0.00    +0.000 A 
ATOM     16  C   UNL     1       7.454   5.114  14.651  0.00  0.00    +0.000 C 
ATOM     17  C   UNL     1       5.896   5.557  16.701  0.00  0.00    +0.000 A 
ATOM     18 CL   UNL     1       4.814   6.663  16.006  0.00  0.00    +0.000 Cl
ATOM     19  H   UNL     1       7.418   3.822  18.868  0.00  0.00    +0.000 HD
ENDBRANCH  11  12
ENDBRANCH   1  11
TORSDOF 5
ENDMDL
MODEL 7
REMARK VINA RESULT:      -6.1      2.686      4.992
REMARK  Name = 
REMARK  7 active torsions:
REMARK  status: ('A' for Active; 'I' for Inactive)
REMARK    1  A    between atoms: C_1  and  C_2
REMARK    2  A    between atoms: C_2  and  N_3
REMARK    3  A    between atoms: N_3  and  C_4
REMARK    4  A    between atoms: N_3  and  C_12
REMARK    5  A    between atoms: C_4  and  C_5
REMARK    6  A    between atoms: C_8  and  C_9
REMARK    7  A    between atoms: C_16  and  O_17
REMARK                            x       y       z     vdW  Elec       q    Type
REMARK                         _______ _______ _______ _____ _____    ______ ____
ROOT
ATOM      1  N   UNL     1       6.633   5.297  18.289  0.00  0.00    +0.000 NA
ENDROOT
BRANCH   1   2
ATOM      2  C   UNL     1       6.578   5.768  16.866  0.00  0.00    +0.000 C 
ATOM      3  C   UNL     1       7.296   4.831  15.862  0.00  0.00    +0.000 C 
ATOM      4  O   UNL     1       6.333   3.925  15.294  0.00  0.00    +0.000 OA
ATOM      5  C   UNL     1       5.028   4.352  15.711  0.00  0.00    +0.000 C 
ATOM      6  C   UNL     1       5.190   5.779  16.201  0.00  0.00    +0.000 C 
BRANCH   6   7
ATOM      7  O   UNL     1       5.200   6.684  15.082  0.00  0.00    +0.000 OA
ATOM      8  H   UNL     1       5.385   7.579  15.421  0.00  0.00    +0.000 HD
ENDBRANCH   6   7
ENDBRANCH   1   2
BRANCH   1  10
ATOM      9  C   UNL     1       8.228   7.260  18.589  0.00  0.00    +0.000 C 
ATOM     10  C   UNL     1       7.809   5.848  18.994  0.00  0.00    +0.000 C 
ENDBRANCH   1  10
BRANCH   1  11
ATOM     11  C   UNL     1       5.358   5.465  19.021  0.00  0.00    +0.000 C 
BRANCH  11  12
ATOM     12  C   UNL     1       4.511   4.246  19.156  0.00  0.00    +0.000 A 
ATOM     13  N   UNL     1       5.017   3.027  19.518  0.00  0.00    +0.000 N 
ATOM     14  N   UNL     1       4.096   2.061  19.642  0.00  0.00    +0.000 NA
ATOM     15  C   UNL     1       2.955   2.658  19.272  0.00  0.00    +0.000 A 
ATOM     16  C   UNL     1       1.682   1.896  19.279  0.00  0.00    +0.000 C 
ATOM     17  C   UNL     1       3.176   4.007  18.903  0.00  0.00    +0.000 A 
ATOM     18 CL   UNL     1       2.014   5.075  18.284  0.00  0.00    +0.000 Cl
ATOM     19  H   UNL     1       5.980   2.784  19.720  0.00  0.00    +0.000 HD
ENDBRANCH  11  12
ENDBRANCH   1  11
TORSDOF 5
ENDMDL
MODEL 8
REMARK VINA RESULT:      -6.1      1.680      1.945
REMARK  Name = 
REMARK  7 active torsions:
REMARK  status: ('A' for Active; 'I' for Inactive)
REMARK    1  A    between atoms: C_1  and  C_2
REMARK    2  A    between atoms: C_2  and  N_3
REMARK    3  A    between atoms: N_3  and  C_4
REMARK    4  A    between atoms: N_3  and  C_12
REMARK    5  A    between atoms: C_4  and  C_5
REMARK    6  A    between atoms: C_8  and  C_9
REMARK    7  A    between atoms: C_16  and  O_17
REMARK                            x       y       z     vdW  Elec       q    Type
REMARK                         _______ _______ _______ _____ _____    ______ ____
ROOT
ATOM      1  N   UNL     1       3.317   5.268  19.506  0.00  0.00    +0.000 NA
ENDROOT
BRANCH   1   2
ATOM      2  C   UNL     1       2.652   4.482  20.596  0.00  0.00    +0.000 C 
ATOM      3  C   UNL     1       1.117   4.347  20.431  0.00  0.00    +0.000 C 
ATOM      4  O   UNL     1       0.824   3.110  19.758  0.00  0.00    +0.000 OA
ATOM      5  C   UNL     1       2.044   2.359  19.667  0.00  0.00    +0.000 C 
ATOM      6  C   UNL     1       2.996   2.983  20.669  0.00  0.00    +0.000 C 
BRANCH   6   7
ATOM      7  O   UNL     1       2.715   2.487  21.989  0.00  0.00    +0.000 OA
ATOM      8  H   UNL     1       3.431   2.784  22.581  0.00  0.00    +0.000 HD
ENDBRANCH   6   7
ENDBRANCH   1   2
BRANCH   1  10
ATOM      9  C   UNL     1       2.689   7.255  18.041  0.00  0.00    +0.000 C 
ATOM     10  C   UNL     1       2.791   6.647  19.439  0.00  0.00    +0.000 C 
ENDBRANCH   1  10
BRANCH   1  11
ATOM     11  C   UNL     1       4.795   5.187  19.532  0.00  0.00    +0.000 C 
BRANCH  11  12
ATOM     12  C   UNL     1       5.467   5.010  18.213  0.00  0.00    +0.000 A 
ATOM     13  N   UNL     1       6.678   5.572  17.915  0.00  0.00    +0.000 N 
ATOM     14  N   UNL     1       7.150   5.256  16.701  0.00  0.00    +0.000 NA
ATOM     15  C   UNL     1       6.171   4.521  16.158  0.00  0.00    +0.000 A 
ATOM     16  C   UNL     1       6.325   3.973  14.788  0.00  0.00    +0.000 C 
ATOM     17  C   UNL     1       5.075   4.390  17.044  0.00  0.00    +0.000 A 
ATOM     18 CL   UNL     1       3.602   3.622  16.703  0.00  0.00    +0.000 Cl
ATOM     19  H   UNL     1       7.254   6.165  18.501  0.00  0.00    +0.000 HD
ENDBRANCH  11  12
ENDBRANCH   1  11
TORSDOF 5
ENDMDL
MODEL 9
REMARK VINA RESULT:      -6.1      3.005      5.368
REMARK  Name = 
REMARK  7 active torsions:
REMARK  status: ('A' for Active; 'I' for Inactive)
REMARK    1  A    between atoms: C_1  and  C_2
REMARK    2  A    between atoms: C_2  and  N_3
REMARK    3  A    between atoms: N_3  and  C_4
REMARK    4  A    between atoms: N_3  and  C_12
REMARK    5  A    between atoms: C_4  and  C_5
REMARK    6  A    between atoms: C_8  and  C_9
REMARK    7  A    between atoms: C_16  and  O_17
REMARK                            x       y       z     vdW  Elec       q    Type
REMARK                         _______ _______ _______ _____ _____    ______ ____
ROOT
ATOM      1  N   UNL     1       5.013   5.477  18.198  0.00  0.00    +0.000 NA
ENDROOT
BRANCH   1   2
ATOM      2  C   UNL     1       6.422   5.936  17.971  0.00  0.00    +0.000 C 
ATOM      3  C   UNL     1       7.471   4.795  18.009  0.00  0.00    +0.000 C 
ATOM      4  O   UNL     1       7.712   4.334  16.668  0.00  0.00    +0.000 OA
ATOM      5  C   UNL     1       7.048   5.233  15.767  0.00  0.00    +0.000 C 
ATOM      6  C   UNL     1       6.747   6.485  16.570  0.00  0.00    +0.000 C 
BRANCH   6   7
ATOM      7  O   UNL     1       7.919   7.317  16.639  0.00  0.00    +0.000 OA
ATOM      8  H   UNL     1       7.737   8.135  16.140  0.00  0.00    +0.000 HD
ENDBRANCH   6   7
ENDBRANCH   1   2
BRANCH   1  10
ATOM      9  C   UNL     1       3.095   7.147  18.038  0.00  0.00    +0.000 C 
ATOM     10  C   UNL     1       4.064   6.202  17.329  0.00  0.00    +0.000 C 
ENDBRANCH   1  10
BRANCH   1  11
ATOM     11  C   UNL     1       4.854   4.006  18.170  0.00  0.00    +0.000 C 
BRANCH  11  12
ATOM     12  C   UNL     1       4.122   3.400  19.318  0.00  0.00    +0.000 A 
ATOM     13  N   UNL     1       4.722   2.580  20.233  0.00  0.00    +0.000 N 
ATOM     14  N   UNL     1       3.917   2.176  21.226  0.00  0.00    +0.000 NA
ATOM     15  C   UNL     1       2.725   2.695  20.902  0.00  0.00    +0.000 A 
ATOM     16  C   UNL     1       1.552   2.464  21.779  0.00  0.00    +0.000 C 
ATOM     17  C   UNL     1       2.792   3.418  19.686  0.00  0.00    +0.000 A 
ATOM     18 CL   UNL     1       1.486   4.142  18.884  0.00  0.00    +0.000 Cl
ATOM     19  H   UNL     1       5.687   2.269  20.257  0.00  0.00    +0.000 HD
ENDBRANCH  11  12
ENDBRANCH   1  11
TORSDOF 5
ENDMDL
