MODEL 1
REMARK VINA RESULT:      -7.5      0.000      0.000
REMARK  Name = 
REMARK  4 active torsions:
REMARK  status: ('A' for Active; 'I' for Inactive)
REMARK    1  A    between atoms: C_1  and  C_2
REMARK    2  A    between atoms: C_5  and  S_6
REMARK    3  A    between atoms: S_6  and  N_9
REMARK    4  A    between atoms: C_18  and  C_19
REMARK                            x       y       z     vdW  Elec       q    Type
REMARK                         _______ _______ _______ _____ _____    ______ ____
ROOT
ATOM      1  N   UNL     1       3.313   5.014  17.992  0.00  0.00    +0.000 N 
ATOM      2  C   UNL     1       2.565   3.977  18.711  0.00  0.00    +0.000 A 
ATOM      3  C   UNL     1       1.734   3.127  17.980  0.00  0.00    +0.000 A 
ATOM      4  C   UNL     1       0.679   2.460  18.619  0.00  0.00    +0.000 A 
ATOM      5  C   UNL     1       0.478   2.604  19.993  0.00  0.00    +0.000 A 
ATOM      6  C   UNL     1       1.299   3.449  20.732  0.00  0.00    +0.000 A 
ATOM      7  C   UNL     1       2.291   4.187  20.078  0.00  0.00    +0.000 A 
ATOM      8  C   UNL     1       2.855   5.420  20.728  0.00  0.00    +0.000 C 
ATOM      9  C   UNL     1       2.581   6.631  19.801  0.00  0.00    +0.000 C 
ATOM     10  C   UNL     1       2.572   6.294  18.283  0.00  0.00    +0.000 C 
ATOM     11  C   UNL     1       2.920   7.434  17.353  0.00  0.00    +0.000 C 
ENDROOT
BRANCH   1  12
ATOM     12  S   UNL     1       5.040   4.985  18.223  0.00  0.00    +0.000 S 
ATOM     13  O   UNL     1       5.378   3.811  19.008  0.00  0.00    +0.000 OA
ATOM     14  O   UNL     1       5.496   6.293  18.624  0.00  0.00    +0.000 OA
BRANCH  12  19
ATOM     15  C   UNL     1       7.277   4.443  12.574  0.00  0.00    +0.000 C 
ATOM     16  C   UNL     1       6.744   4.549  13.973  0.00  0.00    +0.000 A 
ATOM     17  C   UNL     1       5.475   4.049  14.286  0.00  0.00    +0.000 A 
ATOM     18  C   UNL     1       4.985   4.133  15.592  0.00  0.00    +0.000 A 
ATOM     19  C   UNL     1       5.771   4.705  16.607  0.00  0.00    +0.000 A 
ATOM     20  C   UNL     1       7.030   5.224  16.303  0.00  0.00    +0.000 A 
ATOM     21  C   UNL     1       7.514   5.138  14.991  0.00  0.00    +0.000 A 
ENDBRANCH  12  19
ENDBRANCH   1  12
TORSDOF 2
ENDMDL
MODEL 2
REMARK VINA RESULT:      -7.1      0.230      1.080
REMARK  Name = 
REMARK  4 active torsions:
REMARK  status: ('A' for Active; 'I' for Inactive)
REMARK    1  A    between atoms: C_1  and  C_2
REMARK    2  A    between atoms: C_5  and  S_6
REMARK    3  A    between atoms: S_6  and  N_9
REMARK    4  A    between atoms: C_18  and  C_19
REMARK                            x       y       z     vdW  Elec       q    Type
REMARK                         _______ _______ _______ _____ _____    ______ ____
ROOT
ATOM      1  N   UNL     1       3.232   5.133  17.904  0.00  0.00    +0.000 N 
ATOM      2  C   UNL     1       2.551   4.059  18.632  0.00  0.00    +0.000 A 
ATOM      3  C   UNL     1       1.671   3.232  17.933  0.00  0.00    +0.000 A 
ATOM      4  C   UNL     1       0.674   2.528  18.622  0.00  0.00    +0.000 A 
ATOM      5  C   UNL     1       0.580   2.611  20.013  0.00  0.00    +0.000 A 
ATOM      6  C   UNL     1       1.450   3.433  20.721  0.00  0.00    +0.000 A 
ATOM      7  C   UNL     1       2.382   4.208  20.025  0.00  0.00    +0.000 A 
ATOM      8  C   UNL     1       2.987   5.418  20.681  0.00  0.00    +0.000 C 
ATOM      9  C   UNL     1       2.632   6.665  19.832  0.00  0.00    +0.000 C 
ATOM     10  C   UNL     1       2.507   6.392  18.306  0.00  0.00    +0.000 C 
ATOM     11  C   UNL     1       2.774   7.574  17.402  0.00  0.00    +0.000 C 
ENDROOT
BRANCH   1  12
ATOM     12  S   UNL     1       4.972   5.113  17.999  0.00  0.00    +0.000 S 
ATOM     13  O   UNL     1       5.381   3.892  18.671  0.00  0.00    +0.000 OA
ATOM     14  O   UNL     1       5.447   6.396  18.455  0.00  0.00    +0.000 OA
BRANCH  12  19
ATOM     15  C   UNL     1       7.260   4.153  12.425  0.00  0.00    +0.000 C 
ATOM     16  C   UNL     1       6.682   4.418  13.786  0.00  0.00    +0.000 A 
ATOM     17  C   UNL     1       7.457   5.033  14.775  0.00  0.00    +0.000 A 
ATOM     18  C   UNL     1       6.914   5.293  16.036  0.00  0.00    +0.000 A 
ATOM     19  C   UNL     1       5.579   4.956  16.315  0.00  0.00    +0.000 A 
ATOM     20  C   UNL     1       4.802   4.324  15.342  0.00  0.00    +0.000 A 
ATOM     21  C   UNL     1       5.354   4.065  14.080  0.00  0.00    +0.000 A 
ENDBRANCH  12  19
ENDBRANCH   1  12
TORSDOF 2
ENDMDL
MODEL 3
REMARK VINA RESULT:      -7.0      2.749      5.682
REMARK  Name = 
REMARK  4 active torsions:
REMARK  status: ('A' for Active; 'I' for Inactive)
REMARK    1  A    between atoms: C_1  and  C_2
REMARK    2  A    between atoms: C_5  and  S_6
REMARK    3  A    between atoms: S_6  and  N_9
REMARK    4  A    between atoms: C_18  and  C_19
REMARK                            x       y       z     vdW  Elec       q    Type
REMARK                         _______ _______ _______ _____ _____    ______ ____
ROOT
ATOM      1  N   UNL     1       3.569   5.498  19.391  0.00  0.00    +0.000 N 
ATOM      2  C   UNL     1       2.623   4.480  19.857  0.00  0.00    +0.000 A 
ATOM      3  C   UNL     1       2.321   4.422  21.218  0.00  0.00    +0.000 A 
ATOM      4  C   UNL     1       1.825   3.235  21.776  0.00  0.00    +0.000 A 
ATOM      5  C   UNL     1       1.586   2.120  20.972  0.00  0.00    +0.000 A 
ATOM      6  C   UNL     1       1.884   2.164  19.614  0.00  0.00    +0.000 A 
ATOM      7  C   UNL     1       2.467   3.315  19.076  0.00  0.00    +0.000 A 
ATOM      8  C   UNL     1       3.219   3.235  17.776  0.00  0.00    +0.000 C 
ATOM      9  C   UNL     1       4.683   3.676  18.028  0.00  0.00    +0.000 C 
ATOM     10  C   UNL     1       4.852   4.748  19.141  0.00  0.00    +0.000 C 
ATOM     11  C   UNL     1       6.072   5.633  19.024  0.00  0.00    +0.000 C 
ENDROOT
BRANCH   1  12
ATOM     12  S   UNL     1       2.971   6.557  18.142  0.00  0.00    +0.000 S 
ATOM     13  O   UNL     1       1.893   5.879  17.443  0.00  0.00    +0.000 OA
ATOM     14  O   UNL     1       4.081   7.119  17.413  0.00  0.00    +0.000 OA
BRANCH  12  19
ATOM     15  C   UNL     1      -0.098  11.119  20.785  0.00  0.00    +0.000 C 
ATOM     16  C   UNL     1       0.686  10.009  20.148  0.00  0.00    +0.000 A 
ATOM     17  C   UNL     1       1.067  10.093  18.804  0.00  0.00    +0.000 A 
ATOM     18  C   UNL     1       1.810   9.067  18.215  0.00  0.00    +0.000 A 
ATOM     19  C   UNL     1       2.197   7.949  18.973  0.00  0.00    +0.000 A 
ATOM     20  C   UNL     1       1.807   7.844  20.309  0.00  0.00    +0.000 A 
ATOM     21  C   UNL     1       1.060   8.877  20.893  0.00  0.00    +0.000 A 
ENDBRANCH  12  19
ENDBRANCH   1  12
TORSDOF 2
ENDMDL
MODEL 4
REMARK VINA RESULT:      -6.8      2.227      6.077
REMARK  Name = 
REMARK  4 active torsions:
REMARK  status: ('A' for Active; 'I' for Inactive)
REMARK    1  A    between atoms: C_1  and  C_2
REMARK    2  A    between atoms: C_5  and  S_6
REMARK    3  A    between atoms: S_6  and  N_9
REMARK    4  A    between atoms: C_18  and  C_19
REMARK                            x       y       z     vdW  Elec       q    Type
REMARK                         _______ _______ _______ _____ _____    ______ ____
ROOT
ATOM      1  N   UNL     1       3.251   5.327  17.750  0.00  0.00    +0.000 N 
ATOM      2  C   UNL     1       4.607   5.394  17.198  0.00  0.00    +0.000 A 
ATOM      3  C   UNL     1       4.812   6.107  16.016  0.00  0.00    +0.000 A 
ATOM      4  C   UNL     1       5.929   5.829  15.215  0.00  0.00    +0.000 A 
ATOM      5  C   UNL     1       6.867   4.875  15.613  0.00  0.00    +0.000 A 
ATOM      6  C   UNL     1       6.674   4.158  16.789  0.00  0.00    +0.000 A 
ATOM      7  C   UNL     1       5.512   4.367  17.538  0.00  0.00    +0.000 A 
ATOM      8  C   UNL     1       5.051   3.317  18.510  0.00  0.00    +0.000 C 
ATOM      9  C   UNL     1       3.637   2.845  18.087  0.00  0.00    +0.000 C 
ATOM     10  C   UNL     1       2.765   3.941  17.411  0.00  0.00    +0.000 C 
ATOM     11  C   UNL     1       1.269   3.763  17.535  0.00  0.00    +0.000 C 
ENDROOT
BRANCH   1  12
ATOM     12  S   UNL     1       3.085   5.883  19.393  0.00  0.00    +0.000 S 
ATOM     13  O   UNL     1       4.412   6.121  19.934  0.00  0.00    +0.000 OA
ATOM     14  O   UNL     1       2.144   5.045  20.096  0.00  0.00    +0.000 OA
BRANCH  12  19
ATOM     15  C   UNL     1       0.034  11.147  18.935  0.00  0.00    +0.000 C 
ATOM     16  C   UNL     1       0.812   9.868  19.060  0.00  0.00    +0.000 A 
ATOM     17  C   UNL     1       1.473   9.331  17.950  0.00  0.00    +0.000 A 
ATOM     18  C   UNL     1       2.209   8.150  18.071  0.00  0.00    +0.000 A 
ATOM     19  C   UNL     1       2.307   7.501  19.313  0.00  0.00    +0.000 A 
ATOM     20  C   UNL     1       1.636   8.016  20.423  0.00  0.00    +0.000 A 
ATOM     21  C   UNL     1       0.898   9.201  20.294  0.00  0.00    +0.000 A 
ENDBRANCH  12  19
ENDBRANCH   1  12
TORSDOF 2
ENDMDL
MODEL 5
REMARK VINA RESULT:      -6.7      5.755      7.664
REMARK  Name = 
REMARK  4 active torsions:
REMARK  status: ('A' for Active; 'I' for Inactive)
REMARK    1  A    between atoms: C_1  and  C_2
REMARK    2  A    between atoms: C_5  and  S_6
REMARK    3  A    between atoms: S_6  and  N_9
REMARK    4  A    between atoms: C_18  and  C_19
REMARK                            x       y       z     vdW  Elec       q    Type
REMARK                         _______ _______ _______ _____ _____    ______ ____
ROOT
ATOM      1  N   UNL     1      -0.230  11.048  18.595  0.00  0.00    +0.000 N 
ATOM      2  C   UNL     1      -1.645  10.833  18.281  0.00  0.00    +0.000 A 
ATOM      3  C   UNL     1      -1.982  10.337  17.020  0.00  0.00    +0.000 A 
ATOM      4  C   UNL     1      -3.269  10.548  16.506  0.00  0.00    +0.000 A 
ATOM      5  C   UNL     1      -4.235  11.211  17.263  0.00  0.00    +0.000 A 
ATOM      6  C   UNL     1      -3.913  11.711  18.520  0.00  0.00    +0.000 A 
ATOM      7  C   UNL     1      -2.603  11.584  18.994  0.00  0.00    +0.000 A 
ATOM      8  C   UNL     1      -2.112  12.494  20.085  0.00  0.00    +0.000 C 
ATOM      9  C   UNL     1      -0.902  13.299  19.545  0.00  0.00    +0.000 C 
ATOM     10  C   UNL     1      -0.037  12.539  18.500  0.00  0.00    +0.000 C 
ATOM     11  C   UNL     1       1.410  12.970  18.405  0.00  0.00    +0.000 C 
ENDROOT
BRANCH   1  12
ATOM     12  S   UNL     1       0.353  10.225  20.016  0.00  0.00    +0.000 S 
ATOM     13  O   UNL     1      -0.755   9.502  20.615  0.00  0.00    +0.000 OA
ATOM     14  O   UNL     1       1.152  11.130  20.806  0.00  0.00    +0.000 OA
BRANCH  12  19
ATOM     15  C   UNL     1       3.828   5.650  17.963  0.00  0.00    +0.000 C 
ATOM     16  C   UNL     1       3.001   6.794  18.476  0.00  0.00    +0.000 A 
ATOM     17  C   UNL     1       2.483   6.765  19.776  0.00  0.00    +0.000 A 
ATOM     18  C   UNL     1       1.727   7.836  20.258  0.00  0.00    +0.000 A 
ATOM     19  C   UNL     1       1.495   8.960  19.448  0.00  0.00    +0.000 A 
ATOM     20  C   UNL     1       1.990   8.992  18.143  0.00  0.00    +0.000 A 
ATOM     21  C   UNL     1       2.747   7.913  17.666  0.00  0.00    +0.000 A 
ENDBRANCH  12  19
ENDBRANCH   1  12
TORSDOF 2
ENDMDL
MODEL 6
REMARK VINA RESULT:      -6.6      1.609      3.583
REMARK  Name = 
REMARK  4 active torsions:
REMARK  status: ('A' for Active; 'I' for Inactive)
REMARK    1  A    between atoms: C_1  and  C_2
REMARK    2  A    between atoms: C_5  and  S_6
REMARK    3  A    between atoms: S_6  and  N_9
REMARK    4  A    between atoms: C_18  and  C_19
REMARK                            x       y       z     vdW  Elec       q    Type
REMARK                         _______ _______ _______ _____ _____    ______ ____
ROOT
ATOM      1  N   UNL     1       3.082   4.089  20.001  0.00  0.00    +0.000 N 
ATOM      2  C   UNL     1       2.885   5.287  19.179  0.00  0.00    +0.000 A 
ATOM      3  C   UNL     1       3.168   6.534  19.739  0.00  0.00    +0.000 A 
ATOM      4  C   UNL     1       2.581   7.690  19.207  0.00  0.00    +0.000 A 
ATOM      5  C   UNL     1       1.747   7.612  18.090  0.00  0.00    +0.000 A 
ATOM      6  C   UNL     1       1.456   6.376  17.524  0.00  0.00    +0.000 A 
ATOM      7  C   UNL     1       1.965   5.214  18.112  0.00  0.00    +0.000 A 
ATOM      8  C   UNL     1       1.311   3.888  17.837  0.00  0.00    +0.000 C 
ATOM      9  C   UNL     1       0.818   3.297  19.182  0.00  0.00    +0.000 C 
ATOM     10  C   UNL     1       1.693   3.671  20.412  0.00  0.00    +0.000 C 
ATOM     11  C   UNL     1       1.658   2.696  21.567  0.00  0.00    +0.000 C 
ENDROOT
BRANCH   1  12
ATOM     12  S   UNL     1       4.143   2.885  19.322  0.00  0.00    +0.000 S 
ATOM     13  O   UNL     1       3.330   1.846  18.715  0.00  0.00    +0.000 OA
ATOM     14  O   UNL     1       5.168   2.549  20.280  0.00  0.00    +0.000 OA
BRANCH  12  19
ATOM     15  C   UNL     1       7.412   5.170  14.707  0.00  0.00    +0.000 C 
ATOM     16  C   UNL     1       6.586   4.635  15.840  0.00  0.00    +0.000 A 
ATOM     17  C   UNL     1       6.970   4.866  17.166  0.00  0.00    +0.000 A 
ATOM     18  C   UNL     1       6.193   4.380  18.220  0.00  0.00    +0.000 A 
ATOM     19  C   UNL     1       5.009   3.670  17.959  0.00  0.00    +0.000 A 
ATOM     20  C   UNL     1       4.626   3.417  16.641  0.00  0.00    +0.000 A 
ATOM     21  C   UNL     1       5.411   3.906  15.588  0.00  0.00    +0.000 A 
ENDBRANCH  12  19
ENDBRANCH   1  12
TORSDOF 2
ENDMDL
MODEL 7
REMARK VINA RESULT:      -6.6      2.219      6.062
REMARK  Name = 
REMARK  4 active torsions:
REMARK  status: ('A' for Active; 'I' for Inactive)
REMARK    1  A    between atoms: C_1  and  C_2
REMARK    2  A    between atoms: C_5  and  S_6
REMARK    3  A    between atoms: S_6  and  N_9
REMARK    4  A    between atoms: C_18  and  C_19
REMARK                            x       y       z     vdW  Elec       q    Type
REMARK                         _______ _______ _______ _____ _____    ______ ____
ROOT
ATOM      1  N   UNL     1       3.274   5.301  17.705  0.00  0.00    +0.000 N 
ATOM      2  C   UNL     1       4.627   5.362  17.145  0.00  0.00    +0.000 A 
ATOM      3  C   UNL     1       4.814   6.004  15.920  0.00  0.00    +0.000 A 
ATOM      4  C   UNL     1       5.935   5.700  15.134  0.00  0.00    +0.000 A 
ATOM      5  C   UNL     1       6.894   4.793  15.588  0.00  0.00    +0.000 A 
ATOM      6  C   UNL     1       6.719   4.146  16.807  0.00  0.00    +0.000 A 
ATOM      7  C   UNL     1       5.554   4.378  17.546  0.00  0.00    +0.000 A 
ATOM      8  C   UNL     1       5.117   3.381  18.583  0.00  0.00    +0.000 C 
ATOM      9  C   UNL     1       3.713   2.854  18.195  0.00  0.00    +0.000 C 
ATOM     10  C   UNL     1       2.817   3.887  17.454  0.00  0.00    +0.000 C 
ATOM     11  C   UNL     1       1.325   3.686  17.595  0.00  0.00    +0.000 C 
ENDROOT
BRANCH   1  12
ATOM     12  S   UNL     1       3.099   5.956  19.311  0.00  0.00    +0.000 S 
ATOM     13  O   UNL     1       4.414   6.334  19.797  0.00  0.00    +0.000 OA
ATOM     14  O   UNL     1       2.245   5.097  20.093  0.00  0.00    +0.000 OA
BRANCH  12  19
ATOM     15  C   UNL     1       0.417  11.423  18.946  0.00  0.00    +0.000 C 
ATOM     16  C   UNL     1       1.049  10.063  19.022  0.00  0.00    +0.000 A 
ATOM     17  C   UNL     1       1.008   9.330  20.212  0.00  0.00    +0.000 A 
ATOM     18  C   UNL     1       1.583   8.058  20.278  0.00  0.00    +0.000 A 
ATOM     19  C   UNL     1       2.192   7.498  19.142  0.00  0.00    +0.000 A 
ATOM     20  C   UNL     1       2.257   8.228  17.955  0.00  0.00    +0.000 A 
ATOM     21  C   UNL     1       1.679   9.503  17.897  0.00  0.00    +0.000 A 
ENDBRANCH  12  19
ENDBRANCH   1  12
TORSDOF 2
ENDMDL
MODEL 8
REMARK VINA RESULT:      -6.6      2.773      5.755
REMARK  Name = 
REMARK  4 active torsions:
REMARK  status: ('A' for Active; 'I' for Inactive)
REMARK    1  A    between atoms: C_1  and  C_2
REMARK    2  A    between atoms: C_5  and  S_6
REMARK    3  A    between atoms: S_6  and  N_9
REMARK    4  A    between atoms: C_18  and  C_19
REMARK                            x       y       z     vdW  Elec       q    Type
REMARK                         _______ _______ _______ _____ _____    ______ ____
ROOT
ATOM      1  N   UNL     1       3.538   5.570  19.429  0.00  0.00    +0.000 N 
ATOM      2  C   UNL     1       2.606   4.527  19.869  0.00  0.00    +0.000 A 
ATOM      3  C   UNL     1       2.302   4.433  21.228  0.00  0.00    +0.000 A 
ATOM      4  C   UNL     1       1.822   3.227  21.756  0.00  0.00    +0.000 A 
ATOM      5  C   UNL     1       1.599   2.128  20.926  0.00  0.00    +0.000 A 
ATOM      6  C   UNL     1       1.899   2.208  19.570  0.00  0.00    +0.000 A 
ATOM      7  C   UNL     1       2.467   3.379  19.060  0.00  0.00    +0.000 A 
ATOM      8  C   UNL     1       3.222   3.340  17.760  0.00  0.00    +0.000 C 
ATOM      9  C   UNL     1       4.679   3.795  18.025  0.00  0.00    +0.000 C 
ATOM     10  C   UNL     1       4.831   4.843  19.164  0.00  0.00    +0.000 C 
ATOM     11  C   UNL     1       6.039   5.747  19.069  0.00  0.00    +0.000 C 
ENDROOT
BRANCH   1  12
ATOM     12  S   UNL     1       2.928   6.649  18.204  0.00  0.00    +0.000 S 
ATOM     13  O   UNL     1       1.950   5.930  17.406  0.00  0.00    +0.000 OA
ATOM     14  O   UNL     1       4.027   7.337  17.574  0.00  0.00    +0.000 OA
BRANCH  12  19
ATOM     15  C   UNL     1       0.212  11.160  21.284  0.00  0.00    +0.000 C 
ATOM     16  C   UNL     1       0.849  10.039  20.515  0.00  0.00    +0.000 A 
ATOM     17  C   UNL     1       1.198   8.848  21.160  0.00  0.00    +0.000 A 
ATOM     18  C   UNL     1       1.777   7.799  20.442  0.00  0.00    +0.000 A 
ATOM     19  C   UNL     1       1.998   7.926  19.060  0.00  0.00    +0.000 A 
ATOM     20  C   UNL     1       1.673   9.117  18.409  0.00  0.00    +0.000 A 
ATOM     21  C   UNL     1       1.093  10.165  19.137  0.00  0.00    +0.000 A 
ENDBRANCH  12  19
ENDBRANCH   1  12
TORSDOF 2
ENDMDL
MODEL 9
REMARK VINA RESULT:      -6.5      5.922      7.827
REMARK  Name = 
REMARK  4 active torsions:
REMARK  status: ('A' for Active; 'I' for Inactive)
REMARK    1  A    between atoms: C_1  and  C_2
REMARK    2  A    between atoms: C_5  and  S_6
REMARK    3  A    between atoms: S_6  and  N_9
REMARK    4  A    between atoms: C_18  and  C_19
REMARK                            x       y       z     vdW  Elec       q    Type
REMARK                         _______ _______ _______ _____ _____    ______ ____
ROOT
ATOM      1  N   UNL     1      -0.347  11.244  18.572  0.00  0.00    +0.000 N 
ATOM      2  C   UNL     1      -1.769  11.016  18.302  0.00  0.00    +0.000 A 
ATOM      3  C   UNL     1      -2.142  10.534  17.046  0.00  0.00    +0.000 A 
ATOM      4  C   UNL     1      -3.448  10.736  16.577  0.00  0.00    +0.000 A 
ATOM      5  C   UNL     1      -4.396  11.378  17.376  0.00  0.00    +0.000 A 
ATOM      6  C   UNL     1      -4.038  11.863  18.629  0.00  0.00    +0.000 A 
ATOM      7  C   UNL     1      -2.712  11.746  19.057  0.00  0.00    +0.000 A 
ATOM      8  C   UNL     1      -2.195  12.646  20.145  0.00  0.00    +0.000 C 
ATOM      9  C   UNL     1      -1.014  13.473  19.577  0.00  0.00    +0.000 C 
ATOM     10  C   UNL     1      -0.175  12.739  18.493  0.00  0.00    +0.000 C 
ATOM     11  C   UNL     1       1.263  13.188  18.356  0.00  0.00    +0.000 C 
ENDROOT
BRANCH   1  12
ATOM     12  S   UNL     1       0.293  10.408  19.961  0.00  0.00    +0.000 S 
ATOM     13  O   UNL     1      -0.814   9.812  20.687  0.00  0.00    +0.000 OA
ATOM     14  O   UNL     1       1.246  11.254  20.638  0.00  0.00    +0.000 OA
BRANCH  12  19
ATOM     15  C   UNL     1       3.965   5.976  17.940  0.00  0.00    +0.000 C 
ATOM     16  C   UNL     1       3.034   7.047  18.429  0.00  0.00    +0.000 A 
ATOM     17  C   UNL     1       2.704   8.128  17.604  0.00  0.00    +0.000 A 
ATOM     18  C   UNL     1       1.826   9.117  18.054  0.00  0.00    +0.000 A 
ATOM     19  C   UNL     1       1.252   9.025  19.333  0.00  0.00    +0.000 A 
ATOM     20  C   UNL     1       1.589   7.962  20.173  0.00  0.00    +0.000 A 
ATOM     21  C   UNL     1       2.472   6.975  19.715  0.00  0.00    +0.000 A 
ENDBRANCH  12  19
ENDBRANCH   1  12
TORSDOF 2
ENDMDL
