MODEL 1
REMARK VINA RESULT:      -7.6      0.000      0.000
REMARK  Name = 
REMARK  4 active torsions:
REMARK  status: ('A' for Active; 'I' for Inactive)
REMARK    1  A    between atoms: N_2  and  C_4
REMARK    2  A    between atoms: C_7  and  S_8
REMARK    3  A    between atoms: S_8  and  N_11
REMARK    4  A    between atoms: N_11  and  C_12
REMARK                            x       y       z     vdW  Elec       q    Type
REMARK                         _______ _______ _______ _____ _____    ______ ____
ROOT
ATOM      1  S   UNL     1       5.014   4.386  18.993  0.00  0.00    +0.000 S 
ATOM      2  O   UNL     1       5.149   3.005  19.411  0.00  0.00    +0.000 OA
ATOM      3  O   UNL     1       5.565   5.461  19.788  0.00  0.00    +0.000 OA
ENDROOT
BRANCH   1   7
ATOM      4  C   UNL     1       6.761   4.752  14.789  0.00  0.00    +0.000 A 
ATOM      5  C   UNL     1       7.488   5.207  15.897  0.00  0.00    +0.000 A 
ATOM      6  C   UNL     1       6.944   5.079  17.175  0.00  0.00    +0.000 A 
ATOM      7  C   UNL     1       5.673   4.517  17.342  0.00  0.00    +0.000 A 
ATOM      8  C   UNL     1       4.947   4.046  16.240  0.00  0.00    +0.000 A 
ATOM      9  C   UNL     1       5.494   4.168  14.956  0.00  0.00    +0.000 A 
BRANCH   4  11
ATOM     10  O   UNL     1       6.839   4.218  12.531  0.00  0.00    +0.000 OA
ATOM     11  N   UNL     1       7.334   4.893  13.444  0.00  0.00    +0.000 N 
ATOM     12  O   UNL     1       8.285   5.674  13.306  0.00  0.00    +0.000 OA
ENDBRANCH   4  11
ENDBRANCH   1   7
BRANCH   1  13
ATOM     13  N   UNL     1       3.368   4.653  18.769  0.00  0.00    +0.000 N 
ATOM     14  H   UNL     1       2.783   3.823  18.843  0.00  0.00    +0.000 HD
BRANCH  13  15
ATOM     15  C   UNL     1       2.826   5.932  19.048  0.00  0.00    +0.000 A 
ATOM     16  C   UNL     1       2.180   6.095  20.276  0.00  0.00    +0.000 A 
ATOM     17  C   UNL     1       1.541   7.294  20.599  0.00  0.00    +0.000 A 
ATOM     18  C   UNL     1       1.576   8.344  19.668  0.00  0.00    +0.000 A 
ATOM     19  C   UNL     1       1.060   9.656  19.601  0.00  0.00    +0.000 A 
ATOM     20  N   UNL     1       1.379  10.276  18.463  0.00  0.00    +0.000 NA
ATOM     21  N   UNL     1       2.101   9.356  17.795  0.00  0.00    +0.000 N 
ATOM     22  C   UNL     1       2.253   8.169  18.464  0.00  0.00    +0.000 A 
ATOM     23  C   UNL     1       2.902   6.974  18.119  0.00  0.00    +0.000 A 
ATOM     24  H   UNL     1       2.456   9.602  16.879  0.00  0.00    +0.000 HD
ENDBRANCH  13  15
ENDBRANCH   1  13
TORSDOF 4
ENDMDL
MODEL 2
REMARK VINA RESULT:      -7.6      1.005      1.798
REMARK  Name = 
REMARK  4 active torsions:
REMARK  status: ('A' for Active; 'I' for Inactive)
REMARK    1  A    between atoms: N_2  and  C_4
REMARK    2  A    between atoms: C_7  and  S_8
REMARK    3  A    between atoms: S_8  and  N_11
REMARK    4  A    between atoms: N_11  and  C_12
REMARK                            x       y       z     vdW  Elec       q    Type
REMARK                         _______ _______ _______ _____ _____    ______ ____
ROOT
ATOM      1  S   UNL     1       4.950   4.332  18.967  0.00  0.00    +0.000 S 
ATOM      2  O   UNL     1       5.103   2.950  19.372  0.00  0.00    +0.000 OA
ATOM      3  O   UNL     1       5.441   5.410  19.797  0.00  0.00    +0.000 OA
ENDROOT
BRANCH   1   7
ATOM      4  C   UNL     1       6.735   4.738  14.783  0.00  0.00    +0.000 A 
ATOM      5  C   UNL     1       5.444   4.221  14.951  0.00  0.00    +0.000 A 
ATOM      6  C   UNL     1       4.910   4.112  16.236  0.00  0.00    +0.000 A 
ATOM      7  C   UNL     1       5.670   4.501  17.345  0.00  0.00    +0.000 A 
ATOM      8  C   UNL     1       6.955   5.034  17.182  0.00  0.00    +0.000 A 
ATOM      9  C   UNL     1       7.491   5.150  15.892  0.00  0.00    +0.000 A 
BRANCH   4  11
ATOM     10  O   UNL     1       6.817   4.123  12.546  0.00  0.00    +0.000 OA
ATOM     11  N   UNL     1       7.296   4.847  13.429  0.00  0.00    +0.000 N 
ATOM     12  O   UNL     1       8.220   5.653  13.255  0.00  0.00    +0.000 OA
ENDBRANCH   4  11
ENDBRANCH   1   7
BRANCH   1  13
ATOM     13  N   UNL     1       3.308   4.560  18.680  0.00  0.00    +0.000 N 
ATOM     14  H   UNL     1       2.738   3.719  18.746  0.00  0.00    +0.000 HD
BRANCH  13  15
ATOM     15  C   UNL     1       2.730   5.832  18.920  0.00  0.00    +0.000 A 
ATOM     16  C   UNL     1       2.713   6.735  17.855  0.00  0.00    +0.000 A 
ATOM     17  C   UNL     1       2.243   8.040  18.025  0.00  0.00    +0.000 A 
ATOM     18  C   UNL     1       1.769   8.421  19.289  0.00  0.00    +0.000 A 
ATOM     19  C   UNL     1       1.248   9.602  19.863  0.00  0.00    +0.000 A 
ATOM     20  N   UNL     1       0.931   9.451  21.150  0.00  0.00    +0.000 NA
ATOM     21  N   UNL     1       1.253   8.168  21.405  0.00  0.00    +0.000 N 
ATOM     22  C   UNL     1       1.766   7.494  20.328  0.00  0.00    +0.000 A 
ATOM     23  C   UNL     1       2.234   6.179  20.181  0.00  0.00    +0.000 A 
ATOM     24  H   UNL     1       1.102   7.818  22.344  0.00  0.00    +0.000 HD
ENDBRANCH  13  15
ENDBRANCH   1  13
TORSDOF 4
ENDMDL
MODEL 3
REMARK VINA RESULT:      -7.6      0.222      1.248
REMARK  Name = 
REMARK  4 active torsions:
REMARK  status: ('A' for Active; 'I' for Inactive)
REMARK    1  A    between atoms: N_2  and  C_4
REMARK    2  A    between atoms: C_7  and  S_8
REMARK    3  A    between atoms: S_8  and  N_11
REMARK    4  A    between atoms: N_11  and  C_12
REMARK                            x       y       z     vdW  Elec       q    Type
REMARK                         _______ _______ _______ _____ _____    ______ ____
ROOT
ATOM      1  S   UNL     1       4.888   4.526  18.961  0.00  0.00    +0.000 S 
ATOM      2  O   UNL     1       4.981   3.150  19.404  0.00  0.00    +0.000 OA
ATOM      3  O   UNL     1       5.444   5.602  19.752  0.00  0.00    +0.000 OA
ENDROOT
BRANCH   1   7
ATOM      4  C   UNL     1       6.617   4.728  14.739  0.00  0.00    +0.000 A 
ATOM      5  C   UNL     1       5.315   4.254  14.945  0.00  0.00    +0.000 A 
ATOM      6  C   UNL     1       4.799   4.207  16.241  0.00  0.00    +0.000 A 
ATOM      7  C   UNL     1       5.586   4.616  17.324  0.00  0.00    +0.000 A 
ATOM      8  C   UNL     1       6.883   5.104  17.122  0.00  0.00    +0.000 A 
ATOM      9  C   UNL     1       7.402   5.158  15.822  0.00  0.00    +0.000 A 
BRANCH   4  11
ATOM     10  O   UNL     1       8.026   5.619  13.123  0.00  0.00    +0.000 OA
ATOM     11  N   UNL     1       7.160   4.770  13.374  0.00  0.00    +0.000 N 
ATOM     12  O   UNL     1       6.712   3.957  12.555  0.00  0.00    +0.000 OA
ENDBRANCH   4  11
ENDBRANCH   1   7
BRANCH   1  13
ATOM     13  N   UNL     1       3.253   4.826  18.694  0.00  0.00    +0.000 N 
ATOM     14  H   UNL     1       2.651   4.007  18.748  0.00  0.00    +0.000 HD
BRANCH  13  15
ATOM     15  C   UNL     1       2.729   6.114  18.966  0.00  0.00    +0.000 A 
ATOM     16  C   UNL     1       2.165   6.318  20.228  0.00  0.00    +0.000 A 
ATOM     17  C   UNL     1       1.546   7.528  20.552  0.00  0.00    +0.000 A 
ATOM     18  C   UNL     1       1.517   8.546  19.587  0.00  0.00    +0.000 A 
ATOM     19  C   UNL     1       0.995   9.855  19.510  0.00  0.00    +0.000 A 
ATOM     20  N   UNL     1       1.238  10.437  18.333  0.00  0.00    +0.000 NA
ATOM     21  N   UNL     1       1.916   9.494  17.651  0.00  0.00    +0.000 N 
ATOM     22  C   UNL     1       2.114   8.331  18.347  0.00  0.00    +0.000 A 
ATOM     23  C   UNL     1       2.740   7.124  17.999  0.00  0.00    +0.000 A 
ATOM     24  H   UNL     1       2.209   9.710  16.705  0.00  0.00    +0.000 HD
ENDBRANCH  13  15
ENDBRANCH   1  13
TORSDOF 4
ENDMDL
MODEL 4
REMARK VINA RESULT:      -7.6      0.955      1.440
REMARK  Name = 
REMARK  4 active torsions:
REMARK  status: ('A' for Active; 'I' for Inactive)
REMARK    1  A    between atoms: N_2  and  C_4
REMARK    2  A    between atoms: C_7  and  S_8
REMARK    3  A    between atoms: S_8  and  N_11
REMARK    4  A    between atoms: N_11  and  C_12
REMARK                            x       y       z     vdW  Elec       q    Type
REMARK                         _______ _______ _______ _____ _____    ______ ____
ROOT
ATOM      1  S   UNL     1       5.000   4.433  19.066  0.00  0.00    +0.000 S 
ATOM      2  O   UNL     1       5.206   3.078  19.534  0.00  0.00    +0.000 OA
ATOM      3  O   UNL     1       5.495   5.564  19.819  0.00  0.00    +0.000 OA
ENDROOT
BRANCH   1   7
ATOM      4  C   UNL     1       6.716   4.730  14.844  0.00  0.00    +0.000 A 
ATOM      5  C   UNL     1       7.446   5.214  15.938  0.00  0.00    +0.000 A 
ATOM      6  C   UNL     1       6.911   5.108  17.222  0.00  0.00    +0.000 A 
ATOM      7  C   UNL     1       5.646   4.536  17.408  0.00  0.00    +0.000 A 
ATOM      8  C   UNL     1       4.919   4.036  16.321  0.00  0.00    +0.000 A 
ATOM      9  C   UNL     1       5.456   4.137  15.031  0.00  0.00    +0.000 A 
BRANCH   4  11
ATOM     10  O   UNL     1       6.788   4.148  12.598  0.00  0.00    +0.000 OA
ATOM     11  N   UNL     1       7.280   4.848  13.493  0.00  0.00    +0.000 N 
ATOM     12  O   UNL     1       8.220   5.638  13.332  0.00  0.00    +0.000 OA
ENDBRANCH   4  11
ENDBRANCH   1   7
BRANCH   1  13
ATOM     13  N   UNL     1       3.341   4.606  18.839  0.00  0.00    +0.000 N 
ATOM     14  H   UNL     1       2.793   3.764  19.007  0.00  0.00    +0.000 HD
BRANCH  13  15
ATOM     15  C   UNL     1       2.747   5.883  18.992  0.00  0.00    +0.000 A 
ATOM     16  C   UNL     1       2.835   6.759  17.908  0.00  0.00    +0.000 A 
ATOM     17  C   UNL     1       2.355   8.069  18.000  0.00  0.00    +0.000 A 
ATOM     18  C   UNL     1       1.764   8.482  19.204  0.00  0.00    +0.000 A 
ATOM     19  C   UNL     1       1.195   9.677  19.696  0.00  0.00    +0.000 A 
ATOM     20  N   UNL     1       0.756   9.559  20.951  0.00  0.00    +0.000 NA
ATOM     21  N   UNL     1       1.048   8.282  21.267  0.00  0.00    +0.000 N 
ATOM     22  C   UNL     1       1.660   7.581  20.260  0.00  0.00    +0.000 A 
ATOM     23  C   UNL     1       2.134   6.262  20.190  0.00  0.00    +0.000 A 
ATOM     24  H   UNL     1       0.807   7.955  22.196  0.00  0.00    +0.000 HD
ENDBRANCH  13  15
ENDBRANCH   1  13
TORSDOF 4
ENDMDL
MODEL 5
REMARK VINA RESULT:      -7.5      2.993      6.282
REMARK  Name = 
REMARK  4 active torsions:
REMARK  status: ('A' for Active; 'I' for Inactive)
REMARK    1  A    between atoms: N_2  and  C_4
REMARK    2  A    between atoms: C_7  and  S_8
REMARK    3  A    between atoms: S_8  and  N_11
REMARK    4  A    between atoms: N_11  and  C_12
REMARK                            x       y       z     vdW  Elec       q    Type
REMARK                         _______ _______ _______ _____ _____    ______ ____
ROOT
ATOM      1  S   UNL     1       2.496   2.968  18.008  0.00  0.00    +0.000 S 
ATOM      2  O   UNL     1       1.743   1.972  18.742  0.00  0.00    +0.000 OA
ATOM      3  O   UNL     1       2.320   3.132  16.582  0.00  0.00    +0.000 OA
ENDROOT
BRANCH   1   7
ATOM      4  C   UNL     1       1.794   7.039  19.955  0.00  0.00    +0.000 A 
ATOM      5  C   UNL     1       2.161   6.957  18.605  0.00  0.00    +0.000 A 
ATOM      6  C   UNL     1       2.363   5.705  18.024  0.00  0.00    +0.000 A 
ATOM      7  C   UNL     1       2.216   4.544  18.792  0.00  0.00    +0.000 A 
ATOM      8  C   UNL     1       1.834   4.619  20.137  0.00  0.00    +0.000 A 
ATOM      9  C   UNL     1       1.625   5.874  20.722  0.00  0.00    +0.000 A 
BRANCH   4  11
ATOM     10  O   UNL     1       1.388   9.320  19.811  0.00  0.00    +0.000 OA
ATOM     11  N   UNL     1       1.587   8.359  20.566  0.00  0.00    +0.000 N 
ATOM     12  O   UNL     1       1.632   8.431  21.801  0.00  0.00    +0.000 OA
ENDBRANCH   4  11
ENDBRANCH   1   7
BRANCH   1  13
ATOM     13  N   UNL     1       4.119   2.665  18.332  0.00  0.00    +0.000 N 
ATOM     14  H   UNL     1       4.419   1.706  18.171  0.00  0.00    +0.000 HD
BRANCH  13  15
ATOM     15  C   UNL     1       5.055   3.726  18.247  0.00  0.00    +0.000 A 
ATOM     16  C   UNL     1       5.420   4.349  19.443  0.00  0.00    +0.000 A 
ATOM     17  C   UNL     1       6.269   5.460  19.445  0.00  0.00    +0.000 A 
ATOM     18  C   UNL     1       6.764   5.927  18.219  0.00  0.00    +0.000 A 
ATOM     19  C   UNL     1       7.597   6.987  17.800  0.00  0.00    +0.000 A 
ATOM     20  N   UNL     1       7.775   7.009  16.477  0.00  0.00    +0.000 NA
ATOM     21  N   UNL     1       7.049   5.960  16.045  0.00  0.00    +0.000 N 
ATOM     22  C   UNL     1       6.412   5.269  17.043  0.00  0.00    +0.000 A 
ATOM     23  C   UNL     1       5.561   4.154  17.016  0.00  0.00    +0.000 A 
ATOM     24  H   UNL     1       7.025   5.776  15.048  0.00  0.00    +0.000 HD
ENDBRANCH  13  15
ENDBRANCH   1  13
TORSDOF 4
ENDMDL
MODEL 6
REMARK VINA RESULT:      -7.4      3.019      6.320
REMARK  Name = 
REMARK  4 active torsions:
REMARK  status: ('A' for Active; 'I' for Inactive)
REMARK    1  A    between atoms: N_2  and  C_4
REMARK    2  A    between atoms: C_7  and  S_8
REMARK    3  A    between atoms: S_8  and  N_11
REMARK    4  A    between atoms: N_11  and  C_12
REMARK                            x       y       z     vdW  Elec       q    Type
REMARK                         _______ _______ _______ _____ _____    ______ ____
ROOT
ATOM      1  S   UNL     1       2.378   3.067  18.010  0.00  0.00    +0.000 S 
ATOM      2  O   UNL     1       1.596   2.105  18.758  0.00  0.00    +0.000 OA
ATOM      3  O   UNL     1       2.207   3.217  16.582  0.00  0.00    +0.000 OA
ENDROOT
BRANCH   1   7
ATOM      4  C   UNL     1       1.763   7.119  20.026  0.00  0.00    +0.000 A 
ATOM      5  C   UNL     1       1.578   5.935  20.752  0.00  0.00    +0.000 A 
ATOM      6  C   UNL     1       1.779   4.706  20.123  0.00  0.00    +0.000 A 
ATOM      7  C   UNL     1       2.145   4.661  18.773  0.00  0.00    +0.000 A 
ATOM      8  C   UNL     1       2.347   5.842  18.046  0.00  0.00    +0.000 A 
ATOM      9  C   UNL     1       2.152   7.077  18.677  0.00  0.00    +0.000 A 
BRANCH   4  11
ATOM     10  O   UNL     1       1.318   9.397  19.974  0.00  0.00    +0.000 OA
ATOM     11  N   UNL     1       1.546   8.412  20.689  0.00  0.00    +0.000 N 
ATOM     12  O   UNL     1       1.611   8.439  21.926  0.00  0.00    +0.000 OA
ENDBRANCH   4  11
ENDBRANCH   1   7
BRANCH   1  13
ATOM     13  N   UNL     1       3.992   2.721  18.339  0.00  0.00    +0.000 N 
ATOM     14  H   UNL     1       4.265   1.752  18.185  0.00  0.00    +0.000 HD
BRANCH  13  15
ATOM     15  C   UNL     1       4.958   3.754  18.249  0.00  0.00    +0.000 A 
ATOM     16  C   UNL     1       5.404   4.314  19.449  0.00  0.00    +0.000 A 
ATOM     17  C   UNL     1       6.288   5.396  19.453  0.00  0.00    +0.000 A 
ATOM     18  C   UNL     1       6.737   5.899  18.222  0.00  0.00    +0.000 A 
ATOM     19  C   UNL     1       7.583   6.949  17.804  0.00  0.00    +0.000 A 
ATOM     20  N   UNL     1       7.694   7.022  16.476  0.00  0.00    +0.000 NA
ATOM     21  N   UNL     1       6.912   6.016  16.039  0.00  0.00    +0.000 N 
ATOM     22  C   UNL     1       6.303   5.304  17.040  0.00  0.00    +0.000 A 
ATOM     23  C   UNL     1       5.415   4.218  17.012  0.00  0.00    +0.000 A 
ATOM     24  H   UNL     1       6.831   5.875  15.039  0.00  0.00    +0.000 HD
ENDBRANCH  13  15
ENDBRANCH   1  13
TORSDOF 4
ENDMDL
MODEL 7
REMARK VINA RESULT:      -7.4      1.704      2.199
REMARK  Name = 
REMARK  4 active torsions:
REMARK  status: ('A' for Active; 'I' for Inactive)
REMARK    1  A    between atoms: N_2  and  C_4
REMARK    2  A    between atoms: C_7  and  S_8
REMARK    3  A    between atoms: S_8  and  N_11
REMARK    4  A    between atoms: N_11  and  C_12
REMARK                            x       y       z     vdW  Elec       q    Type
REMARK                         _______ _______ _______ _____ _____    ______ ____
ROOT
ATOM      1  S   UNL     1       2.813   5.009  18.787  0.00  0.00    +0.000 S 
ATOM      2  O   UNL     1       1.512   5.272  18.207  0.00  0.00    +0.000 OA
ATOM      3  O   UNL     1       3.038   3.842  19.611  0.00  0.00    +0.000 OA
ENDROOT
BRANCH   1   7
ATOM      4  C   UNL     1       5.862   4.908  15.389  0.00  0.00    +0.000 A 
ATOM      5  C   UNL     1       5.366   3.712  15.927  0.00  0.00    +0.000 A 
ATOM      6  C   UNL     1       4.428   3.762  16.959  0.00  0.00    +0.000 A 
ATOM      7  C   UNL     1       4.003   4.998  17.461  0.00  0.00    +0.000 A 
ATOM      8  C   UNL     1       4.483   6.195  16.916  0.00  0.00    +0.000 A 
ATOM      9  C   UNL     1       5.421   6.149  15.876  0.00  0.00    +0.000 A 
BRANCH   4  11
ATOM     10  O   UNL     1       7.869   5.553  14.416  0.00  0.00    +0.000 OA
ATOM     11  N   UNL     1       6.853   4.853  14.306  0.00  0.00    +0.000 N 
ATOM     12  O   UNL     1       6.610   4.112  13.344  0.00  0.00    +0.000 OA
ENDBRANCH   4  11
ENDBRANCH   1   7
BRANCH   1  13
ATOM     13  N   UNL     1       3.227   6.388  19.658  0.00  0.00    +0.000 N 
ATOM     14  H   UNL     1       4.227   6.560  19.742  0.00  0.00    +0.000 HD
BRANCH  13  15
ATOM     15  C   UNL     1       2.311   7.467  19.731  0.00  0.00    +0.000 A 
ATOM     16  C   UNL     1       1.563   7.588  20.903  0.00  0.00    +0.000 A 
ATOM     17  C   UNL     1       0.574   8.569  21.028  0.00  0.00    +0.000 A 
ATOM     18  C   UNL     1       0.361   9.445  19.953  0.00  0.00    +0.000 A 
ATOM     19  C   UNL     1      -0.516  10.517  19.677  0.00  0.00    +0.000 A 
ATOM     20  N   UNL     1      -0.316  11.046  18.468  0.00  0.00    +0.000 NA
ATOM     21  N   UNL     1       0.691  10.308  17.964  0.00  0.00    +0.000 N 
ATOM     22  C   UNL     1       1.142   9.325  18.806  0.00  0.00    +0.000 A 
ATOM     23  C   UNL     1       2.139   8.348  18.659  0.00  0.00    +0.000 A 
ATOM     24  H   UNL     1       1.020  10.527  17.031  0.00  0.00    +0.000 HD
ENDBRANCH  13  15
ENDBRANCH   1  13
TORSDOF 4
ENDMDL
MODEL 8
REMARK VINA RESULT:      -7.4      1.829      2.552
REMARK  Name = 
REMARK  4 active torsions:
REMARK  status: ('A' for Active; 'I' for Inactive)
REMARK    1  A    between atoms: N_2  and  C_4
REMARK    2  A    between atoms: C_7  and  S_8
REMARK    3  A    between atoms: S_8  and  N_11
REMARK    4  A    between atoms: N_11  and  C_12
REMARK                            x       y       z     vdW  Elec       q    Type
REMARK                         _______ _______ _______ _____ _____    ______ ____
ROOT
ATOM      1  S   UNL     1       2.937   4.952  18.928  0.00  0.00    +0.000 S 
ATOM      2  O   UNL     1       1.594   5.045  18.395  0.00  0.00    +0.000 OA
ATOM      3  O   UNL     1       3.305   3.889  19.838  0.00  0.00    +0.000 OA
ENDROOT
BRANCH   1   7
ATOM      4  C   UNL     1       5.825   4.807  15.393  0.00  0.00    +0.000 A 
ATOM      5  C   UNL     1       5.327   3.619  15.946  0.00  0.00    +0.000 A 
ATOM      6  C   UNL     1       4.439   3.682  17.020  0.00  0.00    +0.000 A 
ATOM      7  C   UNL     1       4.065   4.923  17.549  0.00  0.00    +0.000 A 
ATOM      8  C   UNL     1       4.547   6.114  16.991  0.00  0.00    +0.000 A 
ATOM      9  C   UNL     1       5.435   6.054  15.908  0.00  0.00    +0.000 A 
BRANCH   4  11
ATOM     10  O   UNL     1       7.755   5.480  14.293  0.00  0.00    +0.000 OA
ATOM     11  N   UNL     1       6.764   4.738  14.266  0.00  0.00    +0.000 N 
ATOM     12  O   UNL     1       6.504   3.944  13.352  0.00  0.00    +0.000 OA
ENDBRANCH   4  11
ENDBRANCH   1   7
BRANCH   1  13
ATOM     13  N   UNL     1       3.261   6.435  19.654  0.00  0.00    +0.000 N 
ATOM     14  H   UNL     1       4.247   6.630  19.815  0.00  0.00    +0.000 HD
BRANCH  13  15
ATOM     15  C   UNL     1       2.342   7.503  19.495  0.00  0.00    +0.000 A 
ATOM     16  C   UNL     1       2.282   8.108  18.238  0.00  0.00    +0.000 A 
ATOM     17  C   UNL     1       1.470   9.223  18.014  0.00  0.00    +0.000 A 
ATOM     18  C   UNL     1       0.698   9.714  19.078  0.00  0.00    +0.000 A 
ATOM     19  C   UNL     1      -0.201  10.785  19.268  0.00  0.00    +0.000 A 
ATOM     20  N   UNL     1      -0.692  10.831  20.509  0.00  0.00    +0.000 NA
ATOM     21  N   UNL     1      -0.101   9.785  21.119  0.00  0.00    +0.000 N 
ATOM     22  C   UNL     1       0.750   9.074  20.314  0.00  0.00    +0.000 A 
ATOM     23  C   UNL     1       1.558   7.954  20.561  0.00  0.00    +0.000 A 
ATOM     24  H   UNL     1      -0.320   9.617  22.094  0.00  0.00    +0.000 HD
ENDBRANCH  13  15
ENDBRANCH   1  13
TORSDOF 4
ENDMDL
MODEL 9
REMARK VINA RESULT:      -7.4      1.843      2.372
REMARK  Name = 
REMARK  4 active torsions:
REMARK  status: ('A' for Active; 'I' for Inactive)
REMARK    1  A    between atoms: N_2  and  C_4
REMARK    2  A    between atoms: C_7  and  S_8
REMARK    3  A    between atoms: S_8  and  N_11
REMARK    4  A    between atoms: N_11  and  C_12
REMARK                            x       y       z     vdW  Elec       q    Type
REMARK                         _______ _______ _______ _____ _____    ______ ____
ROOT
ATOM      1  S   UNL     1       2.931   4.990  18.843  0.00  0.00    +0.000 S 
ATOM      2  O   UNL     1       1.603   5.113  18.279  0.00  0.00    +0.000 OA
ATOM      3  O   UNL     1       3.248   3.933  19.779  0.00  0.00    +0.000 OA
ENDROOT
BRANCH   1   7
ATOM      4  C   UNL     1       5.895   4.842  15.372  0.00  0.00    +0.000 A 
ATOM      5  C   UNL     1       5.471   6.075  15.885  0.00  0.00    +0.000 A 
ATOM      6  C   UNL     1       4.572   6.102  16.951  0.00  0.00    +0.000 A 
ATOM      7  C   UNL     1       4.087   4.904  17.489  0.00  0.00    +0.000 A 
ATOM      8  C   UNL     1       4.519   3.668  16.991  0.00  0.00    +0.000 A 
ATOM      9  C   UNL     1       5.426   3.638  15.924  0.00  0.00    +0.000 A 
BRANCH   4  11
ATOM     10  O   UNL     1       6.591   4.051  13.303  0.00  0.00    +0.000 OA
ATOM     11  N   UNL     1       6.837   4.817  14.245  0.00  0.00    +0.000 N 
ATOM     12  O   UNL     1       7.826   5.559  14.309  0.00  0.00    +0.000 OA
ENDBRANCH   4  11
ENDBRANCH   1   7
BRANCH   1  13
ATOM     13  N   UNL     1       3.283   6.476  19.550  0.00  0.00    +0.000 N 
ATOM     14  H   UNL     1       4.275   6.678  19.657  0.00  0.00    +0.000 HD
BRANCH  13  15
ATOM     15  C   UNL     1       2.349   7.536  19.441  0.00  0.00    +0.000 A 
ATOM     16  C   UNL     1       2.243   8.166  18.199  0.00  0.00    +0.000 A 
ATOM     17  C   UNL     1       1.413   9.276  18.023  0.00  0.00    +0.000 A 
ATOM     18  C   UNL     1       0.671   9.738  19.120  0.00  0.00    +0.000 A 
ATOM     19  C   UNL     1      -0.233  10.796  19.360  0.00  0.00    +0.000 A 
ATOM     20  N   UNL     1      -0.685  10.812  20.616  0.00  0.00    +0.000 NA
ATOM     21  N   UNL     1      -0.065   9.760  21.186  0.00  0.00    +0.000 N 
ATOM     22  C   UNL     1       0.768   9.074  20.341  0.00  0.00    +0.000 A 
ATOM     23  C   UNL     1       1.595   7.958  20.541  0.00  0.00    +0.000 A 
ATOM     24  H   UNL     1      -0.251   9.571  22.164  0.00  0.00    +0.000 HD
ENDBRANCH  13  15
ENDBRANCH   1  13
TORSDOF 4
ENDMDL
