MODEL 1
REMARK VINA RESULT:      -8.3      0.000      0.000
REMARK  Name = 
REMARK  6 active torsions:
REMARK  status: ('A' for Active; 'I' for Inactive)
REMARK    1  A    between atoms: C_2  and  C_4
REMARK    2  A    between atoms: C_4  and  O_5
REMARK    3  A    between atoms: O_5  and  C_6
REMARK    4  A    between atoms: C_10  and  C_11
REMARK    5  A    between atoms: C_13  and  O_14
REMARK    6  A    between atoms: N_20  and  C_21
REMARK                            x       y       z     vdW  Elec       q    Type
REMARK                         _______ _______ _______ _____ _____    ______ ____
ROOT
ATOM      1  C   UNL     1       3.599   5.776  17.877  0.00  0.00    +0.000 C 
ATOM      2  C   UNL     1       3.026   4.675  18.799  0.00  0.00    +0.000 C 
ATOM      3  C   UNL     1       2.372   5.203  20.063  0.00  0.00    +0.000 C 
ATOM      4  N   UNL     1       1.996   6.415  20.312  0.00  0.00    +0.000 NA
ATOM      5  C   UNL     1       2.248   7.299  19.314  0.00  0.00    +0.000 A 
ATOM      6  C   UNL     1       2.963   7.089  18.158  0.00  0.00    +0.000 A 
ATOM      7  N   UNL     1       2.871   8.151  17.307  0.00  0.00    +0.000 NA
ATOM      8  C   UNL     1       2.139   9.031  17.964  0.00  0.00    +0.000 A 
ATOM      9  N   UNL     1       1.743   8.589  19.211  0.00  0.00    +0.000 N 
ENDROOT
BRANCH   9  10
ATOM     10  C   UNL     1       0.959   9.286  20.173  0.00  0.00    +0.000 A 
ATOM     11  C   UNL     1       0.058  10.283  19.780  0.00  0.00    +0.000 A 
ATOM     12  C   UNL     1      -0.761  10.897  20.737  0.00  0.00    +0.000 A 
ATOM     13  C   UNL     1      -0.662  10.539  22.081  0.00  0.00    +0.000 A 
ATOM     14 CL   UNL     1      -1.686  11.275  23.249  0.00  0.00    +0.000 Cl
ATOM     15  C   UNL     1       0.258   9.577  22.485  0.00  0.00    +0.000 A 
ATOM     16  C   UNL     1       1.063   8.951  21.534  0.00  0.00    +0.000 A 
ENDBRANCH   9  10
BRANCH   1  21
ATOM     17  C   UNL     1       7.194   7.153  17.755  0.00  0.00    +0.000 A 
ATOM     18  C   UNL     1       7.829   6.272  18.628  0.00  0.00    +0.000 A 
ATOM     19  C   UNL     1       7.121   5.230  19.220  0.00  0.00    +0.000 A 
ATOM     20  C   UNL     1       5.766   5.063  18.937  0.00  0.00    +0.000 A 
ATOM     21  C   UNL     1       5.101   5.940  18.064  0.00  0.00    +0.000 A 
ATOM     22  C   UNL     1       5.837   6.985  17.467  0.00  0.00    +0.000 A 
BRANCH  17  23
ATOM     23  O   UNL     1       8.008   8.107  17.211  0.00  0.00    +0.000 OA
BRANCH  23  24
ATOM     24  C   UNL     1       7.724   9.461  17.558  0.00  0.00    +0.000 C 
BRANCH  24  26
ATOM     25  N   UNL     1       9.413  11.207  17.903  0.00  0.00    +0.000 N 
ATOM     26  C   UNL     1       8.876  10.045  18.376  0.00  0.00    +0.000 C 
ATOM     27  O   UNL     1       9.301   9.525  19.402  0.00  0.00    +0.000 OA
ATOM     28  H   UNL     1      10.153  11.659  18.423  0.00  0.00    +0.000 HD
ATOM     29  H   UNL     1       9.024  11.653  17.080  0.00  0.00    +0.000 HD
ENDBRANCH  24  26
ENDBRANCH  23  24
ENDBRANCH  17  23
ENDBRANCH   1  21
BRANCH   3  30
ATOM     30  O   UNL     1       2.126   4.264  20.995  0.00  0.00    +0.000 OA
ATOM     31  H   UNL     1       1.244   3.869  20.924  0.00  0.00    +0.000 HD
ENDBRANCH   3  30
TORSDOF 6
ENDMDL
MODEL 2
REMARK VINA RESULT:      -8.3      0.613      1.100
REMARK  Name = 
REMARK  6 active torsions:
REMARK  status: ('A' for Active; 'I' for Inactive)
REMARK    1  A    between atoms: C_2  and  C_4
REMARK    2  A    between atoms: C_4  and  O_5
REMARK    3  A    between atoms: O_5  and  C_6
REMARK    4  A    between atoms: C_10  and  C_11
REMARK    5  A    between atoms: C_13  and  O_14
REMARK    6  A    between atoms: N_20  and  C_21
REMARK                            x       y       z     vdW  Elec       q    Type
REMARK                         _______ _______ _______ _____ _____    ______ ____
ROOT
ATOM      1  C   UNL     1       3.628   5.770  17.829  0.00  0.00    +0.000 C 
ATOM      2  C   UNL     1       3.038   4.630  18.691  0.00  0.00    +0.000 C 
ATOM      3  C   UNL     1       2.358   5.102  19.963  0.00  0.00    +0.000 C 
ATOM      4  N   UNL     1       1.974   6.302  20.256  0.00  0.00    +0.000 NA
ATOM      5  C   UNL     1       2.244   7.228  19.302  0.00  0.00    +0.000 A 
ATOM      6  C   UNL     1       2.984   7.069  18.153  0.00  0.00    +0.000 A 
ATOM      7  N   UNL     1       2.906   8.167  17.346  0.00  0.00    +0.000 NA
ATOM      8  C   UNL     1       2.159   9.017  18.026  0.00  0.00    +0.000 A 
ATOM      9  N   UNL     1       1.739   8.521  19.244  0.00  0.00    +0.000 N 
ENDROOT
BRANCH   9  10
ATOM     10  C   UNL     1       0.934   9.174  20.219  0.00  0.00    +0.000 A 
ATOM     11  C   UNL     1       1.079   8.886  21.581  0.00  0.00    +0.000 A 
ATOM     12  C   UNL     1       0.332   9.602  22.527  0.00  0.00    +0.000 A 
ATOM     13  C   UNL     1      -0.574  10.577  22.115  0.00  0.00    +0.000 A 
ATOM     14 CL   UNL     1      -1.471  11.470  23.279  0.00  0.00    +0.000 Cl
ATOM     15  C   UNL     1      -0.754  10.842  20.761  0.00  0.00    +0.000 A 
ATOM     16  C   UNL     1      -0.001  10.145  19.818  0.00  0.00    +0.000 A 
ENDBRANCH   9  10
BRANCH   1  21
ATOM     17  C   UNL     1       7.230   7.134  17.800  0.00  0.00    +0.000 A 
ATOM     18  C   UNL     1       7.840   6.248  18.686  0.00  0.00    +0.000 A 
ATOM     19  C   UNL     1       7.113   5.207  19.257  0.00  0.00    +0.000 A 
ATOM     20  C   UNL     1       5.766   5.046  18.939  0.00  0.00    +0.000 A 
ATOM     21  C   UNL     1       5.125   5.928  18.053  0.00  0.00    +0.000 A 
ATOM     22  C   UNL     1       5.879   6.972  17.478  0.00  0.00    +0.000 A 
BRANCH  17  23
ATOM     23  O   UNL     1       8.060   8.087  17.279  0.00  0.00    +0.000 OA
BRANCH  23  24
ATOM     24  C   UNL     1       7.682   9.446  17.487  0.00  0.00    +0.000 C 
BRANCH  24  26
ATOM     25  N   UNL     1       9.239   9.487  19.383  0.00  0.00    +0.000 N 
ATOM     26  C   UNL     1       8.751  10.169  18.307  0.00  0.00    +0.000 C 
ATOM     27  O   UNL     1       9.168  11.288  18.026  0.00  0.00    +0.000 OA
ATOM     28  H   UNL     1       9.974   9.900  19.940  0.00  0.00    +0.000 HD
ATOM     29  H   UNL     1       8.922   8.545  19.578  0.00  0.00    +0.000 HD
ENDBRANCH  24  26
ENDBRANCH  23  24
ENDBRANCH  17  23
ENDBRANCH   1  21
BRANCH   3  30
ATOM     30  O   UNL     1       2.096   4.124  20.849  0.00  0.00    +0.000 OA
ATOM     31  H   UNL     1       2.676   4.138  21.625  0.00  0.00    +0.000 HD
ENDBRANCH   3  30
TORSDOF 6
ENDMDL
MODEL 3
REMARK VINA RESULT:      -8.3      4.508      8.399
REMARK  Name = 
REMARK  6 active torsions:
REMARK  status: ('A' for Active; 'I' for Inactive)
REMARK    1  A    between atoms: C_2  and  C_4
REMARK    2  A    between atoms: C_4  and  O_5
REMARK    3  A    between atoms: O_5  and  C_6
REMARK    4  A    between atoms: C_10  and  C_11
REMARK    5  A    between atoms: C_13  and  O_14
REMARK    6  A    between atoms: N_20  and  C_21
REMARK                            x       y       z     vdW  Elec       q    Type
REMARK                         _______ _______ _______ _____ _____    ______ ____
ROOT
ATOM      1  C   UNL     1       0.837  10.730  19.536  0.00  0.00    +0.000 C 
ATOM      2  C   UNL     1       0.758  10.446  21.053  0.00  0.00    +0.000 C 
ATOM      3  C   UNL     1       0.865   8.976  21.417  0.00  0.00    +0.000 C 
ATOM      4  N   UNL     1       1.286   8.007  20.671  0.00  0.00    +0.000 NA
ATOM      5  C   UNL     1       1.646   8.376  19.417  0.00  0.00    +0.000 A 
ATOM      6  C   UNL     1       1.488   9.605  18.818  0.00  0.00    +0.000 A 
ATOM      7  N   UNL     1       2.118   9.662  17.609  0.00  0.00    +0.000 NA
ATOM      8  C   UNL     1       2.618   8.452  17.446  0.00  0.00    +0.000 A 
ATOM      9  N   UNL     1       2.348   7.603  18.500  0.00  0.00    +0.000 N 
ENDROOT
BRANCH   9  10
ATOM     10  C   UNL     1       2.730   6.239  18.641  0.00  0.00    +0.000 A 
ATOM     11  C   UNL     1       3.919   5.890  19.293  0.00  0.00    +0.000 A 
ATOM     12  C   UNL     1       4.233   4.538  19.490  0.00  0.00    +0.000 A 
ATOM     13  C   UNL     1       3.382   3.542  19.014  0.00  0.00    +0.000 A 
ATOM     14 CL   UNL     1       3.757   1.885  19.280  0.00  0.00    +0.000 Cl
ATOM     15  C   UNL     1       2.218   3.880  18.330  0.00  0.00    +0.000 A 
ATOM     16  C   UNL     1       1.893   5.223  18.147  0.00  0.00    +0.000 A 
ENDBRANCH   9  10
BRANCH   1  21
ATOM     17  C   UNL     1      -2.304  10.359  17.337  0.00  0.00    +0.000 A 
ATOM     18  C   UNL     1      -3.177  11.218  18.002  0.00  0.00    +0.000 A 
ATOM     19  C   UNL     1      -2.753  11.932  19.120  0.00  0.00    +0.000 A 
ATOM     20  C   UNL     1      -1.444  11.791  19.577  0.00  0.00    +0.000 A 
ATOM     21  C   UNL     1      -0.544  10.928  18.928  0.00  0.00    +0.000 A 
ATOM     22  C   UNL     1      -0.990  10.219  17.793  0.00  0.00    +0.000 A 
BRANCH  17  23
ATOM     23  O   UNL     1      -2.830   9.749  16.234  0.00  0.00    +0.000 OA
BRANCH  23  24
ATOM     24  C   UNL     1      -3.562  10.578  15.334  0.00  0.00    +0.000 C 
BRANCH  24  26
ATOM     25  N   UNL     1      -4.762   9.717  13.374  0.00  0.00    +0.000 N 
ATOM     26  C   UNL     1      -3.542   9.974  13.930  0.00  0.00    +0.000 C 
ATOM     27  O   UNL     1      -2.506   9.736  13.317  0.00  0.00    +0.000 OA
ATOM     28  H   UNL     1      -4.811   9.352  12.433  0.00  0.00    +0.000 HD
ATOM     29  H   UNL     1      -5.611   9.960  13.871  0.00  0.00    +0.000 HD
ENDBRANCH  24  26
ENDBRANCH  23  24
ENDBRANCH  17  23
ENDBRANCH   1  21
BRANCH   3  30
ATOM     30  O   UNL     1       0.519   8.690  22.685  0.00  0.00    +0.000 OA
ATOM     31  H   UNL     1       1.265   8.708  23.303  0.00  0.00    +0.000 HD
ENDBRANCH   3  30
TORSDOF 6
ENDMDL
MODEL 4
REMARK VINA RESULT:      -8.3      4.476      8.386
REMARK  Name = 
REMARK  6 active torsions:
REMARK  status: ('A' for Active; 'I' for Inactive)
REMARK    1  A    between atoms: C_2  and  C_4
REMARK    2  A    between atoms: C_4  and  O_5
REMARK    3  A    between atoms: O_5  and  C_6
REMARK    4  A    between atoms: C_10  and  C_11
REMARK    5  A    between atoms: C_13  and  O_14
REMARK    6  A    between atoms: N_20  and  C_21
REMARK                            x       y       z     vdW  Elec       q    Type
REMARK                         _______ _______ _______ _____ _____    ______ ____
ROOT
ATOM      1  C   UNL     1       0.656  11.182  19.600  0.00  0.00    +0.000 C 
ATOM      2  C   UNL     1       0.681  11.239  21.145  0.00  0.00    +0.000 C 
ATOM      3  C   UNL     1       0.799   9.882  21.814  0.00  0.00    +0.000 C 
ATOM      4  N   UNL     1       1.156   8.763  21.274  0.00  0.00    +0.000 NA
ATOM      5  C   UNL     1       1.431   8.839  19.948  0.00  0.00    +0.000 A 
ATOM      6  C   UNL     1       1.244   9.911  19.106  0.00  0.00    +0.000 A 
ATOM      7  N   UNL     1       1.787   9.686  17.874  0.00  0.00    +0.000 NA
ATOM      8  C   UNL     1       2.263   8.457  17.949  0.00  0.00    +0.000 A 
ATOM      9  N   UNL     1       2.058   7.866  19.180  0.00  0.00    +0.000 N 
ENDROOT
BRANCH   9  10
ATOM     10  C   UNL     1       2.436   6.557  19.591  0.00  0.00    +0.000 A 
ATOM     11  C   UNL     1       1.632   5.820  20.470  0.00  0.00    +0.000 A 
ATOM     12  C   UNL     1       1.984   4.503  20.795  0.00  0.00    +0.000 A 
ATOM     13  C   UNL     1       3.145   3.936  20.271  0.00  0.00    +0.000 A 
ATOM     14 CL   UNL     1       3.560   2.311  20.652  0.00  0.00    +0.000 Cl
ATOM     15  C   UNL     1       3.970   4.675  19.429  0.00  0.00    +0.000 A 
ATOM     16  C   UNL     1       3.614   5.979  19.089  0.00  0.00    +0.000 A 
ENDBRANCH   9  10
BRANCH   1  21
ATOM     17  C   UNL     1      -2.522  10.638  17.493  0.00  0.00    +0.000 A 
ATOM     18  C   UNL     1      -3.448  11.357  18.247  0.00  0.00    +0.000 A 
ATOM     19  C   UNL     1      -3.050  12.035  19.396  0.00  0.00    +0.000 A 
ATOM     20  C   UNL     1      -1.715  11.999  19.796  0.00  0.00    +0.000 A 
ATOM     21  C   UNL     1      -0.762  11.277  19.057  0.00  0.00    +0.000 A 
ATOM     22  C   UNL     1      -1.183  10.604  17.891  0.00  0.00    +0.000 A 
BRANCH  17  23
ATOM     23  O   UNL     1      -3.031  10.051  16.369  0.00  0.00    +0.000 OA
BRANCH  23  24
ATOM     24  C   UNL     1      -3.166  10.885  15.220  0.00  0.00    +0.000 C 
BRANCH  24  26
ATOM     25  N   UNL     1      -4.646   9.714  13.651  0.00  0.00    +0.000 N 
ATOM     26  C   UNL     1      -3.356  10.026  13.969  0.00  0.00    +0.000 C 
ATOM     27  O   UNL     1      -2.422   9.640  13.273  0.00  0.00    +0.000 OA
ATOM     28  H   UNL     1      -4.834   9.180  12.814  0.00  0.00    +0.000 HD
ATOM     29  H   UNL     1      -5.411  10.077  14.206  0.00  0.00    +0.000 HD
ENDBRANCH  24  26
ENDBRANCH  23  24
ENDBRANCH  17  23
ENDBRANCH   1  21
BRANCH   3  30
ATOM     30  O   UNL     1       0.539   9.890  23.135  0.00  0.00    +0.000 OA
ATOM     31  H   UNL     1       0.006   9.136  23.429  0.00  0.00    +0.000 HD
ENDBRANCH   3  30
TORSDOF 6
ENDMDL
MODEL 5
REMARK VINA RESULT:      -8.3      2.310      2.899
REMARK  Name = 
REMARK  6 active torsions:
REMARK  status: ('A' for Active; 'I' for Inactive)
REMARK    1  A    between atoms: C_2  and  C_4
REMARK    2  A    between atoms: C_4  and  O_5
REMARK    3  A    between atoms: O_5  and  C_6
REMARK    4  A    between atoms: C_10  and  C_11
REMARK    5  A    between atoms: C_13  and  O_14
REMARK    6  A    between atoms: N_20  and  C_21
REMARK                            x       y       z     vdW  Elec       q    Type
REMARK                         _______ _______ _______ _____ _____    ______ ____
ROOT
ATOM      1  C   UNL     1       3.145   5.236  17.933  0.00  0.00    +0.000 C 
ATOM      2  C   UNL     1       2.650   4.283  19.045  0.00  0.00    +0.000 C 
ATOM      3  C   UNL     1       2.225   4.985  20.322  0.00  0.00    +0.000 C 
ATOM      4  N   UNL     1       1.965   6.241  20.483  0.00  0.00    +0.000 NA
ATOM      5  C   UNL     1       2.119   6.997  19.367  0.00  0.00    +0.000 A 
ATOM      6  C   UNL     1       2.639   6.616  18.153  0.00  0.00    +0.000 A 
ATOM      7  N   UNL     1       2.485   7.589  17.209  0.00  0.00    +0.000 NA
ATOM      8  C   UNL     1       1.915   8.585  17.861  0.00  0.00    +0.000 A 
ATOM      9  N   UNL     1       1.684   8.305  19.192  0.00  0.00    +0.000 N 
ENDROOT
BRANCH   9  10
ATOM     10  C   UNL     1       1.096   9.154  20.172  0.00  0.00    +0.000 A 
ATOM     11  C   UNL     1       0.788  10.487  19.875  0.00  0.00    +0.000 A 
ATOM     12  C   UNL     1       0.135  11.279  20.830  0.00  0.00    +0.000 A 
ATOM     13  C   UNL     1      -0.181  10.753  22.082  0.00  0.00    +0.000 A 
ATOM     14 CL   UNL     1      -1.004  11.719  23.242  0.00  0.00    +0.000 Cl
ATOM     15  C   UNL     1       0.157   9.441  22.398  0.00  0.00    +0.000 A 
ATOM     16  C   UNL     1       0.790   8.645  21.446  0.00  0.00    +0.000 A 
ENDBRANCH   9  10
BRANCH   1  21
ATOM     17  C   UNL     1       6.780   5.483  16.684  0.00  0.00    +0.000 A 
ATOM     18  C   UNL     1       7.452   5.627  17.897  0.00  0.00    +0.000 A 
ATOM     19  C   UNL     1       6.751   5.611  19.100  0.00  0.00    +0.000 A 
ATOM     20  C   UNL     1       5.367   5.446  19.094  0.00  0.00    +0.000 A 
ATOM     21  C   UNL     1       4.665   5.303  17.885  0.00  0.00    +0.000 A 
ATOM     22  C   UNL     1       5.393   5.314  16.677  0.00  0.00    +0.000 A 
BRANCH  17  23
ATOM     23  O   UNL     1       7.586   5.477  15.581  0.00  0.00    +0.000 OA
BRANCH  23  24
ATOM     24  C   UNL     1       7.114   4.747  14.450  0.00  0.00    +0.000 C 
BRANCH  24  26
ATOM     25  N   UNL     1       8.928   6.017  13.392  0.00  0.00    +0.000 N 
ATOM     26  C   UNL     1       7.864   5.186  13.192  0.00  0.00    +0.000 C 
ATOM     27  O   UNL     1       7.554   4.817  12.064  0.00  0.00    +0.000 OA
ATOM     28  H   UNL     1       9.484   6.309  12.601  0.00  0.00    +0.000 HD
ATOM     29  H   UNL     1       9.204   6.277  14.332  0.00  0.00    +0.000 HD
ENDBRANCH  24  26
ENDBRANCH  23  24
ENDBRANCH  17  23
ENDBRANCH   1  21
BRANCH   3  30
ATOM     30  O   UNL     1       2.066   4.168  21.379  0.00  0.00    +0.000 OA
ATOM     31  H   UNL     1       2.066   3.228  21.144  0.00  0.00    +0.000 HD
ENDBRANCH   3  30
TORSDOF 6
ENDMDL
MODEL 6
REMARK VINA RESULT:      -8.2      4.696      9.017
REMARK  Name = 
REMARK  6 active torsions:
REMARK  status: ('A' for Active; 'I' for Inactive)
REMARK    1  A    between atoms: C_2  and  C_4
REMARK    2  A    between atoms: C_4  and  O_5
REMARK    3  A    between atoms: O_5  and  C_6
REMARK    4  A    between atoms: C_10  and  C_11
REMARK    5  A    between atoms: C_13  and  O_14
REMARK    6  A    between atoms: N_20  and  C_21
REMARK                            x       y       z     vdW  Elec       q    Type
REMARK                         _______ _______ _______ _____ _____    ______ ____
ROOT
ATOM      1  C   UNL     1       0.436  10.798  19.405  0.00  0.00    +0.000 C 
ATOM      2  C   UNL     1       0.391  10.777  20.951  0.00  0.00    +0.000 C 
ATOM      3  C   UNL     1       0.642   9.410  21.561  0.00  0.00    +0.000 C 
ATOM      4  N   UNL     1       1.151   8.370  20.987  0.00  0.00    +0.000 NA
ATOM      5  C   UNL     1       1.469   8.547  19.680  0.00  0.00    +0.000 A 
ATOM      6  C   UNL     1       1.190   9.631  18.881  0.00  0.00    +0.000 A 
ATOM      7  N   UNL     1       1.807   9.536  17.667  0.00  0.00    +0.000 NA
ATOM      8  C   UNL     1       2.421   8.368  17.706  0.00  0.00    +0.000 A 
ATOM      9  N   UNL     1       2.239   7.695  18.897  0.00  0.00    +0.000 N 
ENDROOT
BRANCH   9  10
ATOM     10  C   UNL     1       2.753   6.419  19.264  0.00  0.00    +0.000 A 
ATOM     11  C   UNL     1       2.033   5.573  20.116  0.00  0.00    +0.000 A 
ATOM     12  C   UNL     1       2.522   4.289  20.397  0.00  0.00    +0.000 A 
ATOM     13  C   UNL     1       3.734   3.865  19.855  0.00  0.00    +0.000 A 
ATOM     14 CL   UNL     1       4.319   2.282  20.182  0.00  0.00    +0.000 Cl
ATOM     15  C   UNL     1       4.476   4.715  19.040  0.00  0.00    +0.000 A 
ATOM     16  C   UNL     1       3.985   5.986  18.744  0.00  0.00    +0.000 A 
ENDBRANCH   9  10
BRANCH   1  21
ATOM     17  C   UNL     1      -3.263  11.540  18.630  0.00  0.00    +0.000 A 
ATOM     18  C   UNL     1      -3.445  10.748  17.497  0.00  0.00    +0.000 A 
ATOM     19  C   UNL     1      -2.405   9.961  17.011  0.00  0.00    +0.000 A 
ATOM     20  C   UNL     1      -1.173   9.961  17.661  0.00  0.00    +0.000 A 
ATOM     21  C   UNL     1      -0.961  10.754  18.802  0.00  0.00    +0.000 A 
ATOM     22  C   UNL     1      -2.029  11.538  19.285  0.00  0.00    +0.000 A 
BRANCH  17  23
ATOM     23  O   UNL     1      -4.371  12.234  19.028  0.00  0.00    +0.000 OA
BRANCH  23  24
ATOM     24  C   UNL     1      -5.634  11.694  18.644  0.00  0.00    +0.000 C 
BRANCH  24  26
ATOM     25  N   UNL     1      -7.409  10.350  19.676  0.00  0.00    +0.000 N 
ATOM     26  C   UNL     1      -6.421  11.267  19.884  0.00  0.00    +0.000 C 
ATOM     27  O   UNL     1      -6.188  11.702  21.008  0.00  0.00    +0.000 OA
ATOM     28  H   UNL     1      -7.938  10.004  20.465  0.00  0.00    +0.000 HD
ATOM     29  H   UNL     1      -7.562   9.963  18.752  0.00  0.00    +0.000 HD
ENDBRANCH  24  26
ENDBRANCH  23  24
ENDBRANCH  17  23
ENDBRANCH   1  21
BRANCH   3  30
ATOM     30  O   UNL     1       0.329   9.319  22.867  0.00  0.00    +0.000 OA
ATOM     31  H   UNL     1      -0.605   9.494  23.054  0.00  0.00    +0.000 HD
ENDBRANCH   3  30
TORSDOF 6
ENDMDL
MODEL 7
REMARK VINA RESULT:      -8.1      4.501      8.755
REMARK  Name = 
REMARK  6 active torsions:
REMARK  status: ('A' for Active; 'I' for Inactive)
REMARK    1  A    between atoms: C_2  and  C_4
REMARK    2  A    between atoms: C_4  and  O_5
REMARK    3  A    between atoms: O_5  and  C_6
REMARK    4  A    between atoms: C_10  and  C_11
REMARK    5  A    between atoms: C_13  and  O_14
REMARK    6  A    between atoms: N_20  and  C_21
REMARK                            x       y       z     vdW  Elec       q    Type
REMARK                         _______ _______ _______ _____ _____    ______ ____
ROOT
ATOM      1  C   UNL     1       0.602  10.911  19.458  0.00  0.00    +0.000 C 
ATOM      2  C   UNL     1       0.676  10.964  21.001  0.00  0.00    +0.000 C 
ATOM      3  C   UNL     1       0.910   9.615  21.658  0.00  0.00    +0.000 C 
ATOM      4  N   UNL     1       1.325   8.526  21.100  0.00  0.00    +0.000 NA
ATOM      5  C   UNL     1       1.548   8.626  19.765  0.00  0.00    +0.000 A 
ATOM      6  C   UNL     1       1.259   9.685  18.937  0.00  0.00    +0.000 A 
ATOM      7  N   UNL     1       1.774   9.503  17.686  0.00  0.00    +0.000 NA
ATOM      8  C   UNL     1       2.336   8.310  17.737  0.00  0.00    +0.000 A 
ATOM      9  N   UNL     1       2.215   7.702  18.971  0.00  0.00    +0.000 N 
ENDROOT
BRANCH   9  10
ATOM     10  C   UNL     1       2.696   6.421  19.361  0.00  0.00    +0.000 A 
ATOM     11  C   UNL     1       1.975   5.625  20.259  0.00  0.00    +0.000 A 
ATOM     12  C   UNL     1       2.429   4.334  20.565  0.00  0.00    +0.000 A 
ATOM     13  C   UNL     1       3.609   3.852  20.000  0.00  0.00    +0.000 A 
ATOM     14 CL   UNL     1       4.149   2.260  20.357  0.00  0.00    +0.000 Cl
ATOM     15  C   UNL     1       4.352   4.651  19.138  0.00  0.00    +0.000 A 
ATOM     16  C   UNL     1       3.896   5.929  18.818  0.00  0.00    +0.000 A 
ENDBRANCH   9  10
BRANCH   1  21
ATOM     17  C   UNL     1      -3.125  11.757  18.976  0.00  0.00    +0.000 A 
ATOM     18  C   UNL     1      -3.415  10.980  17.856  0.00  0.00    +0.000 A 
ATOM     19  C   UNL     1      -2.437  10.170  17.285  0.00  0.00    +0.000 A 
ATOM     20  C   UNL     1      -1.158  10.132  17.838  0.00  0.00    +0.000 A 
ATOM     21  C   UNL     1      -0.838  10.909  18.964  0.00  0.00    +0.000 A 
ATOM     22  C   UNL     1      -1.844  11.717  19.533  0.00  0.00    +0.000 A 
BRANCH  17  23
ATOM     23  O   UNL     1      -4.180  12.476  19.462  0.00  0.00    +0.000 OA
BRANCH  23  24
ATOM     24  C   UNL     1      -3.971  13.160  20.696  0.00  0.00    +0.000 C 
BRANCH  24  26
ATOM     25  N   UNL     1      -4.293  12.527  23.045  0.00  0.00    +0.000 N 
ATOM     26  C   UNL     1      -4.836  12.539  21.793  0.00  0.00    +0.000 C 
ATOM     27  O   UNL     1      -5.957  12.085  21.586  0.00  0.00    +0.000 OA
ATOM     28  H   UNL     1      -4.834  12.163  23.817  0.00  0.00    +0.000 HD
ATOM     29  H   UNL     1      -3.386  12.947  23.213  0.00  0.00    +0.000 HD
ENDBRANCH  24  26
ENDBRANCH  23  24
ENDBRANCH  17  23
ENDBRANCH   1  21
BRANCH   3  30
ATOM     30  O   UNL     1       0.696   9.600  22.987  0.00  0.00    +0.000 OA
ATOM     31  H   UNL     1       1.377   9.121  23.483  0.00  0.00    +0.000 HD
ENDBRANCH   3  30
TORSDOF 6
ENDMDL
MODEL 8
REMARK VINA RESULT:      -8.1      4.492      8.353
REMARK  Name = 
REMARK  6 active torsions:
REMARK  status: ('A' for Active; 'I' for Inactive)
REMARK    1  A    between atoms: C_2  and  C_4
REMARK    2  A    between atoms: C_4  and  O_5
REMARK    3  A    between atoms: O_5  and  C_6
REMARK    4  A    between atoms: C_10  and  C_11
REMARK    5  A    between atoms: C_13  and  O_14
REMARK    6  A    between atoms: N_20  and  C_21
REMARK                            x       y       z     vdW  Elec       q    Type
REMARK                         _______ _______ _______ _____ _____    ______ ____
ROOT
ATOM      1  C   UNL     1       0.854  10.760  19.511  0.00  0.00    +0.000 C 
ATOM      2  C   UNL     1       0.811  10.526  21.039  0.00  0.00    +0.000 C 
ATOM      3  C   UNL     1       0.889   9.065  21.446  0.00  0.00    +0.000 C 
ATOM      4  N   UNL     1       1.261   8.062  20.720  0.00  0.00    +0.000 NA
ATOM      5  C   UNL     1       1.594   8.381  19.445  0.00  0.00    +0.000 A 
ATOM      6  C   UNL     1       1.453   9.594  18.812  0.00  0.00    +0.000 A 
ATOM      7  N   UNL     1       2.048   9.596  17.584  0.00  0.00    +0.000 NA
ATOM      8  C   UNL     1       2.510   8.367  17.446  0.00  0.00    +0.000 A 
ATOM      9  N   UNL     1       2.247   7.560  18.535  0.00  0.00    +0.000 N 
ENDROOT
BRANCH   9  10
ATOM     10  C   UNL     1       2.597   6.191  18.708  0.00  0.00    +0.000 A 
ATOM     11  C   UNL     1       1.874   5.178  18.066  0.00  0.00    +0.000 A 
ATOM     12  C   UNL     1       2.288   3.844  18.188  0.00  0.00    +0.000 A 
ATOM     13  C   UNL     1       3.397   3.521  18.968  0.00  0.00    +0.000 A 
ATOM     14 CL   UNL     1       3.917   1.887  19.094  0.00  0.00    +0.000 Cl
ATOM     15  C   UNL     1       4.097   4.517  19.641  0.00  0.00    +0.000 A 
ATOM     16  C   UNL     1       3.699   5.846  19.509  0.00  0.00    +0.000 A 
ENDBRANCH   9  10
BRANCH   1  21
ATOM     17  C   UNL     1      -2.320  10.477  17.347  0.00  0.00    +0.000 A 
ATOM     18  C   UNL     1      -3.189  11.293  18.070  0.00  0.00    +0.000 A 
ATOM     19  C   UNL     1      -2.752  11.951  19.216  0.00  0.00    +0.000 A 
ATOM     20  C   UNL     1      -1.435  11.797  19.644  0.00  0.00    +0.000 A 
ATOM     21  C   UNL     1      -0.539  10.977  18.937  0.00  0.00    +0.000 A 
ATOM     22  C   UNL     1      -0.998  10.325  17.774  0.00  0.00    +0.000 A 
BRANCH  17  23
ATOM     23  O   UNL     1      -2.860   9.921  16.222  0.00  0.00    +0.000 OA
BRANCH  23  24
ATOM     24  C   UNL     1      -2.912  10.749  15.062  0.00  0.00    +0.000 C 
BRANCH  24  26
ATOM     25  N   UNL     1      -2.520   9.593  12.933  0.00  0.00    +0.000 N 
ATOM     26  C   UNL     1      -3.444   9.951  13.871  0.00  0.00    +0.000 C 
ATOM     27  O   UNL     1      -4.623   9.632  13.751  0.00  0.00    +0.000 OA
ATOM     28  H   UNL     1      -2.808   9.034  12.142  0.00  0.00    +0.000 HD
ATOM     29  H   UNL     1      -1.542   9.822  13.065  0.00  0.00    +0.000 HD
ENDBRANCH  24  26
ENDBRANCH  23  24
ENDBRANCH  17  23
ENDBRANCH   1  21
BRANCH   3  30
ATOM     30  O   UNL     1       0.572   8.830  22.732  0.00  0.00    +0.000 OA
ATOM     31  H   UNL     1       0.085   9.556  23.150  0.00  0.00    +0.000 HD
ENDBRANCH   3  30
TORSDOF 6
ENDMDL
MODEL 9
REMARK VINA RESULT:      -8.0      2.429      3.045
REMARK  Name = 
REMARK  6 active torsions:
REMARK  status: ('A' for Active; 'I' for Inactive)
REMARK    1  A    between atoms: C_2  and  C_4
REMARK    2  A    between atoms: C_4  and  O_5
REMARK    3  A    between atoms: O_5  and  C_6
REMARK    4  A    between atoms: C_10  and  C_11
REMARK    5  A    between atoms: C_13  and  O_14
REMARK    6  A    between atoms: N_20  and  C_21
REMARK                            x       y       z     vdW  Elec       q    Type
REMARK                         _______ _______ _______ _____ _____    ______ ____
ROOT
ATOM      1  C   UNL     1       3.208   4.972  18.087  0.00  0.00    +0.000 C 
ATOM      2  C   UNL     1       2.739   4.036  19.225  0.00  0.00    +0.000 C 
ATOM      3  C   UNL     1       2.280   4.763  20.477  0.00  0.00    +0.000 C 
ATOM      4  N   UNL     1       1.974   6.013  20.598  0.00  0.00    +0.000 NA
ATOM      5  C   UNL     1       2.110   6.739  19.460  0.00  0.00    +0.000 A 
ATOM      6  C   UNL     1       2.653   6.339  18.261  0.00  0.00    +0.000 A 
ATOM      7  N   UNL     1       2.471   7.277  17.286  0.00  0.00    +0.000 NA
ATOM      8  C   UNL     1       1.861   8.271  17.903  0.00  0.00    +0.000 A 
ATOM      9  N   UNL     1       1.630   8.024  19.241  0.00  0.00    +0.000 N 
ENDROOT
BRANCH   9  10
ATOM     10  C   UNL     1       1.005   8.882  20.190  0.00  0.00    +0.000 A 
ATOM     11  C   UNL     1       1.276   8.759  21.558  0.00  0.00    +0.000 A 
ATOM     12  C   UNL     1       0.711   9.667  22.463  0.00  0.00    +0.000 A 
ATOM     13  C   UNL     1      -0.141  10.673  22.010  0.00  0.00    +0.000 A 
ATOM     14 CL   UNL     1      -0.812  11.802  23.121  0.00  0.00    +0.000 Cl
ATOM     15  C   UNL     1      -0.447  10.778  20.657  0.00  0.00    +0.000 A 
ATOM     16  C   UNL     1       0.126   9.887  19.751  0.00  0.00    +0.000 A 
ENDBRANCH   9  10
BRANCH   1  21
ATOM     17  C   UNL     1       6.847   5.244  16.855  0.00  0.00    +0.000 A 
ATOM     18  C   UNL     1       7.498   5.520  18.056  0.00  0.00    +0.000 A 
ATOM     19  C   UNL     1       6.783   5.584  19.249  0.00  0.00    +0.000 A 
ATOM     20  C   UNL     1       5.407   5.367  19.245  0.00  0.00    +0.000 A 
ATOM     21  C   UNL     1       4.725   5.092  18.047  0.00  0.00    +0.000 A 
ATOM     22  C   UNL     1       5.467   5.023  16.850  0.00  0.00    +0.000 A 
BRANCH  17  23
ATOM     23  O   UNL     1       7.666   5.170  15.763  0.00  0.00    +0.000 OA
BRANCH  23  24
ATOM     24  C   UNL     1       7.057   4.781  14.534  0.00  0.00    +0.000 C 
BRANCH  24  26
ATOM     25  N   UNL     1       7.534   4.786  12.127  0.00  0.00    +0.000 N 
ATOM     26  C   UNL     1       7.914   5.243  13.355  0.00  0.00    +0.000 C 
ATOM     27  O   UNL     1       8.880   5.989  13.480  0.00  0.00    +0.000 OA
ATOM     28  H   UNL     1       8.041   5.088  11.306  0.00  0.00    +0.000 HD
ATOM     29  H   UNL     1       6.706   4.209  12.029  0.00  0.00    +0.000 HD
ENDBRANCH  24  26
ENDBRANCH  23  24
ENDBRANCH  17  23
ENDBRANCH   1  21
BRANCH   3  30
ATOM     30  O   UNL     1       2.141   3.973  21.558  0.00  0.00    +0.000 OA
ATOM     31  H   UNL     1       1.405   3.347  21.487  0.00  0.00    +0.000 HD
ENDBRANCH   3  30
TORSDOF 6
ENDMDL
