MODEL 1
REMARK VINA RESULT:      -8.3      0.000      0.000
REMARK  Name = 
REMARK  4 active torsions:
REMARK  status: ('A' for Active; 'I' for Inactive)
REMARK    1  A    between atoms: C_2  and  C_17
REMARK    2  A    between atoms: N_3  and  C_4
REMARK    3  A    between atoms: C_8  and  O_9
REMARK    4  A    between atoms: O_9  and  C_10
REMARK                            x       y       z     vdW  Elec       q    Type
REMARK                         _______ _______ _______ _____ _____    ______ ____
ROOT
ATOM      1  C   UNL     1       2.847   5.238  20.193  0.00  0.00    +0.000 A 
ATOM      2  C   UNL     1       2.358   3.944  20.373  0.00  0.00    +0.000 A 
ATOM      3  N   UNL     1       3.002   2.818  19.974  0.00  0.00    +0.000 NA
ATOM      4  C   UNL     1       4.214   2.984  19.408  0.00  0.00    +0.000 A 
ATOM      5  C   UNL     1       4.799   4.223  19.192  0.00  0.00    +0.000 A 
ATOM      6  C   UNL     1       4.067   5.369  19.526  0.00  0.00    +0.000 A 
ENDROOT
BRANCH   1   9
ATOM      7  O   UNL     1       2.216   7.623  18.695  0.00  0.00    +0.000 OA
ATOM      8  C   UNL     1       1.954   7.519  19.886  0.00  0.00    +0.000 C 
ATOM      9  N   UNL     1       2.201   6.406  20.672  0.00  0.00    +0.000 N 
ATOM     10  H   UNL     1       1.736   6.344  21.569  0.00  0.00    +0.000 HD
BRANCH   8  11
ATOM     11  C   UNL     1       1.250   8.660  20.529  0.00  0.00    +0.000 A 
ATOM     12  C   UNL     1       1.116   8.634  21.927  0.00  0.00    +0.000 A 
ATOM     13  C   UNL     1       0.356   9.601  22.583  0.00  0.00    +0.000 A 
ATOM     14  C   UNL     1      -0.280  10.596  21.843  0.00  0.00    +0.000 A 
ATOM     15  C   UNL     1      -0.139  10.626  20.454  0.00  0.00    +0.000 A 
ATOM     16 BR   UNL     1      -1.042  11.958  19.460  0.00  0.00    +0.000 Br
ATOM     17  C   UNL     1       0.628   9.668  19.787  0.00  0.00    +0.000 A 
ENDBRANCH   8  11
ENDBRANCH   1   9
BRANCH   5  18
ATOM     18  O   UNL     1       6.056   4.223  18.638  0.00  0.00    +0.000 OA
BRANCH  18  19
ATOM     19  C   UNL     1       6.201   4.449  17.292  0.00  0.00    +0.000 A 
ATOM     20  C   UNL     1       5.389   3.916  16.293  0.00  0.00    +0.000 A 
ATOM     21  C   UNL     1       5.693   4.169  14.957  0.00  0.00    +0.000 A 
ATOM     22  C   UNL     1       6.766   4.998  14.672  0.00  0.00    +0.000 A 
ATOM     23  N   UNL     1       7.526   5.592  15.617  0.00  0.00    +0.000 NA
ATOM     24  C   UNL     1       7.219   5.310  16.906  0.00  0.00    +0.000 A 
ENDBRANCH  18  19
ENDBRANCH   5  18
TORSDOF 4
ENDMDL
MODEL 2
REMARK VINA RESULT:      -8.2      1.026      1.481
REMARK  Name = 
REMARK  4 active torsions:
REMARK  status: ('A' for Active; 'I' for Inactive)
REMARK    1  A    between atoms: C_2  and  C_17
REMARK    2  A    between atoms: N_3  and  C_4
REMARK    3  A    between atoms: C_8  and  O_9
REMARK    4  A    between atoms: O_9  and  C_10
REMARK                            x       y       z     vdW  Elec       q    Type
REMARK                         _______ _______ _______ _____ _____    ______ ____
ROOT
ATOM      1  C   UNL     1       3.001   5.483  19.935  0.00  0.00    +0.000 A 
ATOM      2  C   UNL     1       2.571   4.247  20.418  0.00  0.00    +0.000 A 
ATOM      3  N   UNL     1       3.248   3.082  20.256  0.00  0.00    +0.000 NA
ATOM      4  C   UNL     1       4.435   3.157  19.621  0.00  0.00    +0.000 A 
ATOM      5  C   UNL     1       4.962   4.335  19.112  0.00  0.00    +0.000 A 
ATOM      6  C   UNL     1       4.194   5.502  19.209  0.00  0.00    +0.000 A 
ENDROOT
BRANCH   1   9
ATOM      7  O   UNL     1       2.401   7.539  17.999  0.00  0.00    +0.000 OA
ATOM      8  C   UNL     1       2.092   7.651  19.178  0.00  0.00    +0.000 C 
ATOM      9  N   UNL     1       2.321   6.707  20.165  0.00  0.00    +0.000 N 
ATOM     10  H   UNL     1       1.821   6.802  21.039  0.00  0.00    +0.000 HD
BRANCH   8  11
ATOM     11  C   UNL     1       1.349   8.877  19.571  0.00  0.00    +0.000 A 
ATOM     12  C   UNL     1       1.408   9.977  18.700  0.00  0.00    +0.000 A 
ATOM     13  C   UNL     1       0.846  11.200  19.065  0.00  0.00    +0.000 A 
ATOM     14  C   UNL     1       0.229  11.330  20.308  0.00  0.00    +0.000 A 
ATOM     15  C   UNL     1       0.163  10.233  21.170  0.00  0.00    +0.000 A 
ATOM     16 BR   UNL     1      -0.641  10.437  22.869  0.00  0.00    +0.000 Br
ATOM     17  C   UNL     1       0.714   9.001  20.810  0.00  0.00    +0.000 A 
ENDBRANCH   8  11
ENDBRANCH   1   9
BRANCH   5  18
ATOM     18  O   UNL     1       6.200   4.253  18.524  0.00  0.00    +0.000 OA
BRANCH  18  19
ATOM     19  C   UNL     1       6.320   4.444  17.170  0.00  0.00    +0.000 A 
ATOM     20  C   UNL     1       5.549   3.813  16.196  0.00  0.00    +0.000 A 
ATOM     21  C   UNL     1       5.826   4.044  14.850  0.00  0.00    +0.000 A 
ATOM     22  C   UNL     1       6.826   4.947  14.529  0.00  0.00    +0.000 A 
ATOM     23  N   UNL     1       7.540   5.632  15.448  0.00  0.00    +0.000 NA
ATOM     24  C   UNL     1       7.263   5.370  16.747  0.00  0.00    +0.000 A 
ENDBRANCH  18  19
ENDBRANCH   5  18
TORSDOF 4
ENDMDL
MODEL 3
REMARK VINA RESULT:      -8.1      1.170      1.760
REMARK  Name = 
REMARK  4 active torsions:
REMARK  status: ('A' for Active; 'I' for Inactive)
REMARK    1  A    between atoms: C_2  and  C_17
REMARK    2  A    between atoms: N_3  and  C_4
REMARK    3  A    between atoms: C_8  and  O_9
REMARK    4  A    between atoms: O_9  and  C_10
REMARK                            x       y       z     vdW  Elec       q    Type
REMARK                         _______ _______ _______ _____ _____    ______ ____
ROOT
ATOM      1  C   UNL     1       2.611   5.357  20.048  0.00  0.00    +0.000 A 
ATOM      2  C   UNL     1       1.956   4.138  19.874  0.00  0.00    +0.000 A 
ATOM      3  N   UNL     1       2.533   3.023  19.358  0.00  0.00    +0.000 NA
ATOM      4  C   UNL     1       3.840   3.112  19.041  0.00  0.00    +0.000 A 
ATOM      5  C   UNL     1       4.590   4.270  19.185  0.00  0.00    +0.000 A 
ATOM      6  C   UNL     1       3.941   5.430  19.628  0.00  0.00    +0.000 A 
ENDROOT
BRANCH   1   9
ATOM      7  O   UNL     1       2.093   7.913  18.809  0.00  0.00    +0.000 OA
ATOM      8  C   UNL     1       1.826   7.697  19.983  0.00  0.00    +0.000 C 
ATOM      9  N   UNL     1       2.020   6.499  20.649  0.00  0.00    +0.000 N 
ATOM     10  H   UNL     1       1.553   6.366  21.536  0.00  0.00    +0.000 HD
BRANCH   8  11
ATOM     11  C   UNL     1       1.177   8.798  20.745  0.00  0.00    +0.000 A 
ATOM     12  C   UNL     1       0.884   8.563  22.098  0.00  0.00    +0.000 A 
ATOM     13  C   UNL     1       0.160   9.497  22.838  0.00  0.00    +0.000 A 
ATOM     14  C   UNL     1      -0.281  10.668  22.224  0.00  0.00    +0.000 A 
ATOM     15  C   UNL     1       0.020  10.905  20.881  0.00  0.00    +0.000 A 
ATOM     16 BR   UNL     1      -0.621  12.480  20.052  0.00  0.00    +0.000 Br
ATOM     17  C   UNL     1       0.752   9.980  20.134  0.00  0.00    +0.000 A 
ENDBRANCH   8  11
ENDBRANCH   1   9
BRANCH   5  18
ATOM     18  O   UNL     1       5.920   4.189  18.853  0.00  0.00    +0.000 OA
BRANCH  18  19
ATOM     19  C   UNL     1       6.582   5.316  18.433  0.00  0.00    +0.000 A 
ATOM     20  C   UNL     1       7.621   5.943  19.118  0.00  0.00    +0.000 A 
ATOM     21  C   UNL     1       8.157   7.126  18.613  0.00  0.00    +0.000 A 
ATOM     22  C   UNL     1       7.673   7.606  17.407  0.00  0.00    +0.000 A 
ATOM     23  N   UNL     1       6.720   6.983  16.681  0.00  0.00    +0.000 NA
ATOM     24  C   UNL     1       6.203   5.847  17.208  0.00  0.00    +0.000 A 
ENDBRANCH  18  19
ENDBRANCH   5  18
TORSDOF 4
ENDMDL
MODEL 4
REMARK VINA RESULT:      -7.9      5.167      7.365
REMARK  Name = 
REMARK  4 active torsions:
REMARK  status: ('A' for Active; 'I' for Inactive)
REMARK    1  A    between atoms: C_2  and  C_17
REMARK    2  A    between atoms: N_3  and  C_4
REMARK    3  A    between atoms: C_8  and  O_9
REMARK    4  A    between atoms: O_9  and  C_10
REMARK                            x       y       z     vdW  Elec       q    Type
REMARK                         _______ _______ _______ _____ _____    ______ ____
ROOT
ATOM      1  C   UNL     1       7.888   7.098  18.199  0.00  0.00    +0.000 A 
ATOM      2  C   UNL     1       7.490   7.045  16.863  0.00  0.00    +0.000 A 
ATOM      3  N   UNL     1       6.686   6.085  16.340  0.00  0.00    +0.000 NA
ATOM      4  C   UNL     1       6.217   5.156  17.197  0.00  0.00    +0.000 A 
ATOM      5  C   UNL     1       6.539   5.122  18.546  0.00  0.00    +0.000 A 
ATOM      6  C   UNL     1       7.448   6.069  19.035  0.00  0.00    +0.000 A 
ENDROOT
BRANCH   1   9
ATOM      7  O   UNL     1       7.743   9.914  17.581  0.00  0.00    +0.000 OA
ATOM      8  C   UNL     1       8.552   9.469  18.384  0.00  0.00    +0.000 C 
ATOM      9  N   UNL     1       8.674   8.140  18.754  0.00  0.00    +0.000 N 
ATOM     10  H   UNL     1       9.208   7.925  19.587  0.00  0.00    +0.000 HD
BRANCH   8  11
ATOM     11  C   UNL     1       9.436  10.448  19.070  0.00  0.00    +0.000 A 
ATOM     12  C   UNL     1       9.207  10.680  20.437  0.00  0.00    +0.000 A 
ATOM     13  C   UNL     1       9.909  11.678  21.112  0.00  0.00    +0.000 A 
ATOM     14  C   UNL     1      10.838  12.454  20.421  0.00  0.00    +0.000 A 
ATOM     15  C   UNL     1      11.072  12.215  19.065  0.00  0.00    +0.000 A 
ATOM     16 BR   UNL     1      12.307  13.303  18.133  0.00  0.00    +0.000 Br
ATOM     17  C   UNL     1      10.381  11.212  18.381  0.00  0.00    +0.000 A 
ENDBRANCH   8  11
ENDBRANCH   1   9
BRANCH   5  18
ATOM     18  O   UNL     1       5.950   4.134  19.296  0.00  0.00    +0.000 OA
BRANCH  18  19
ATOM     19  C   UNL     1       4.587   4.126  19.453  0.00  0.00    +0.000 A 
ATOM     20  C   UNL     1       3.789   5.256  19.627  0.00  0.00    +0.000 A 
ATOM     21  C   UNL     1       2.423   5.100  19.850  0.00  0.00    +0.000 A 
ATOM     22  C   UNL     1       1.894   3.819  19.830  0.00  0.00    +0.000 A 
ATOM     23  N   UNL     1       2.626   2.710  19.589  0.00  0.00    +0.000 NA
ATOM     24  C   UNL     1       3.955   2.892  19.398  0.00  0.00    +0.000 A 
ENDBRANCH  18  19
ENDBRANCH   5  18
TORSDOF 4
ENDMDL
MODEL 5
REMARK VINA RESULT:      -7.8      2.373      3.346
REMARK  Name = 
REMARK  4 active torsions:
REMARK  status: ('A' for Active; 'I' for Inactive)
REMARK    1  A    between atoms: C_2  and  C_17
REMARK    2  A    between atoms: N_3  and  C_4
REMARK    3  A    between atoms: C_8  and  O_9
REMARK    4  A    between atoms: O_9  and  C_10
REMARK                            x       y       z     vdW  Elec       q    Type
REMARK                         _______ _______ _______ _____ _____    ______ ____
ROOT
ATOM      1  C   UNL     1       5.288   6.228  17.997  0.00  0.00    +0.000 A 
ATOM      2  C   UNL     1       5.838   5.270  18.848  0.00  0.00    +0.000 A 
ATOM      3  N   UNL     1       6.848   4.430  18.507  0.00  0.00    +0.000 NA
ATOM      4  C   UNL     1       7.368   4.581  17.272  0.00  0.00    +0.000 A 
ATOM      5  C   UNL     1       6.905   5.509  16.351  0.00  0.00    +0.000 A 
ATOM      6  C   UNL     1       5.799   6.294  16.698  0.00  0.00    +0.000 A 
ENDROOT
BRANCH   1   9
ATOM      7  O   UNL     1       2.465   5.699  18.292  0.00  0.00    +0.000 OA
ATOM      8  C   UNL     1       2.938   6.813  18.479  0.00  0.00    +0.000 C 
ATOM      9  N   UNL     1       4.278   7.148  18.381  0.00  0.00    +0.000 N 
ATOM     10  H   UNL     1       4.579   8.027  18.781  0.00  0.00    +0.000 HD
BRANCH   8  11
ATOM     11  C   UNL     1       2.001   7.883  18.913  0.00  0.00    +0.000 A 
ATOM     12  C   UNL     1       1.621   8.837  17.954  0.00  0.00    +0.000 A 
ATOM     13  C   UNL     1       0.852   9.941  18.321  0.00  0.00    +0.000 A 
ATOM     14  C   UNL     1       0.467  10.101  19.651  0.00  0.00    +0.000 A 
ATOM     15  C   UNL     1       0.838   9.146  20.601  0.00  0.00    +0.000 A 
ATOM     16 BR   UNL     1       0.342   9.399  22.408  0.00  0.00    +0.000 Br
ATOM     17  C   UNL     1       1.599   8.032  20.242  0.00  0.00    +0.000 A 
ENDBRANCH   8  11
ENDBRANCH   1   9
BRANCH   5  18
ATOM     18  O   UNL     1       7.564   5.565  15.148  0.00  0.00    +0.000 OA
BRANCH  18  19
ATOM     19  C   UNL     1       7.072   4.866  14.074  0.00  0.00    +0.000 A 
ATOM     20  C   UNL     1       5.930   4.068  14.087  0.00  0.00    +0.000 A 
ATOM     21  C   UNL     1       5.583   3.353  12.943  0.00  0.00    +0.000 A 
ATOM     22  C   UNL     1       6.359   3.511  11.806  0.00  0.00    +0.000 A 
ATOM     23  N   UNL     1       7.427   4.335  11.737  0.00  0.00    +0.000 NA
ATOM     24  C   UNL     1       7.753   5.000  12.872  0.00  0.00    +0.000 A 
ENDBRANCH  18  19
ENDBRANCH   5  18
TORSDOF 4
ENDMDL
MODEL 6
REMARK VINA RESULT:      -7.8      5.161      7.224
REMARK  Name = 
REMARK  4 active torsions:
REMARK  status: ('A' for Active; 'I' for Inactive)
REMARK    1  A    between atoms: C_2  and  C_17
REMARK    2  A    between atoms: N_3  and  C_4
REMARK    3  A    between atoms: C_8  and  O_9
REMARK    4  A    between atoms: O_9  and  C_10
REMARK                            x       y       z     vdW  Elec       q    Type
REMARK                         _______ _______ _______ _____ _____    ______ ____
ROOT
ATOM      1  C   UNL     1       7.835   7.010  18.175  0.00  0.00    +0.000 A 
ATOM      2  C   UNL     1       7.472   6.937  16.830  0.00  0.00    +0.000 A 
ATOM      3  N   UNL     1       6.663   5.983  16.304  0.00  0.00    +0.000 NA
ATOM      4  C   UNL     1       6.151   5.083  17.167  0.00  0.00    +0.000 A 
ATOM      5  C   UNL     1       6.435   5.070  18.525  0.00  0.00    +0.000 A 
ATOM      6  C   UNL     1       7.351   6.007  19.019  0.00  0.00    +0.000 A 
ENDROOT
BRANCH   1   9
ATOM      7  O   UNL     1       7.677   9.832  17.590  0.00  0.00    +0.000 OA
ATOM      8  C   UNL     1       8.498   9.380  18.377  0.00  0.00    +0.000 C 
ATOM      9  N   UNL     1       8.628   8.047  18.730  0.00  0.00    +0.000 N 
ATOM     10  H   UNL     1       9.174   7.823  19.552  0.00  0.00    +0.000 HD
BRANCH   8  11
ATOM     11  C   UNL     1       9.391  10.352  19.061  0.00  0.00    +0.000 A 
ATOM     12  C   UNL     1       9.153  10.603  20.422  0.00  0.00    +0.000 A 
ATOM     13  C   UNL     1       9.864  11.597  21.093  0.00  0.00    +0.000 A 
ATOM     14  C   UNL     1      10.812  12.350  20.403  0.00  0.00    +0.000 A 
ATOM     15  C   UNL     1      11.056  12.092  19.052  0.00  0.00    +0.000 A 
ATOM     16 BR   UNL     1      12.316  13.150  18.120  0.00  0.00    +0.000 Br
ATOM     17  C   UNL     1      10.355  11.093  18.373  0.00  0.00    +0.000 A 
ENDBRANCH   8  11
ENDBRANCH   1   9
BRANCH   5  18
ATOM     18  O   UNL     1       5.806   4.110  19.278  0.00  0.00    +0.000 OA
BRANCH  18  19
ATOM     19  C   UNL     1       4.467   3.875  19.091  0.00  0.00    +0.000 A 
ATOM     20  C   UNL     1       3.926   2.772  18.432  0.00  0.00    +0.000 A 
ATOM     21  C   UNL     1       2.547   2.694  18.248  0.00  0.00    +0.000 A 
ATOM     22  C   UNL     1       1.753   3.694  18.785  0.00  0.00    +0.000 A 
ATOM     23  N   UNL     1       2.239   4.736  19.494  0.00  0.00    +0.000 NA
ATOM     24  C   UNL     1       3.584   4.797  19.637  0.00  0.00    +0.000 A 
ENDBRANCH  18  19
ENDBRANCH   5  18
TORSDOF 4
ENDMDL
MODEL 7
REMARK VINA RESULT:      -7.6      1.448      1.633
REMARK  Name = 
REMARK  4 active torsions:
REMARK  status: ('A' for Active; 'I' for Inactive)
REMARK    1  A    between atoms: C_2  and  C_17
REMARK    2  A    between atoms: N_3  and  C_4
REMARK    3  A    between atoms: C_8  and  O_9
REMARK    4  A    between atoms: O_9  and  C_10
REMARK                            x       y       z     vdW  Elec       q    Type
REMARK                         _______ _______ _______ _____ _____    ______ ____
ROOT
ATOM      1  C   UNL     1       2.293   5.370  20.251  0.00  0.00    +0.000 A 
ATOM      2  C   UNL     1       1.635   4.148  20.115  0.00  0.00    +0.000 A 
ATOM      3  N   UNL     1       2.208   3.017  19.629  0.00  0.00    +0.000 NA
ATOM      4  C   UNL     1       3.515   3.095  19.304  0.00  0.00    +0.000 A 
ATOM      5  C   UNL     1       4.267   4.255  19.413  0.00  0.00    +0.000 A 
ATOM      6  C   UNL     1       3.622   5.428  19.824  0.00  0.00    +0.000 A 
ENDROOT
BRANCH   1   9
ATOM      7  O   UNL     1       2.068   7.985  19.049  0.00  0.00    +0.000 OA
ATOM      8  C   UNL     1       1.659   7.755  20.180  0.00  0.00    +0.000 C 
ATOM      9  N   UNL     1       1.707   6.529  20.822  0.00  0.00    +0.000 N 
ATOM     10  H   UNL     1       1.137   6.402  21.648  0.00  0.00    +0.000 HD
BRANCH   8  11
ATOM     11  C   UNL     1       0.995   8.873  20.902  0.00  0.00    +0.000 A 
ATOM     12  C   UNL     1       0.820   8.734  22.289  0.00  0.00    +0.000 A 
ATOM     13  C   UNL     1       0.091   9.680  23.008  0.00  0.00    +0.000 A 
ATOM     14  C   UNL     1      -0.474  10.766  22.341  0.00  0.00    +0.000 A 
ATOM     15  C   UNL     1      -0.291  10.908  20.964  0.00  0.00    +0.000 A 
ATOM     16 BR   UNL     1      -1.098  12.364  20.068  0.00  0.00    +0.000 Br
ATOM     17  C   UNL     1       0.446   9.971  20.236  0.00  0.00    +0.000 A 
ENDBRANCH   8  11
ENDBRANCH   1   9
BRANCH   5  18
ATOM     18  O   UNL     1       5.595   4.162  19.077  0.00  0.00    +0.000 OA
BRANCH  18  19
ATOM     19  C   UNL     1       6.242   5.260  18.567  0.00  0.00    +0.000 A 
ATOM     20  C   UNL     1       5.841   5.983  17.445  0.00  0.00    +0.000 A 
ATOM     21  C   UNL     1       6.633   7.034  16.990  0.00  0.00    +0.000 A 
ATOM     22  C   UNL     1       7.768   7.365  17.713  0.00  0.00    +0.000 A 
ATOM     23  N   UNL     1       8.144   6.734  18.847  0.00  0.00    +0.000 NA
ATOM     24  C   UNL     1       7.366   5.702  19.251  0.00  0.00    +0.000 A 
ENDBRANCH  18  19
ENDBRANCH   5  18
TORSDOF 4
ENDMDL
MODEL 8
REMARK VINA RESULT:      -7.6      2.376      3.457
REMARK  Name = 
REMARK  4 active torsions:
REMARK  status: ('A' for Active; 'I' for Inactive)
REMARK    1  A    between atoms: C_2  and  C_17
REMARK    2  A    between atoms: N_3  and  C_4
REMARK    3  A    between atoms: C_8  and  O_9
REMARK    4  A    between atoms: O_9  and  C_10
REMARK                            x       y       z     vdW  Elec       q    Type
REMARK                         _______ _______ _______ _____ _____    ______ ____
ROOT
ATOM      1  C   UNL     1       5.328   6.220  17.942  0.00  0.00    +0.000 A 
ATOM      2  C   UNL     1       5.848   5.237  18.784  0.00  0.00    +0.000 A 
ATOM      3  N   UNL     1       6.862   4.399  18.451  0.00  0.00    +0.000 NA
ATOM      4  C   UNL     1       7.417   4.577  17.235  0.00  0.00    +0.000 A 
ATOM      5  C   UNL     1       6.986   5.531  16.325  0.00  0.00    +0.000 A 
ATOM      6  C   UNL     1       5.875   6.314  16.661  0.00  0.00    +0.000 A 
ENDROOT
BRANCH   1   9
ATOM      7  O   UNL     1       2.524   5.657  18.336  0.00  0.00    +0.000 OA
ATOM      8  C   UNL     1       2.983   6.784  18.469  0.00  0.00    +0.000 C 
ATOM      9  N   UNL     1       4.313   7.137  18.321  0.00  0.00    +0.000 N 
ATOM     10  H   UNL     1       4.611   8.035  18.680  0.00  0.00    +0.000 HD
BRANCH   8  11
ATOM     11  C   UNL     1       2.040   7.855  18.889  0.00  0.00    +0.000 A 
ATOM     12  C   UNL     1       1.655   8.795  17.919  0.00  0.00    +0.000 A 
ATOM     13  C   UNL     1       0.881   9.900  18.272  0.00  0.00    +0.000 A 
ATOM     14  C   UNL     1       0.494  10.073  19.600  0.00  0.00    +0.000 A 
ATOM     15  C   UNL     1       0.870   9.132  20.562  0.00  0.00    +0.000 A 
ATOM     16 BR   UNL     1       0.372   9.404  22.366  0.00  0.00    +0.000 Br
ATOM     17  C   UNL     1       1.637   8.018  20.217  0.00  0.00    +0.000 A 
ENDBRANCH   8  11
ENDBRANCH   1   9
BRANCH   5  18
ATOM     18  O   UNL     1       7.679   5.611  15.142  0.00  0.00    +0.000 OA
BRANCH  18  19
ATOM     19  C   UNL     1       7.242   4.901  14.052  0.00  0.00    +0.000 A 
ATOM     20  C   UNL     1       7.787   4.972  12.772  0.00  0.00    +0.000 A 
ATOM     21  C   UNL     1       7.198   4.250  11.737  0.00  0.00    +0.000 A 
ATOM     22  C   UNL     1       6.119   3.433  12.035  0.00  0.00    +0.000 A 
ATOM     23  N   UNL     1       5.615   3.282  13.278  0.00  0.00    +0.000 NA
ATOM     24  C   UNL     1       6.194   4.014  14.260  0.00  0.00    +0.000 A 
ENDBRANCH  18  19
ENDBRANCH   5  18
TORSDOF 4
ENDMDL
MODEL 9
REMARK VINA RESULT:      -7.5      1.281      1.501
REMARK  Name = 
REMARK  4 active torsions:
REMARK  status: ('A' for Active; 'I' for Inactive)
REMARK    1  A    between atoms: C_2  and  C_17
REMARK    2  A    between atoms: N_3  and  C_4
REMARK    3  A    between atoms: C_8  and  O_9
REMARK    4  A    between atoms: O_9  and  C_10
REMARK                            x       y       z     vdW  Elec       q    Type
REMARK                         _______ _______ _______ _____ _____    ______ ____
ROOT
ATOM      1  C   UNL     1       2.566   5.978  19.924  0.00  0.00    +0.000 A 
ATOM      2  C   UNL     1       1.860   4.855  20.355  0.00  0.00    +0.000 A 
ATOM      3  N   UNL     1       2.315   3.580  20.263  0.00  0.00    +0.000 NA
ATOM      4  C   UNL     1       3.554   3.417  19.758  0.00  0.00    +0.000 A 
ATOM      5  C   UNL     1       4.347   4.463  19.311  0.00  0.00    +0.000 A 
ATOM      6  C   UNL     1       3.810   5.757  19.329  0.00  0.00    +0.000 A 
ENDROOT
BRANCH   1   9
ATOM      7  O   UNL     1       1.879   7.852  17.838  0.00  0.00    +0.000 OA
ATOM      8  C   UNL     1       1.823   8.154  19.023  0.00  0.00    +0.000 C 
ATOM      9  N   UNL     1       2.113   7.313  20.084  0.00  0.00    +0.000 N 
ATOM     10  H   UNL     1       1.810   7.592  21.009  0.00  0.00    +0.000 HD
BRANCH   8  11
ATOM     11  C   UNL     1       1.341   9.521  19.353  0.00  0.00    +0.000 A 
ATOM     12  C   UNL     1       0.212   9.626  20.183  0.00  0.00    +0.000 A 
ATOM     13  C   UNL     1      -0.373  10.868  20.428  0.00  0.00    +0.000 A 
ATOM     14  C   UNL     1       0.163  12.010  19.836  0.00  0.00    +0.000 A 
ATOM     15  C   UNL     1       1.291  11.905  19.018  0.00  0.00    +0.000 A 
ATOM     16 BR   UNL     1       1.982  13.459  18.190  0.00  0.00    +0.000 Br
ATOM     17  C   UNL     1       1.891  10.667  18.775  0.00  0.00    +0.000 A 
ENDBRANCH   8  11
ENDBRANCH   1   9
BRANCH   5  18
ATOM     18  O   UNL     1       5.601   4.137  18.857  0.00  0.00    +0.000 OA
BRANCH  18  19
ATOM     19  C   UNL     1       5.901   4.292  17.527  0.00  0.00    +0.000 A 
ATOM     20  C   UNL     1       5.016   4.079  16.471  0.00  0.00    +0.000 A 
ATOM     21  C   UNL     1       5.473   4.202  15.161  0.00  0.00    +0.000 A 
ATOM     22  C   UNL     1       6.786   4.595  14.955  0.00  0.00    +0.000 A 
ATOM     23  N   UNL     1       7.647   4.883  15.955  0.00  0.00    +0.000 NA
ATOM     24  C   UNL     1       7.180   4.733  17.218  0.00  0.00    +0.000 A 
ENDBRANCH  18  19
ENDBRANCH   5  18
TORSDOF 4
ENDMDL
