MODEL 1
REMARK VINA RESULT:      -9.2      0.000      0.000
REMARK  Name = 
REMARK  7 active torsions:
REMARK  status: ('A' for Active; 'I' for Inactive)
REMARK    1  A    between atoms: C_1  and  O_2
REMARK    2  A    between atoms: O_2  and  C_3
REMARK    3  A    between atoms: C_6  and  C_7
REMARK    4  A    between atoms: N_13  and  C_14
REMARK    5  A    between atoms: C_17  and  C_18
REMARK    6  A    between atoms: N_20  and  C_21
REMARK    7  A    between atoms: N_20  and  C_22
REMARK                            x       y       z     vdW  Elec       q    Type
REMARK                         _______ _______ _______ _____ _____    ______ ____
ROOT
ATOM      1  C   UNL     1       4.341   3.808  18.455  0.00  0.00    +0.000 A 
ATOM      2  N   UNL     1       4.421   2.614  19.066  0.00  0.00    +0.000 NA
ATOM      3  O   UNL     1       3.541   2.669  20.139  0.00  0.00    +0.000 OA
ATOM      4  C   UNL     1       2.921   3.881  20.163  0.00  0.00    +0.000 A 
ATOM      5  N   UNL     1       2.083   4.304  21.145  0.00  0.00    +0.000 NA
ATOM      6  C   UNL     1       1.721   5.541  21.002  0.00  0.00    +0.000 A 
ATOM      7  N   UNL     1       2.048   6.373  19.934  0.00  0.00    +0.000 N 
ATOM      8  C   UNL     1       2.790   5.902  18.843  0.00  0.00    +0.000 A 
ATOM      9  O   UNL     1       3.030   6.533  17.820  0.00  0.00    +0.000 OA
ATOM     10  C   UNL     1       3.333   4.587  19.069  0.00  0.00    +0.000 A 
ENDROOT
BRANCH   1  14
ATOM     11  C   UNL     1       6.982   4.941  15.278  0.00  0.00    +0.000 A 
ATOM     12  C   UNL     1       7.356   5.121  16.611  0.00  0.00    +0.000 A 
ATOM     13  C   UNL     1       6.506   4.741  17.654  0.00  0.00    +0.000 A 
ATOM     14  C   UNL     1       5.254   4.182  17.375  0.00  0.00    +0.000 A 
ATOM     15  C   UNL     1       4.870   4.046  16.032  0.00  0.00    +0.000 A 
ATOM     16  C   UNL     1       5.731   4.408  14.990  0.00  0.00    +0.000 A 
BRANCH  11  18
ATOM     17  C   UNL     1       7.593   5.034  12.996  0.00  0.00    +0.000 C 
ATOM     18  O   UNL     1       7.890   5.365  14.348  0.00  0.00    +0.000 OA
ENDBRANCH  11  18
ENDBRANCH   1  14
BRANCH   7  19
ATOM     19  C   UNL     1       1.722   7.756  19.985  0.00  0.00    +0.000 A 
ATOM     20  C   UNL     1       1.279   8.349  21.166  0.00  0.00    +0.000 A 
ATOM     21  C   UNL     1       0.869   9.684  21.165  0.00  0.00    +0.000 A 
ATOM     22  C   UNL     1       0.887  10.461  19.988  0.00  0.00    +0.000 A 
ATOM     23  C   UNL     1       1.387   9.875  18.825  0.00  0.00    +0.000 A 
ATOM     24  C   UNL     1       1.779   8.528  18.816  0.00  0.00    +0.000 A 
BRANCH  22  25
ATOM     25  C   UNL     1       0.514  11.901  20.136  0.00  0.00    +0.000 C 
ATOM     26  O   UNL     1       1.210  12.491  20.966  0.00  0.00    +0.000 OA
ATOM     27  N   UNL     1      -0.556  12.519  19.443  0.00  0.00    +0.000 N 
ATOM     28  C   UNL     1      -1.620  11.798  18.744  0.00  0.00    +0.000 C 
BRANCH  27  29
ATOM     29  C   UNL     1      -0.797  13.941  19.655  0.00  0.00    +0.000 A 
ATOM     30  C   UNL     1      -1.629  14.402  20.688  0.00  0.00    +0.000 A 
ATOM     31  C   UNL     1      -1.879  15.765  20.879  0.00  0.00    +0.000 A 
ATOM     32  C   UNL     1      -1.282  16.706  20.049  0.00  0.00    +0.000 A 
ATOM     33  C   UNL     1      -0.435  16.282  19.033  0.00  0.00    +0.000 A 
ATOM     34  C   UNL     1      -0.196  14.916  18.838  0.00  0.00    +0.000 A 
ENDBRANCH  27  29
ENDBRANCH  22  25
ENDBRANCH   7  19
TORSDOF 5
ENDMDL
MODEL 2
REMARK VINA RESULT:      -9.1      0.223      1.184
REMARK  Name = 
REMARK  7 active torsions:
REMARK  status: ('A' for Active; 'I' for Inactive)
REMARK    1  A    between atoms: C_1  and  O_2
REMARK    2  A    between atoms: O_2  and  C_3
REMARK    3  A    between atoms: C_6  and  C_7
REMARK    4  A    between atoms: N_13  and  C_14
REMARK    5  A    between atoms: C_17  and  C_18
REMARK    6  A    between atoms: N_20  and  C_21
REMARK    7  A    between atoms: N_20  and  C_22
REMARK                            x       y       z     vdW  Elec       q    Type
REMARK                         _______ _______ _______ _____ _____    ______ ____
ROOT
ATOM      1  C   UNL     1       4.373   3.762  18.470  0.00  0.00    +0.000 A 
ATOM      2  N   UNL     1       4.503   2.568  19.071  0.00  0.00    +0.000 NA
ATOM      3  O   UNL     1       3.629   2.581  20.151  0.00  0.00    +0.000 OA
ATOM      4  C   UNL     1       2.964   3.768  20.189  0.00  0.00    +0.000 A 
ATOM      5  N   UNL     1       2.118   4.152  21.179  0.00  0.00    +0.000 NA
ATOM      6  C   UNL     1       1.708   5.376  21.049  0.00  0.00    +0.000 A 
ATOM      7  N   UNL     1       1.996   6.228  19.985  0.00  0.00    +0.000 N 
ATOM      8  C   UNL     1       2.747   5.793  18.885  0.00  0.00    +0.000 A 
ATOM      9  O   UNL     1       2.956   6.441  17.865  0.00  0.00    +0.000 OA
ATOM     10  C   UNL     1       3.341   4.498  19.097  0.00  0.00    +0.000 A 
ENDROOT
BRANCH   1  14
ATOM     11  C   UNL     1       6.947   5.018  15.285  0.00  0.00    +0.000 A 
ATOM     12  C   UNL     1       7.336   5.176  16.616  0.00  0.00    +0.000 A 
ATOM     13  C   UNL     1       6.508   4.756  17.661  0.00  0.00    +0.000 A 
ATOM     14  C   UNL     1       5.263   4.179  17.387  0.00  0.00    +0.000 A 
ATOM     15  C   UNL     1       4.864   4.065  16.046  0.00  0.00    +0.000 A 
ATOM     16  C   UNL     1       5.703   4.467  15.001  0.00  0.00    +0.000 A 
BRANCH  11  18
ATOM     17  C   UNL     1       7.625   5.029  13.020  0.00  0.00    +0.000 C 
ATOM     18  O   UNL     1       7.834   5.482  14.352  0.00  0.00    +0.000 OA
ENDBRANCH  11  18
ENDBRANCH   1  14
BRANCH   7  19
ATOM     19  C   UNL     1       1.619   7.597  20.049  0.00  0.00    +0.000 A 
ATOM     20  C   UNL     1       1.777   8.440  18.950  0.00  0.00    +0.000 A 
ATOM     21  C   UNL     1       1.492   9.803  19.069  0.00  0.00    +0.000 A 
ATOM     22  C   UNL     1       1.048  10.359  20.287  0.00  0.00    +0.000 A 
ATOM     23  C   UNL     1       0.837   9.497  21.363  0.00  0.00    +0.000 A 
ATOM     24  C   UNL     1       1.142   8.132  21.253  0.00  0.00    +0.000 A 
BRANCH  22  25
ATOM     25  C   UNL     1       0.688  11.810  20.262  0.00  0.00    +0.000 C 
ATOM     26  O   UNL     1       1.473  12.508  20.909  0.00  0.00    +0.000 OA
ATOM     27  N   UNL     1      -0.457  12.333  19.612  0.00  0.00    +0.000 N 
ATOM     28  C   UNL     1      -1.592  11.530  19.155  0.00  0.00    +0.000 C 
BRANCH  27  29
ATOM     29  C   UNL     1      -0.678  13.774  19.636  0.00  0.00    +0.000 A 
ATOM     30  C   UNL     1      -0.094  14.625  18.684  0.00  0.00    +0.000 A 
ATOM     31  C   UNL     1      -0.287  16.011  18.720  0.00  0.00    +0.000 A 
ATOM     32  C   UNL     1      -1.091  16.578  19.701  0.00  0.00    +0.000 A 
ATOM     33  C   UNL     1      -1.701  15.759  20.643  0.00  0.00    +0.000 A 
ATOM     34  C   UNL     1      -1.497  14.373  20.610  0.00  0.00    +0.000 A 
ENDBRANCH  27  29
ENDBRANCH  22  25
ENDBRANCH   7  19
TORSDOF 5
ENDMDL
MODEL 3
REMARK VINA RESULT:      -8.8      1.058      1.570
REMARK  Name = 
REMARK  7 active torsions:
REMARK  status: ('A' for Active; 'I' for Inactive)
REMARK    1  A    between atoms: C_1  and  O_2
REMARK    2  A    between atoms: O_2  and  C_3
REMARK    3  A    between atoms: C_6  and  C_7
REMARK    4  A    between atoms: N_13  and  C_14
REMARK    5  A    between atoms: C_17  and  C_18
REMARK    6  A    between atoms: N_20  and  C_21
REMARK    7  A    between atoms: N_20  and  C_22
REMARK                            x       y       z     vdW  Elec       q    Type
REMARK                         _______ _______ _______ _____ _____    ______ ____
ROOT
ATOM      1  C   UNL     1       4.454   4.182  18.478  0.00  0.00    +0.000 A 
ATOM      2  N   UNL     1       4.592   3.078  19.230  0.00  0.00    +0.000 NA
ATOM      3  O   UNL     1       3.700   3.214  20.287  0.00  0.00    +0.000 OA
ATOM      4  C   UNL     1       3.017   4.385  20.161  0.00  0.00    +0.000 A 
ATOM      5  N   UNL     1       2.148   4.877  21.082  0.00  0.00    +0.000 NA
ATOM      6  C   UNL     1       1.721   6.067  20.788  0.00  0.00    +0.000 A 
ATOM      7  N   UNL     1       2.013   6.780  19.628  0.00  0.00    +0.000 N 
ATOM      8  C   UNL     1       2.789   6.220  18.605  0.00  0.00    +0.000 A 
ATOM      9  O   UNL     1       3.004   6.735  17.513  0.00  0.00    +0.000 OA
ATOM     10  C   UNL     1       3.400   4.975  18.990  0.00  0.00    +0.000 A 
ENDROOT
BRANCH   1  14
ATOM     11  C   UNL     1       7.055   5.050  15.187  0.00  0.00    +0.000 A 
ATOM     12  C   UNL     1       7.194   5.727  16.400  0.00  0.00    +0.000 A 
ATOM     13  C   UNL     1       6.359   5.440  17.483  0.00  0.00    +0.000 A 
ATOM     14  C   UNL     1       5.355   4.472  17.363  0.00  0.00    +0.000 A 
ATOM     15  C   UNL     1       5.196   3.829  16.126  0.00  0.00    +0.000 A 
ATOM     16  C   UNL     1       6.047   4.103  15.050  0.00  0.00    +0.000 A 
BRANCH  11  18
ATOM     17  C   UNL     1       7.592   4.984  12.885  0.00  0.00    +0.000 C 
ATOM     18  O   UNL     1       7.919   5.429  14.197  0.00  0.00    +0.000 OA
ENDBRANCH  11  18
ENDBRANCH   1  14
BRANCH   7  19
ATOM     19  C   UNL     1       1.613   8.139  19.509  0.00  0.00    +0.000 A 
ATOM     20  C   UNL     1       1.826   8.852  18.331  0.00  0.00    +0.000 A 
ATOM     21  C   UNL     1       1.515  10.213  18.274  0.00  0.00    +0.000 A 
ATOM     22  C   UNL     1       0.989  10.897  19.389  0.00  0.00    +0.000 A 
ATOM     23  C   UNL     1       0.725  10.160  20.544  0.00  0.00    +0.000 A 
ATOM     24  C   UNL     1       1.056   8.799  20.613  0.00  0.00    +0.000 A 
BRANCH  22  25
ATOM     25  C   UNL     1       0.611  12.327  19.174  0.00  0.00    +0.000 C 
ATOM     26  O   UNL     1      -0.268  12.465  18.319  0.00  0.00    +0.000 OA
ATOM     27  N   UNL     1       1.226  13.419  19.835  0.00  0.00    +0.000 N 
ATOM     28  C   UNL     1       2.492  13.343  20.564  0.00  0.00    +0.000 C 
BRANCH  27  29
ATOM     29  C   UNL     1       0.743  14.767  19.558  0.00  0.00    +0.000 A 
ATOM     30  C   UNL     1      -0.465  15.241  20.093  0.00  0.00    +0.000 A 
ATOM     31  C   UNL     1      -0.941  16.526  19.810  0.00  0.00    +0.000 A 
ATOM     32  C   UNL     1      -0.205  17.379  18.997  0.00  0.00    +0.000 A 
ATOM     33  C   UNL     1       1.006  16.946  18.471  0.00  0.00    +0.000 A 
ATOM     34  C   UNL     1       1.474  15.655  18.749  0.00  0.00    +0.000 A 
ENDBRANCH  27  29
ENDBRANCH  22  25
ENDBRANCH   7  19
TORSDOF 5
ENDMDL
MODEL 4
REMARK VINA RESULT:      -8.8      0.886      1.371
REMARK  Name = 
REMARK  7 active torsions:
REMARK  status: ('A' for Active; 'I' for Inactive)
REMARK    1  A    between atoms: C_1  and  O_2
REMARK    2  A    between atoms: O_2  and  C_3
REMARK    3  A    between atoms: C_6  and  C_7
REMARK    4  A    between atoms: N_13  and  C_14
REMARK    5  A    between atoms: C_17  and  C_18
REMARK    6  A    between atoms: N_20  and  C_21
REMARK    7  A    between atoms: N_20  and  C_22
REMARK                            x       y       z     vdW  Elec       q    Type
REMARK                         _______ _______ _______ _____ _____    ______ ____
ROOT
ATOM      1  C   UNL     1       4.561   4.095  18.519  0.00  0.00    +0.000 A 
ATOM      2  N   UNL     1       4.738   2.995  19.269  0.00  0.00    +0.000 NA
ATOM      3  O   UNL     1       3.859   3.110  20.338  0.00  0.00    +0.000 OA
ATOM      4  C   UNL     1       3.145   4.262  20.223  0.00  0.00    +0.000 A 
ATOM      5  N   UNL     1       2.277   4.734  21.156  0.00  0.00    +0.000 NA
ATOM      6  C   UNL     1       1.817   5.912  20.869  0.00  0.00    +0.000 A 
ATOM      7  N   UNL     1       2.074   6.632  19.704  0.00  0.00    +0.000 N 
ATOM      8  C   UNL     1       2.849   6.091  18.669  0.00  0.00    +0.000 A 
ATOM      9  O   UNL     1       3.034   6.610  17.574  0.00  0.00    +0.000 OA
ATOM     10  C   UNL     1       3.496   4.861  19.046  0.00  0.00    +0.000 A 
ENDROOT
BRANCH   1  14
ATOM     11  C   UNL     1       7.091   5.028  15.190  0.00  0.00    +0.000 A 
ATOM     12  C   UNL     1       7.295   5.637  16.430  0.00  0.00    +0.000 A 
ATOM     13  C   UNL     1       6.482   5.327  17.525  0.00  0.00    +0.000 A 
ATOM     14  C   UNL     1       5.438   4.406  17.390  0.00  0.00    +0.000 A 
ATOM     15  C   UNL     1       5.215   3.833  16.129  0.00  0.00    +0.000 A 
ATOM     16  C   UNL     1       6.043   4.128  15.040  0.00  0.00    +0.000 A 
BRANCH  11  18
ATOM     17  C   UNL     1       7.624   4.950  12.888  0.00  0.00    +0.000 C 
ATOM     18  O   UNL     1       7.938   5.424  14.192  0.00  0.00    +0.000 OA
ENDBRANCH  11  18
ENDBRANCH   1  14
BRANCH   7  19
ATOM     19  C   UNL     1       1.638   7.980  19.591  0.00  0.00    +0.000 A 
ATOM     20  C   UNL     1       0.963   8.609  20.636  0.00  0.00    +0.000 A 
ATOM     21  C   UNL     1       0.457   9.899  20.463  0.00  0.00    +0.000 A 
ATOM     22  C   UNL     1       0.609  10.593  19.244  0.00  0.00    +0.000 A 
ATOM     23  C   UNL     1       1.337   9.978  18.226  0.00  0.00    +0.000 A 
ATOM     24  C   UNL     1       1.828   8.674  18.388  0.00  0.00    +0.000 A 
BRANCH  22  25
ATOM     25  C   UNL     1       0.106  12.001  19.215  0.00  0.00    +0.000 C 
ATOM     26  O   UNL     1      -0.903  12.134  18.517  0.00  0.00    +0.000 OA
ATOM     27  N   UNL     1       0.741  13.085  19.872  0.00  0.00    +0.000 N 
ATOM     28  C   UNL     1       2.107  13.054  20.393  0.00  0.00    +0.000 C 
BRANCH  27  29
ATOM     29  C   UNL     1       0.130  14.406  19.789  0.00  0.00    +0.000 A 
ATOM     30  C   UNL     1       0.546  15.351  18.838  0.00  0.00    +0.000 A 
ATOM     31  C   UNL     1      -0.024  16.628  18.772  0.00  0.00    +0.000 A 
ATOM     32  C   UNL     1      -1.042  16.983  19.647  0.00  0.00    +0.000 A 
ATOM     33  C   UNL     1      -1.491  16.061  20.585  0.00  0.00    +0.000 A 
ATOM     34  C   UNL     1      -0.911  14.787  20.654  0.00  0.00    +0.000 A 
ENDBRANCH  27  29
ENDBRANCH  22  25
ENDBRANCH   7  19
TORSDOF 5
ENDMDL
MODEL 5
REMARK VINA RESULT:      -8.7      0.927      1.494
REMARK  Name = 
REMARK  7 active torsions:
REMARK  status: ('A' for Active; 'I' for Inactive)
REMARK    1  A    between atoms: C_1  and  O_2
REMARK    2  A    between atoms: O_2  and  C_3
REMARK    3  A    between atoms: C_6  and  C_7
REMARK    4  A    between atoms: N_13  and  C_14
REMARK    5  A    between atoms: C_17  and  C_18
REMARK    6  A    between atoms: N_20  and  C_21
REMARK    7  A    between atoms: N_20  and  C_22
REMARK                            x       y       z     vdW  Elec       q    Type
REMARK                         _______ _______ _______ _____ _____    ______ ____
ROOT
ATOM      1  C   UNL     1       4.356   3.927  18.476  0.00  0.00    +0.000 A 
ATOM      2  N   UNL     1       4.450   2.743  19.104  0.00  0.00    +0.000 NA
ATOM      3  O   UNL     1       3.564   2.801  20.173  0.00  0.00    +0.000 OA
ATOM      4  C   UNL     1       2.928   4.005  20.177  0.00  0.00    +0.000 A 
ATOM      5  N   UNL     1       2.080   4.430  21.149  0.00  0.00    +0.000 NA
ATOM      6  C   UNL     1       1.702   5.661  20.987  0.00  0.00    +0.000 A 
ATOM      7  N   UNL     1       2.023   6.482  19.908  0.00  0.00    +0.000 N 
ATOM      8  C   UNL     1       2.775   6.004  18.827  0.00  0.00    +0.000 A 
ATOM      9  O   UNL     1       3.011   6.624  17.796  0.00  0.00    +0.000 OA
ATOM     10  C   UNL     1       3.335   4.701  19.075  0.00  0.00    +0.000 A 
ENDROOT
BRANCH   1  14
ATOM     11  C   UNL     1       7.056   4.975  15.319  0.00  0.00    +0.000 A 
ATOM     12  C   UNL     1       5.766   4.526  15.031  0.00  0.00    +0.000 A 
ATOM     13  C   UNL     1       4.874   4.195  16.055  0.00  0.00    +0.000 A 
ATOM     14  C   UNL     1       5.268   4.298  17.394  0.00  0.00    +0.000 A 
ATOM     15  C   UNL     1       6.581   4.709  17.672  0.00  0.00    +0.000 A 
ATOM     16  C   UNL     1       7.465   5.059  16.646  0.00  0.00    +0.000 A 
BRANCH  11  18
ATOM     17  C   UNL     1       7.386   4.732  12.991  0.00  0.00    +0.000 C 
ATOM     18  O   UNL     1       7.841   5.252  14.235  0.00  0.00    +0.000 OA
ENDBRANCH  11  18
ENDBRANCH   1  14
BRANCH   7  19
ATOM     19  C   UNL     1       1.677   7.860  19.938  0.00  0.00    +0.000 A 
ATOM     20  C   UNL     1       1.312   8.486  21.129  0.00  0.00    +0.000 A 
ATOM     21  C   UNL     1       0.881   9.815  21.114  0.00  0.00    +0.000 A 
ATOM     22  C   UNL     1       0.799  10.551  19.914  0.00  0.00    +0.000 A 
ATOM     23  C   UNL     1       1.223   9.933  18.737  0.00  0.00    +0.000 A 
ATOM     24  C   UNL     1       1.636   8.593  18.744  0.00  0.00    +0.000 A 
BRANCH  22  25
ATOM     25  C   UNL     1       0.413  11.990  20.043  0.00  0.00    +0.000 C 
ATOM     26  O   UNL     1      -0.702  12.142  20.549  0.00  0.00    +0.000 OA
ATOM     27  N   UNL     1       1.210  13.069  19.587  0.00  0.00    +0.000 N 
ATOM     28  C   UNL     1       2.341  12.936  18.669  0.00  0.00    +0.000 C 
BRANCH  27  29
ATOM     29  C   UNL     1       0.731  14.430  19.800  0.00  0.00    +0.000 A 
ATOM     30  C   UNL     1      -0.053  15.093  18.843  0.00  0.00    +0.000 A 
ATOM     31  C   UNL     1      -0.495  16.407  19.037  0.00  0.00    +0.000 A 
ATOM     32  C   UNL     1      -0.178  17.084  20.208  0.00  0.00    +0.000 A 
ATOM     33  C   UNL     1       0.577  16.445  21.184  0.00  0.00    +0.000 A 
ATOM     34  C   UNL     1       1.026  15.133  20.982  0.00  0.00    +0.000 A 
ENDBRANCH  27  29
ENDBRANCH  22  25
ENDBRANCH   7  19
TORSDOF 5
ENDMDL
MODEL 6
REMARK VINA RESULT:      -8.6      1.024      1.913
REMARK  Name = 
REMARK  7 active torsions:
REMARK  status: ('A' for Active; 'I' for Inactive)
REMARK    1  A    between atoms: C_1  and  O_2
REMARK    2  A    between atoms: O_2  and  C_3
REMARK    3  A    between atoms: C_6  and  C_7
REMARK    4  A    between atoms: N_13  and  C_14
REMARK    5  A    between atoms: C_17  and  C_18
REMARK    6  A    between atoms: N_20  and  C_21
REMARK    7  A    between atoms: N_20  and  C_22
REMARK                            x       y       z     vdW  Elec       q    Type
REMARK                         _______ _______ _______ _____ _____    ______ ____
ROOT
ATOM      1  C   UNL     1       4.412   4.227  18.449  0.00  0.00    +0.000 A 
ATOM      2  N   UNL     1       4.572   3.120  19.193  0.00  0.00    +0.000 NA
ATOM      3  O   UNL     1       3.696   3.244  20.264  0.00  0.00    +0.000 OA
ATOM      4  C   UNL     1       3.001   4.409  20.156  0.00  0.00    +0.000 A 
ATOM      5  N   UNL     1       2.143   4.890  21.093  0.00  0.00    +0.000 NA
ATOM      6  C   UNL     1       1.702   6.078  20.813  0.00  0.00    +0.000 A 
ATOM      7  N   UNL     1       1.970   6.799  19.652  0.00  0.00    +0.000 N 
ATOM      8  C   UNL     1       2.733   6.251  18.613  0.00  0.00    +0.000 A 
ATOM      9  O   UNL     1       2.926   6.773  17.520  0.00  0.00    +0.000 OA
ATOM     10  C   UNL     1       3.361   5.008  18.982  0.00  0.00    +0.000 A 
ENDROOT
BRANCH   1  14
ATOM     11  C   UNL     1       7.026   5.085  15.165  0.00  0.00    +0.000 A 
ATOM     12  C   UNL     1       5.866   4.333  14.972  0.00  0.00    +0.000 A 
ATOM     13  C   UNL     1       5.000   4.061  16.036  0.00  0.00    +0.000 A 
ATOM     14  C   UNL     1       5.293   4.530  17.321  0.00  0.00    +0.000 A 
ATOM     15  C   UNL     1       6.484   5.247  17.512  0.00  0.00    +0.000 A 
ATOM     16  C   UNL     1       7.337   5.537  16.443  0.00  0.00    +0.000 A 
BRANCH  11  18
ATOM     17  C   UNL     1       7.301   4.706  12.848  0.00  0.00    +0.000 C 
ATOM     18  O   UNL     1       7.801   5.271  14.054  0.00  0.00    +0.000 OA
ENDBRANCH  11  18
ENDBRANCH   1  14
BRANCH   7  19
ATOM     19  C   UNL     1       1.556   8.155  19.547  0.00  0.00    +0.000 A 
ATOM     20  C   UNL     1       1.693   8.859  18.351  0.00  0.00    +0.000 A 
ATOM     21  C   UNL     1       1.373  10.218  18.302  0.00  0.00    +0.000 A 
ATOM     22  C   UNL     1       0.913  10.909  19.442  0.00  0.00    +0.000 A 
ATOM     23  C   UNL     1       0.724  10.181  20.617  0.00  0.00    +0.000 A 
ATOM     24  C   UNL     1       1.065   8.822  20.677  0.00  0.00    +0.000 A 
BRANCH  22  25
ATOM     25  C   UNL     1       0.516  12.336  19.239  0.00  0.00    +0.000 C 
ATOM     26  O   UNL     1      -0.366  12.469  18.387  0.00  0.00    +0.000 OA
ATOM     27  N   UNL     1       1.117  13.431  19.908  0.00  0.00    +0.000 N 
ATOM     28  C   UNL     1       2.386  13.365  20.634  0.00  0.00    +0.000 C 
BRANCH  27  29
ATOM     29  C   UNL     1       0.616  14.774  19.642  0.00  0.00    +0.000 A 
ATOM     30  C   UNL     1       1.233  15.618  18.705  0.00  0.00    +0.000 A 
ATOM     31  C   UNL     1       0.766  16.915  18.464  0.00  0.00    +0.000 A 
ATOM     32  C   UNL     1      -0.348  17.393  19.143  0.00  0.00    +0.000 A 
ATOM     33  C   UNL     1      -0.994  16.572  20.059  0.00  0.00    +0.000 A 
ATOM     34  C   UNL     1      -0.518  15.278  20.305  0.00  0.00    +0.000 A 
ENDBRANCH  27  29
ENDBRANCH  22  25
ENDBRANCH   7  19
TORSDOF 5
ENDMDL
MODEL 7
REMARK VINA RESULT:      -8.5      3.134     11.581
REMARK  Name = 
REMARK  7 active torsions:
REMARK  status: ('A' for Active; 'I' for Inactive)
REMARK    1  A    between atoms: C_1  and  O_2
REMARK    2  A    between atoms: O_2  and  C_3
REMARK    3  A    between atoms: C_6  and  C_7
REMARK    4  A    between atoms: N_13  and  C_14
REMARK    5  A    between atoms: C_17  and  C_18
REMARK    6  A    between atoms: N_20  and  C_21
REMARK    7  A    between atoms: N_20  and  C_22
REMARK                            x       y       z     vdW  Elec       q    Type
REMARK                         _______ _______ _______ _____ _____    ______ ____
ROOT
ATOM      1  C   UNL     1      -1.818  14.255  22.294  0.00  0.00    +0.000 A 
ATOM      2  N   UNL     1      -1.398  15.509  22.529  0.00  0.00    +0.000 NA
ATOM      3  O   UNL     1      -0.097  15.579  22.045  0.00  0.00    +0.000 OA
ATOM      4  C   UNL     1       0.257  14.380  21.507  0.00  0.00    +0.000 A 
ATOM      5  N   UNL     1       1.497  14.074  21.045  0.00  0.00    +0.000 NA
ATOM      6  C   UNL     1       1.614  12.830  20.697  0.00  0.00    +0.000 A 
ATOM      7  N   UNL     1       0.594  11.882  20.688  0.00  0.00    +0.000 N 
ATOM      8  C   UNL     1      -0.723  12.225  21.021  0.00  0.00    +0.000 A 
ATOM      9  O   UNL     1      -1.695  11.481  20.936  0.00  0.00    +0.000 OA
ATOM     10  C   UNL     1      -0.829  13.554  21.565  0.00  0.00    +0.000 A 
ENDROOT
BRANCH   1  14
ATOM     11  C   UNL     1      -5.534  12.825  23.874  0.00  0.00    +0.000 A 
ATOM     12  C   UNL     1      -5.513  13.674  22.767  0.00  0.00    +0.000 A 
ATOM     13  C   UNL     1      -4.304  14.134  22.236  0.00  0.00    +0.000 A 
ATOM     14  C   UNL     1      -3.089  13.757  22.819  0.00  0.00    +0.000 A 
ATOM     15  C   UNL     1      -3.123  12.939  23.959  0.00  0.00    +0.000 A 
ATOM     16  C   UNL     1      -4.333  12.463  24.475  0.00  0.00    +0.000 A 
BRANCH  11  18
ATOM     17  C   UNL     1      -7.724  12.149  23.297  0.00  0.00    +0.000 C 
ATOM     18  O   UNL     1      -6.775  12.455  24.312  0.00  0.00    +0.000 OA
ENDBRANCH  11  18
ENDBRANCH   1  14
BRANCH   7  19
ATOM     19  C   UNL     1       0.896  10.515  20.441  0.00  0.00    +0.000 A 
ATOM     20  C   UNL     1       0.978   9.595  21.485  0.00  0.00    +0.000 A 
ATOM     21  C   UNL     1       1.375   8.281  21.227  0.00  0.00    +0.000 A 
ATOM     22  C   UNL     1       1.705   7.852  19.924  0.00  0.00    +0.000 A 
ATOM     23  C   UNL     1       1.563   8.765  18.879  0.00  0.00    +0.000 A 
ATOM     24  C   UNL     1       1.185  10.091  19.136  0.00  0.00    +0.000 A 
BRANCH  22  25
ATOM     25  C   UNL     1       2.024   6.400  19.764  0.00  0.00    +0.000 C 
ATOM     26  O   UNL     1       1.523   5.700  20.648  0.00  0.00    +0.000 OA
ATOM     27  N   UNL     1       2.855   5.878  18.742  0.00  0.00    +0.000 N 
ATOM     28  C   UNL     1       3.752   6.681  17.910  0.00  0.00    +0.000 C 
BRANCH  27  29
ATOM     29  C   UNL     1       3.064   4.437  18.678  0.00  0.00    +0.000 A 
ATOM     30  C   UNL     1       4.045   3.799  19.454  0.00  0.00    +0.000 A 
ATOM     31  C   UNL     1       4.261   2.419  19.377  0.00  0.00    +0.000 A 
ATOM     32  C   UNL     1       3.481   1.636  18.535  0.00  0.00    +0.000 A 
ATOM     33  C   UNL     1       2.486   2.236  17.772  0.00  0.00    +0.000 A 
ATOM     34  C   UNL     1       2.279   3.620  17.844  0.00  0.00    +0.000 A 
ENDBRANCH  27  29
ENDBRANCH  22  25
ENDBRANCH   7  19
TORSDOF 5
ENDMDL
MODEL 8
REMARK VINA RESULT:      -8.4      2.829     11.448
REMARK  Name = 
REMARK  7 active torsions:
REMARK  status: ('A' for Active; 'I' for Inactive)
REMARK    1  A    between atoms: C_1  and  O_2
REMARK    2  A    between atoms: O_2  and  C_3
REMARK    3  A    between atoms: C_6  and  C_7
REMARK    4  A    between atoms: N_13  and  C_14
REMARK    5  A    between atoms: C_17  and  C_18
REMARK    6  A    between atoms: N_20  and  C_21
REMARK    7  A    between atoms: N_20  and  C_22
REMARK                            x       y       z     vdW  Elec       q    Type
REMARK                         _______ _______ _______ _____ _____    ______ ____
ROOT
ATOM      1  C   UNL     1      -1.830  14.132  20.699  0.00  0.00    +0.000 A 
ATOM      2  N   UNL     1      -1.457  15.418  20.800  0.00  0.00    +0.000 NA
ATOM      3  O   UNL     1      -0.137  15.473  20.369  0.00  0.00    +0.000 OA
ATOM      4  C   UNL     1       0.275  14.231  19.995  0.00  0.00    +0.000 A 
ATOM      5  N   UNL     1       1.544  13.913  19.628  0.00  0.00    +0.000 NA
ATOM      6  C   UNL     1       1.711  12.641  19.437  0.00  0.00    +0.000 A 
ATOM      7  N   UNL     1       0.719  11.666  19.497  0.00  0.00    +0.000 N 
ATOM      8  C   UNL     1      -0.621  12.002  19.728  0.00  0.00    +0.000 A 
ATOM      9  O   UNL     1      -1.567  11.222  19.691  0.00  0.00    +0.000 OA
ATOM     10  C   UNL     1      -0.789  13.382  20.104  0.00  0.00    +0.000 A 
ENDROOT
BRANCH   1  14
ATOM     11  C   UNL     1      -5.589  12.791  22.257  0.00  0.00    +0.000 A 
ATOM     12  C   UNL     1      -5.400  12.933  20.881  0.00  0.00    +0.000 A 
ATOM     13  C   UNL     1      -4.172  13.356  20.364  0.00  0.00    +0.000 A 
ATOM     14  C   UNL     1      -3.111  13.658  21.224  0.00  0.00    +0.000 A 
ATOM     15  C   UNL     1      -3.325  13.554  22.607  0.00  0.00    +0.000 A 
ATOM     16  C   UNL     1      -4.548  13.110  23.121  0.00  0.00    +0.000 A 
BRANCH  11  18
ATOM     17  C   UNL     1      -7.215  12.725  23.972  0.00  0.00    +0.000 C 
ATOM     18  O   UNL     1      -6.837  12.386  22.643  0.00  0.00    +0.000 OA
ENDBRANCH  11  18
ENDBRANCH   1  14
BRANCH   7  19
ATOM     19  C   UNL     1       1.070  10.290  19.429  0.00  0.00    +0.000 A 
ATOM     20  C   UNL     1       1.048   9.483  20.566  0.00  0.00    +0.000 A 
ATOM     21  C   UNL     1       1.494   8.162  20.493  0.00  0.00    +0.000 A 
ATOM     22  C   UNL     1       1.976   7.612  19.287  0.00  0.00    +0.000 A 
ATOM     23  C   UNL     1       1.939   8.409  18.142  0.00  0.00    +0.000 A 
ATOM     24  C   UNL     1       1.512   9.744  18.216  0.00  0.00    +0.000 A 
BRANCH  22  25
ATOM     25  C   UNL     1       2.336   6.161  19.315  0.00  0.00    +0.000 C 
ATOM     26  O   UNL     1       1.760   5.544  20.215  0.00  0.00    +0.000 OA
ATOM     27  N   UNL     1       3.275   5.559  18.442  0.00  0.00    +0.000 N 
ATOM     28  C   UNL     1       4.238   6.295  17.622  0.00  0.00    +0.000 C 
BRANCH  27  29
ATOM     29  C   UNL     1       3.515   4.125  18.554  0.00  0.00    +0.000 A 
ATOM     30  C   UNL     1       2.956   3.212  17.646  0.00  0.00    +0.000 A 
ATOM     31  C   UNL     1       3.166   1.834  17.765  0.00  0.00    +0.000 A 
ATOM     32  C   UNL     1       3.963   1.336  18.788  0.00  0.00    +0.000 A 
ATOM     33  C   UNL     1       4.549   2.217  19.689  0.00  0.00    +0.000 A 
ATOM     34  C   UNL     1       4.328   3.595  19.572  0.00  0.00    +0.000 A 
ENDBRANCH  27  29
ENDBRANCH  22  25
ENDBRANCH   7  19
TORSDOF 5
ENDMDL
MODEL 9
REMARK VINA RESULT:      -8.4      0.958      1.511
REMARK  Name = 
REMARK  7 active torsions:
REMARK  status: ('A' for Active; 'I' for Inactive)
REMARK    1  A    between atoms: C_1  and  O_2
REMARK    2  A    between atoms: O_2  and  C_3
REMARK    3  A    between atoms: C_6  and  C_7
REMARK    4  A    between atoms: N_13  and  C_14
REMARK    5  A    between atoms: C_17  and  C_18
REMARK    6  A    between atoms: N_20  and  C_21
REMARK    7  A    between atoms: N_20  and  C_22
REMARK                            x       y       z     vdW  Elec       q    Type
REMARK                         _______ _______ _______ _____ _____    ______ ____
ROOT
ATOM      1  C   UNL     1       4.149   3.984  18.349  0.00  0.00    +0.000 A 
ATOM      2  N   UNL     1       4.154   2.738  18.849  0.00  0.00    +0.000 NA
ATOM      3  O   UNL     1       3.239   2.736  19.894  0.00  0.00    +0.000 OA
ATOM      4  C   UNL     1       2.673   3.969  20.010  0.00  0.00    +0.000 A 
ATOM      5  N   UNL     1       1.818   4.340  20.999  0.00  0.00    +0.000 NA
ATOM      6  C   UNL     1       1.517   5.601  20.959  0.00  0.00    +0.000 A 
ATOM      7  N   UNL     1       1.919   6.510  19.983  0.00  0.00    +0.000 N 
ATOM      8  C   UNL     1       2.678   6.105  18.878  0.00  0.00    +0.000 A 
ATOM      9  O   UNL     1       2.983   6.815  17.926  0.00  0.00    +0.000 OA
ATOM     10  C   UNL     1       3.155   4.751  19.000  0.00  0.00    +0.000 A 
ENDROOT
BRANCH   1  14
ATOM     11  C   UNL     1       7.017   5.210  15.412  0.00  0.00    +0.000 A 
ATOM     12  C   UNL     1       5.969   4.355  15.068  0.00  0.00    +0.000 A 
ATOM     13  C   UNL     1       5.021   3.961  16.017  0.00  0.00    +0.000 A 
ATOM     14  C   UNL     1       5.116   4.412  17.338  0.00  0.00    +0.000 A 
ATOM     15  C   UNL     1       6.198   5.236  17.683  0.00  0.00    +0.000 A 
ATOM     16  C   UNL     1       7.133   5.646  16.727  0.00  0.00    +0.000 A 
BRANCH  11  18
ATOM     17  C   UNL     1       7.525   5.044  13.109  0.00  0.00    +0.000 C 
ATOM     18  O   UNL     1       7.889   5.511  14.403  0.00  0.00    +0.000 OA
ENDBRANCH  11  18
ENDBRANCH   1  14
BRANCH   7  19
ATOM     19  C   UNL     1       1.652   7.896  20.151  0.00  0.00    +0.000 A 
ATOM     20  C   UNL     1       1.461   8.445  21.419  0.00  0.00    +0.000 A 
ATOM     21  C   UNL     1       1.101   9.788  21.550  0.00  0.00    +0.000 A 
ATOM     22  C   UNL     1       0.919  10.616  20.423  0.00  0.00    +0.000 A 
ATOM     23  C   UNL     1       1.170  10.073  19.163  0.00  0.00    +0.000 A 
ATOM     24  C   UNL     1       1.510   8.719  19.026  0.00  0.00    +0.000 A 
BRANCH  22  25
ATOM     25  C   UNL     1       0.626  12.057  20.698  0.00  0.00    +0.000 C 
ATOM     26  O   UNL     1       1.557  12.802  20.379  0.00  0.00    +0.000 OA
ATOM     27  N   UNL     1      -0.565  12.523  21.306  0.00  0.00    +0.000 N 
ATOM     28  C   UNL     1      -1.518  11.675  22.023  0.00  0.00    +0.000 C 
BRANCH  27  29
ATOM     29  C   UNL     1      -0.741  13.958  21.491  0.00  0.00    +0.000 A 
ATOM     30  C   UNL     1      -1.235  14.778  20.464  0.00  0.00    +0.000 A 
ATOM     31  C   UNL     1      -1.383  16.160  20.633  0.00  0.00    +0.000 A 
ATOM     32  C   UNL     1      -1.059  16.753  21.846  0.00  0.00    +0.000 A 
ATOM     33  C   UNL     1      -0.590  15.964  22.889  0.00  0.00    +0.000 A 
ATOM     34  C   UNL     1      -0.433  14.583  22.713  0.00  0.00    +0.000 A 
ENDBRANCH  27  29
ENDBRANCH  22  25
ENDBRANCH   7  19
TORSDOF 5
ENDMDL
