MODEL 1
REMARK VINA RESULT:      -6.6      0.000      0.000
REMARK  Name = 
REMARK  14 active torsions:
REMARK  status: ('A' for Active; 'I' for Inactive)
REMARK    1  A    between atoms: C_1  and  O_2
REMARK    2  A    between atoms: O_2  and  C_3
REMARK    3  A    between atoms: C_3  and  C_4
REMARK    4  A    between atoms: C_4  and  O_5
REMARK    5  A    between atoms: O_5  and  C_6
REMARK    6  A    between atoms: C_6  and  C_7
REMARK    7  A    between atoms: C_7  and  C_8
REMARK    8  A    between atoms: C_8  and  N_9
REMARK    9  A    between atoms: N_9  and  C_10
REMARK   10  A    between atoms: C_10  and  C_11
REMARK   11  A    between atoms: C_14  and  O_15
REMARK   12  A    between atoms: O_15  and  C_16
REMARK   13  A    between atoms: C_20  and  O_21
REMARK   14  A    between atoms: C_22  and  O_23
REMARK                            x       y       z     vdW  Elec       q    Type
REMARK                         _______ _______ _______ _____ _____    ______ ____
ROOT
ATOM      1  C   UNL     1       3.217   4.046  18.581  0.00  0.00    +0.000 C 
ATOM      2  C   UNL     1       2.287   2.809  18.343  0.00  0.00    +0.000 C 
ATOM      3  C   UNL     1       1.733   2.408  19.710  0.00  0.00    +0.000 C 
ATOM      4  C   UNL     1       2.931   2.747  20.621  0.00  0.00    +0.000 C 
ATOM      5  C   UNL     1       3.379   4.126  20.134  0.00  0.00    +0.000 C 
ENDROOT
BRANCH   3   6
ATOM      6  O   UNL     1       0.539   3.108  19.988  0.00  0.00    +0.000 OA
ATOM      7  H   UNL     1      -0.253   2.577  19.745  0.00  0.00    +0.000 HD
ENDBRANCH   3   6
BRANCH   4   8
ATOM      8  O   UNL     1       2.650   2.682  21.998  0.00  0.00    +0.000 OA
ATOM      9  H   UNL     1       1.829   3.212  22.172  0.00  0.00    +0.000 HD
ENDBRANCH   4   8
BRANCH   1  10
ATOM     10  C   UNL     1       4.603   3.765  17.932  0.00  0.00    +0.000 C 
BRANCH  10  11
ATOM     11  O   UNL     1       5.608   4.518  18.582  0.00  0.00    +0.000 OA
BRANCH  11  12
ATOM     12  C   UNL     1       6.735   4.634  17.738  0.00  0.00    +0.000 C 
BRANCH  12  13
ATOM     13  C   UNL     1       6.552   5.838  16.819  0.00  0.00    +0.000 C 
BRANCH  13  15
ATOM     14  C   UNL     1       6.800   4.646  14.863  0.00  0.00    +0.000 C 
ATOM     15  O   UNL     1       7.350   5.666  15.667  0.00  0.00    +0.000 OA
ENDBRANCH  13  15
ENDBRANCH  12  13
ENDBRANCH  11  12
ENDBRANCH  10  11
ENDBRANCH   1  10
BRANCH   1  16
ATOM     16  C   UNL     1       2.632   5.355  17.950  0.00  0.00    +0.000 C 
BRANCH  16  17
ATOM     17  N   UNL     1       3.251   6.573  18.494  0.00  0.00    +0.000 NA
ATOM     18  H   UNL     1       4.260   6.591  18.232  0.00  0.00    +0.000 HD
BRANCH  17  19
ATOM     19  C   UNL     1       2.686   7.792  17.910  0.00  0.00    +0.000 C 
BRANCH  19  20
ATOM     20  C   UNL     1       1.835   8.467  18.954  0.00  0.00    +0.000 A 
ATOM     21  C   UNL     1       1.779   7.975  20.267  0.00  0.00    +0.000 A 
ATOM     22  C   UNL     1       0.952   8.585  21.215  0.00  0.00    +0.000 A 
ATOM     23  C   UNL     1       0.168   9.704  20.862  0.00  0.00    +0.000 A 
ATOM     24  C   UNL     1       0.233  10.194  19.552  0.00  0.00    +0.000 A 
ATOM     25  C   UNL     1       1.057   9.582  18.605  0.00  0.00    +0.000 A 
BRANCH  23  26
ATOM     26  O   UNL     1      -0.656  10.327  21.744  0.00  0.00    +0.000 OA
ATOM     27  C   UNL     1      -0.682  10.110  23.105  0.00  0.00    +0.000 C 
ENDBRANCH  23  26
ENDBRANCH  19  20
ENDBRANCH  17  19
ENDBRANCH  16  17
ENDBRANCH   1  16
TORSDOF 12
ENDMDL
MODEL 2
REMARK VINA RESULT:      -6.5      1.593      4.811
REMARK  Name = 
REMARK  14 active torsions:
REMARK  status: ('A' for Active; 'I' for Inactive)
REMARK    1  A    between atoms: C_1  and  O_2
REMARK    2  A    between atoms: O_2  and  C_3
REMARK    3  A    between atoms: C_3  and  C_4
REMARK    4  A    between atoms: C_4  and  O_5
REMARK    5  A    between atoms: O_5  and  C_6
REMARK    6  A    between atoms: C_6  and  C_7
REMARK    7  A    between atoms: C_7  and  C_8
REMARK    8  A    between atoms: C_8  and  N_9
REMARK    9  A    between atoms: N_9  and  C_10
REMARK   10  A    between atoms: C_10  and  C_11
REMARK   11  A    between atoms: C_14  and  O_15
REMARK   12  A    between atoms: O_15  and  C_16
REMARK   13  A    between atoms: C_20  and  O_21
REMARK   14  A    between atoms: C_22  and  O_23
REMARK                            x       y       z     vdW  Elec       q    Type
REMARK                         _______ _______ _______ _____ _____    ______ ____
ROOT
ATOM      1  C   UNL     1       5.251   4.612  17.518  0.00  0.00    +0.000 C 
ATOM      2  C   UNL     1       6.816   4.563  17.570  0.00  0.00    +0.000 C 
ATOM      3  C   UNL     1       7.300   4.485  16.123  0.00  0.00    +0.000 C 
ATOM      4  C   UNL     1       6.176   3.644  15.483  0.00  0.00    +0.000 C 
ATOM      5  C   UNL     1       4.894   4.271  16.033  0.00  0.00    +0.000 C 
ENDROOT
BRANCH   3   6
ATOM      6  O   UNL     1       7.472   5.779  15.586  0.00  0.00    +0.000 OA
ATOM      7  H   UNL     1       7.265   5.797  14.623  0.00  0.00    +0.000 HD
ENDBRANCH   3   6
BRANCH   4   8
ATOM      8  O   UNL     1       6.231   3.574  14.080  0.00  0.00    +0.000 OA
ATOM      9  H   UNL     1       5.534   4.178  13.711  0.00  0.00    +0.000 HD
ENDBRANCH   4   8
BRANCH   1  10
ATOM     10  C   UNL     1       4.681   3.505  18.452  0.00  0.00    +0.000 C 
BRANCH  10  11
ATOM     11  O   UNL     1       3.446   3.032  17.951  0.00  0.00    +0.000 OA
BRANCH  11  12
ATOM     12  C   UNL     1       2.810   2.238  18.931  0.00  0.00    +0.000 C 
BRANCH  12  13
ATOM     13  C   UNL     1       1.298   2.402  18.805  0.00  0.00    +0.000 C 
BRANCH  13  15
ATOM     14  C   UNL     1       1.307   3.037  21.020  0.00  0.00    +0.000 C 
ATOM     15  O   UNL     1       0.861   3.378  19.726  0.00  0.00    +0.000 OA
ENDBRANCH  13  15
ENDBRANCH  12  13
ENDBRANCH  11  12
ENDBRANCH  10  11
ENDBRANCH   1  10
BRANCH   1  16
ATOM     16  C   UNL     1       4.687   5.995  17.988  0.00  0.00    +0.000 C 
BRANCH  16  17
ATOM     17  N   UNL     1       3.218   6.018  18.051  0.00  0.00    +0.000 NA
ATOM     18  H   UNL     1       2.853   5.054  17.892  0.00  0.00    +0.000 HD
BRANCH  17  19
ATOM     19  C   UNL     1       2.724   6.395  19.378  0.00  0.00    +0.000 C 
BRANCH  19  20
ATOM     20  C   UNL     1       2.038   7.732  19.266  0.00  0.00    +0.000 A 
ATOM     21  C   UNL     1       2.012   8.428  18.049  0.00  0.00    +0.000 A 
ATOM     22  C   UNL     1       1.409   9.688  17.969  0.00  0.00    +0.000 A 
ATOM     23  C   UNL     1       0.819  10.269  19.111  0.00  0.00    +0.000 A 
ATOM     24  C   UNL     1       0.844   9.566  20.322  0.00  0.00    +0.000 A 
ATOM     25  C   UNL     1       1.449   8.309  20.401  0.00  0.00    +0.000 A 
BRANCH  23  26
ATOM     26  O   UNL     1       0.229  11.492  19.087  0.00  0.00    +0.000 OA
ATOM     27  C   UNL     1       0.283  12.428  20.098  0.00  0.00    +0.000 C 
ENDBRANCH  23  26
ENDBRANCH  19  20
ENDBRANCH  17  19
ENDBRANCH  16  17
ENDBRANCH   1  16
TORSDOF 12
ENDMDL
MODEL 3
REMARK VINA RESULT:      -6.4      1.018      1.536
REMARK  Name = 
REMARK  14 active torsions:
REMARK  status: ('A' for Active; 'I' for Inactive)
REMARK    1  A    between atoms: C_1  and  O_2
REMARK    2  A    between atoms: O_2  and  C_3
REMARK    3  A    between atoms: C_3  and  C_4
REMARK    4  A    between atoms: C_4  and  O_5
REMARK    5  A    between atoms: O_5  and  C_6
REMARK    6  A    between atoms: C_6  and  C_7
REMARK    7  A    between atoms: C_7  and  C_8
REMARK    8  A    between atoms: C_8  and  N_9
REMARK    9  A    between atoms: N_9  and  C_10
REMARK   10  A    between atoms: C_10  and  C_11
REMARK   11  A    between atoms: C_14  and  O_15
REMARK   12  A    between atoms: O_15  and  C_16
REMARK   13  A    between atoms: C_20  and  O_21
REMARK   14  A    between atoms: C_22  and  O_23
REMARK                            x       y       z     vdW  Elec       q    Type
REMARK                         _______ _______ _______ _____ _____    ______ ____
ROOT
ATOM      1  C   UNL     1       3.729   4.867  18.776  0.00  0.00    +0.000 C 
ATOM      2  C   UNL     1       3.434   3.725  17.745  0.00  0.00    +0.000 C 
ATOM      3  C   UNL     1       2.137   3.053  18.195  0.00  0.00    +0.000 C 
ATOM      4  C   UNL     1       2.264   3.170  19.728  0.00  0.00    +0.000 C 
ATOM      5  C   UNL     1       2.723   4.613  19.946  0.00  0.00    +0.000 C 
ENDROOT
BRANCH   3   6
ATOM      6  O   UNL     1       1.018   3.699  17.627  0.00  0.00    +0.000 OA
ATOM      7  H   UNL     1       0.354   3.048  17.305  0.00  0.00    +0.000 HD
ENDBRANCH   3   6
BRANCH   4   8
ATOM      8  O   UNL     1       1.100   2.819  20.436  0.00  0.00    +0.000 OA
ATOM      9  H   UNL     1       0.560   2.214  19.864  0.00  0.00    +0.000 HD
ENDBRANCH   4   8
BRANCH   1  10
ATOM     10  C   UNL     1       5.184   4.707  19.303  0.00  0.00    +0.000 C 
BRANCH  10  11
ATOM     11  O   UNL     1       6.002   4.121  18.307  0.00  0.00    +0.000 OA
BRANCH  11  12
ATOM     12  C   UNL     1       7.150   4.918  18.108  0.00  0.00    +0.000 C 
BRANCH  12  13
ATOM     13  C   UNL     1       7.027   5.650  16.775  0.00  0.00    +0.000 C 
BRANCH  13  15
ATOM     14  C   UNL     1       6.628   4.453  14.847  0.00  0.00    +0.000 C 
ATOM     15  O   UNL     1       7.620   4.867  15.761  0.00  0.00    +0.000 OA
ENDBRANCH  13  15
ENDBRANCH  12  13
ENDBRANCH  11  12
ENDBRANCH  10  11
ENDBRANCH   1  10
BRANCH   1  16
ATOM     16  C   UNL     1       3.589   6.291  18.137  0.00  0.00    +0.000 C 
BRANCH  16  17
ATOM     17  N   UNL     1       2.206   6.790  18.161  0.00  0.00    +0.000 NA
ATOM     18  H   UNL     1       1.793   6.610  19.101  0.00  0.00    +0.000 HD
BRANCH  17  19
ATOM     19  C   UNL     1       2.137   8.244  17.989  0.00  0.00    +0.000 C 
BRANCH  19  20
ATOM     20  C   UNL     1       1.578   8.843  19.254  0.00  0.00    +0.000 A 
ATOM     21  C   UNL     1       1.080  10.155  19.270  0.00  0.00    +0.000 A 
ATOM     22  C   UNL     1       0.604  10.714  20.461  0.00  0.00    +0.000 A 
ATOM     23  C   UNL     1       0.616   9.963  21.655  0.00  0.00    +0.000 A 
ATOM     24  C   UNL     1       1.109   8.653  21.631  0.00  0.00    +0.000 A 
ATOM     25  C   UNL     1       1.588   8.097  20.442  0.00  0.00    +0.000 A 
BRANCH  23  26
ATOM     26  O   UNL     1       0.172  10.464  22.837  0.00  0.00    +0.000 OA
ATOM     27  C   UNL     1      -1.130  10.819  23.118  0.00  0.00    +0.000 C 
ENDBRANCH  23  26
ENDBRANCH  19  20
ENDBRANCH  17  19
ENDBRANCH  16  17
ENDBRANCH   1  16
TORSDOF 12
ENDMDL
MODEL 4
REMARK VINA RESULT:      -6.4      1.332      4.638
REMARK  Name = 
REMARK  14 active torsions:
REMARK  status: ('A' for Active; 'I' for Inactive)
REMARK    1  A    between atoms: C_1  and  O_2
REMARK    2  A    between atoms: O_2  and  C_3
REMARK    3  A    between atoms: C_3  and  C_4
REMARK    4  A    between atoms: C_4  and  O_5
REMARK    5  A    between atoms: O_5  and  C_6
REMARK    6  A    between atoms: C_6  and  C_7
REMARK    7  A    between atoms: C_7  and  C_8
REMARK    8  A    between atoms: C_8  and  N_9
REMARK    9  A    between atoms: N_9  and  C_10
REMARK   10  A    between atoms: C_10  and  C_11
REMARK   11  A    between atoms: C_14  and  O_15
REMARK   12  A    between atoms: O_15  and  C_16
REMARK   13  A    between atoms: C_20  and  O_21
REMARK   14  A    between atoms: C_22  and  O_23
REMARK                            x       y       z     vdW  Elec       q    Type
REMARK                         _______ _______ _______ _____ _____    ______ ____
ROOT
ATOM      1  C   UNL     1       4.827   5.148  17.301  0.00  0.00    +0.000 C 
ATOM      2  C   UNL     1       6.313   4.955  17.755  0.00  0.00    +0.000 C 
ATOM      3  C   UNL     1       7.123   4.662  16.492  0.00  0.00    +0.000 C 
ATOM      4  C   UNL     1       6.093   3.863  15.665  0.00  0.00    +0.000 C 
ATOM      5  C   UNL     1       4.803   4.672  15.811  0.00  0.00    +0.000 C 
ENDROOT
BRANCH   3   6
ATOM      6  O   UNL     1       7.578   5.861  15.902  0.00  0.00    +0.000 OA
ATOM      7  H   UNL     1       6.878   6.553  15.913  0.00  0.00    +0.000 HD
ENDBRANCH   3   6
BRANCH   4   8
ATOM      8  O   UNL     1       6.479   3.624  14.334  0.00  0.00    +0.000 OA
ATOM      9  H   UNL     1       7.466   3.523  14.310  0.00  0.00    +0.000 HD
ENDBRANCH   4   8
BRANCH   1  10
ATOM     10  C   UNL     1       3.915   4.220  18.154  0.00  0.00    +0.000 C 
BRANCH  10  11
ATOM     11  O   UNL     1       2.924   3.625  17.338  0.00  0.00    +0.000 OA
BRANCH  11  12
ATOM     12  C   UNL     1       1.769   3.366  18.108  0.00  0.00    +0.000 C 
BRANCH  12  13
ATOM     13  C   UNL     1       2.105   2.345  19.190  0.00  0.00    +0.000 C 
BRANCH  13  15
ATOM     14  C   UNL     1       1.034   3.921  20.485  0.00  0.00    +0.000 C 
ATOM     15  O   UNL     1       1.246   2.540  20.293  0.00  0.00    +0.000 OA
ENDBRANCH  13  15
ENDBRANCH  12  13
ENDBRANCH  11  12
ENDBRANCH  10  11
ENDBRANCH   1  10
BRANCH   1  16
ATOM     16  C   UNL     1       4.339   6.625  17.486  0.00  0.00    +0.000 C 
BRANCH  16  17
ATOM     17  N   UNL     1       3.017   6.712  18.123  0.00  0.00    +0.000 NA
ATOM     18  H   UNL     1       3.138   6.752  19.158  0.00  0.00    +0.000 HD
BRANCH  17  19
ATOM     19  C   UNL     1       2.312   7.948  17.775  0.00  0.00    +0.000 C 
BRANCH  19  20
ATOM     20  C   UNL     1       1.761   8.551  19.041  0.00  0.00    +0.000 A 
ATOM     21  C   UNL     1       1.232   9.851  19.050  0.00  0.00    +0.000 A 
ATOM     22  C   UNL     1       0.764  10.414  20.241  0.00  0.00    +0.000 A 
ATOM     23  C   UNL     1       0.816   9.681  21.445  0.00  0.00    +0.000 A 
ATOM     24  C   UNL     1       1.340   8.383  21.429  0.00  0.00    +0.000 A 
ATOM     25  C   UNL     1       1.810   7.822  20.239  0.00  0.00    +0.000 A 
BRANCH  23  26
ATOM     26  O   UNL     1       0.381  10.187  22.628  0.00  0.00    +0.000 OA
ATOM     27  C   UNL     1      -0.867  10.726  22.858  0.00  0.00    +0.000 C 
ENDBRANCH  23  26
ENDBRANCH  19  20
ENDBRANCH  17  19
ENDBRANCH  16  17
ENDBRANCH   1  16
TORSDOF 12
ENDMDL
MODEL 5
REMARK VINA RESULT:      -6.4      1.470      4.565
REMARK  Name = 
REMARK  14 active torsions:
REMARK  status: ('A' for Active; 'I' for Inactive)
REMARK    1  A    between atoms: C_1  and  O_2
REMARK    2  A    between atoms: O_2  and  C_3
REMARK    3  A    between atoms: C_3  and  C_4
REMARK    4  A    between atoms: C_4  and  O_5
REMARK    5  A    between atoms: O_5  and  C_6
REMARK    6  A    between atoms: C_6  and  C_7
REMARK    7  A    between atoms: C_7  and  C_8
REMARK    8  A    between atoms: C_8  and  N_9
REMARK    9  A    between atoms: N_9  and  C_10
REMARK   10  A    between atoms: C_10  and  C_11
REMARK   11  A    between atoms: C_14  and  O_15
REMARK   12  A    between atoms: O_15  and  C_16
REMARK   13  A    between atoms: C_20  and  O_21
REMARK   14  A    between atoms: C_22  and  O_23
REMARK                            x       y       z     vdW  Elec       q    Type
REMARK                         _______ _______ _______ _____ _____    ______ ____
ROOT
ATOM      1  C   UNL     1       5.113   4.522  17.767  0.00  0.00    +0.000 C 
ATOM      2  C   UNL     1       6.674   4.444  17.881  0.00  0.00    +0.000 C 
ATOM      3  C   UNL     1       7.229   4.704  16.482  0.00  0.00    +0.000 C 
ATOM      4  C   UNL     1       6.138   4.050  15.608  0.00  0.00    +0.000 C 
ATOM      5  C   UNL     1       4.830   4.545  16.229  0.00  0.00    +0.000 C 
ENDROOT
BRANCH   3   6
ATOM      6  O   UNL     1       7.427   6.086  16.274  0.00  0.00    +0.000 OA
ATOM      7  H   UNL     1       7.664   6.544  17.113  0.00  0.00    +0.000 HD
ENDBRANCH   3   6
BRANCH   4   8
ATOM      8  O   UNL     1       6.262   4.313  14.232  0.00  0.00    +0.000 OA
ATOM      9  H   UNL     1       6.530   5.262  14.120  0.00  0.00    +0.000 HD
ENDBRANCH   4   8
BRANCH   1  10
ATOM     10  C   UNL     1       4.498   3.233  18.385  0.00  0.00    +0.000 C 
BRANCH  10  11
ATOM     11  O   UNL     1       3.245   2.957  17.791  0.00  0.00    +0.000 OA
BRANCH  11  12
ATOM     12  C   UNL     1       2.470   2.162  18.665  0.00  0.00    +0.000 C 
BRANCH  12  13
ATOM     13  C   UNL     1       1.086   2.785  18.816  0.00  0.00    +0.000 C 
BRANCH  13  15
ATOM     14  C   UNL     1       1.274   4.286  20.554  0.00  0.00    +0.000 C 
ATOM     15  O   UNL     1       1.227   4.149  19.151  0.00  0.00    +0.000 OA
ENDBRANCH  13  15
ENDBRANCH  12  13
ENDBRANCH  11  12
ENDBRANCH  10  11
ENDBRANCH   1  10
BRANCH   1  16
ATOM     16  C   UNL     1       4.526   5.761  18.523  0.00  0.00    +0.000 C 
BRANCH  16  17
ATOM     17  N   UNL     1       3.206   6.164  18.015  0.00  0.00    +0.000 NA
ATOM     18  H   UNL     1       2.501   6.063  18.776  0.00  0.00    +0.000 HD
BRANCH  17  19
ATOM     19  C   UNL     1       3.162   7.580  17.643  0.00  0.00    +0.000 C 
BRANCH  19  20
ATOM     20  C   UNL     1       2.146   8.268  18.518  0.00  0.00    +0.000 A 
ATOM     21  C   UNL     1       1.344   9.303  18.014  0.00  0.00    +0.000 A 
ATOM     22  C   UNL     1       0.435   9.961  18.849  0.00  0.00    +0.000 A 
ATOM     23  C   UNL     1       0.315   9.590  20.205  0.00  0.00    +0.000 A 
ATOM     24  C   UNL     1       1.114   8.553  20.700  0.00  0.00    +0.000 A 
ATOM     25  C   UNL     1       2.023   7.897  19.866  0.00  0.00    +0.000 A 
BRANCH  23  26
ATOM     26  O   UNL     1      -0.547  10.204  21.057  0.00  0.00    +0.000 OA
ATOM     27  C   UNL     1      -0.270  11.331  21.801  0.00  0.00    +0.000 C 
ENDBRANCH  23  26
ENDBRANCH  19  20
ENDBRANCH  17  19
ENDBRANCH  16  17
ENDBRANCH   1  16
TORSDOF 12
ENDMDL
MODEL 6
REMARK VINA RESULT:      -6.4      0.877      1.106
REMARK  Name = 
REMARK  14 active torsions:
REMARK  status: ('A' for Active; 'I' for Inactive)
REMARK    1  A    between atoms: C_1  and  O_2
REMARK    2  A    between atoms: O_2  and  C_3
REMARK    3  A    between atoms: C_3  and  C_4
REMARK    4  A    between atoms: C_4  and  O_5
REMARK    5  A    between atoms: O_5  and  C_6
REMARK    6  A    between atoms: C_6  and  C_7
REMARK    7  A    between atoms: C_7  and  C_8
REMARK    8  A    between atoms: C_8  and  N_9
REMARK    9  A    between atoms: N_9  and  C_10
REMARK   10  A    between atoms: C_10  and  C_11
REMARK   11  A    between atoms: C_14  and  O_15
REMARK   12  A    between atoms: O_15  and  C_16
REMARK   13  A    between atoms: C_20  and  O_21
REMARK   14  A    between atoms: C_22  and  O_23
REMARK                            x       y       z     vdW  Elec       q    Type
REMARK                         _______ _______ _______ _____ _____    ______ ____
ROOT
ATOM      1  C   UNL     1       3.283   3.865  18.850  0.00  0.00    +0.000 C 
ATOM      2  C   UNL     1       2.252   2.702  18.652  0.00  0.00    +0.000 C 
ATOM      3  C   UNL     1       1.499   2.554  19.974  0.00  0.00    +0.000 C 
ATOM      4  C   UNL     1       2.613   2.901  20.984  0.00  0.00    +0.000 C 
ATOM      5  C   UNL     1       3.270   4.147  20.388  0.00  0.00    +0.000 C 
ENDROOT
BRANCH   3   6
ATOM      6  O   UNL     1       0.369   3.400  20.001  0.00  0.00    +0.000 OA
ATOM      7  H   UNL     1      -0.329   3.046  20.599  0.00  0.00    +0.000 HD
ENDBRANCH   3   6
BRANCH   4   8
ATOM      8  O   UNL     1       2.167   3.058  22.309  0.00  0.00    +0.000 OA
ATOM      9  H   UNL     1       1.410   2.434  22.457  0.00  0.00    +0.000 HD
ENDBRANCH   4   8
BRANCH   1  10
ATOM     10  C   UNL     1       4.695   3.362  18.431  0.00  0.00    +0.000 C 
BRANCH  10  11
ATOM     11  O   UNL     1       5.694   4.202  18.975  0.00  0.00    +0.000 OA
BRANCH  11  12
ATOM     12  C   UNL     1       6.549   4.651  17.944  0.00  0.00    +0.000 C 
BRANCH  12  13
ATOM     13  C   UNL     1       7.229   5.944  18.384  0.00  0.00    +0.000 C 
BRANCH  13  15
ATOM     14  C   UNL     1       7.819   8.039  17.629  0.00  0.00    +0.000 C 
ATOM     15  O   UNL     1       7.549   6.710  17.242  0.00  0.00    +0.000 OA
ENDBRANCH  13  15
ENDBRANCH  12  13
ENDBRANCH  11  12
ENDBRANCH  10  11
ENDBRANCH   1  10
BRANCH   1  16
ATOM     16  C   UNL     1       2.930   5.122  17.986  0.00  0.00    +0.000 C 
BRANCH  16  17
ATOM     17  N   UNL     1       3.322   6.383  18.632  0.00  0.00    +0.000 NA
ATOM     18  H   UNL     1       4.350   6.521  18.520  0.00  0.00    +0.000 HD
BRANCH  17  19
ATOM     19  C   UNL     1       2.712   7.550  17.989  0.00  0.00    +0.000 C 
BRANCH  19  20
ATOM     20  C   UNL     1       1.905   8.293  19.023  0.00  0.00    +0.000 A 
ATOM     21  C   UNL     1       1.758   7.785  20.323  0.00  0.00    +0.000 A 
ATOM     22  C   UNL     1       0.971   8.462  21.260  0.00  0.00    +0.000 A 
ATOM     23  C   UNL     1       0.321   9.664  20.909  0.00  0.00    +0.000 A 
ATOM     24  C   UNL     1       0.477  10.168  19.612  0.00  0.00    +0.000 A 
ATOM     25  C   UNL     1       1.260   9.490  18.676  0.00  0.00    +0.000 A 
BRANCH  23  26
ATOM     26  O   UNL     1      -0.460  10.354  21.780  0.00  0.00    +0.000 OA
ATOM     27  C   UNL     1      -0.682  10.015  23.098  0.00  0.00    +0.000 C 
ENDBRANCH  23  26
ENDBRANCH  19  20
ENDBRANCH  17  19
ENDBRANCH  16  17
ENDBRANCH   1  16
TORSDOF 12
ENDMDL
MODEL 7
REMARK VINA RESULT:      -6.4      1.457      4.646
REMARK  Name = 
REMARK  14 active torsions:
REMARK  status: ('A' for Active; 'I' for Inactive)
REMARK    1  A    between atoms: C_1  and  O_2
REMARK    2  A    between atoms: O_2  and  C_3
REMARK    3  A    between atoms: C_3  and  C_4
REMARK    4  A    between atoms: C_4  and  O_5
REMARK    5  A    between atoms: O_5  and  C_6
REMARK    6  A    between atoms: C_6  and  C_7
REMARK    7  A    between atoms: C_7  and  C_8
REMARK    8  A    between atoms: C_8  and  N_9
REMARK    9  A    between atoms: N_9  and  C_10
REMARK   10  A    between atoms: C_10  and  C_11
REMARK   11  A    between atoms: C_14  and  O_15
REMARK   12  A    between atoms: O_15  and  C_16
REMARK   13  A    between atoms: C_20  and  O_21
REMARK   14  A    between atoms: C_22  and  O_23
REMARK                            x       y       z     vdW  Elec       q    Type
REMARK                         _______ _______ _______ _____ _____    ______ ____
ROOT
ATOM      1  C   UNL     1       4.904   5.459  16.958  0.00  0.00    +0.000 C 
ATOM      2  C   UNL     1       6.208   5.330  17.817  0.00  0.00    +0.000 C 
ATOM      3  C   UNL     1       7.380   5.610  16.878  0.00  0.00    +0.000 C 
ATOM      4  C   UNL     1       6.847   5.013  15.558  0.00  0.00    +0.000 C 
ATOM      5  C   UNL     1       5.410   5.531  15.480  0.00  0.00    +0.000 C 
ENDROOT
BRANCH   3   6
ATOM      6  O   UNL     1       7.674   6.991  16.845  0.00  0.00    +0.000 OA
ATOM      7  H   UNL     1       6.872   7.523  16.637  0.00  0.00    +0.000 HD
ENDBRANCH   3   6
BRANCH   4   8
ATOM      8  O   UNL     1       7.631   5.308  14.429  0.00  0.00    +0.000 OA
ATOM      9  H   UNL     1       7.049   5.738  13.750  0.00  0.00    +0.000 HD
ENDBRANCH   4   8
BRANCH   1  10
ATOM     10  C   UNL     1       4.048   4.173  17.148  0.00  0.00    +0.000 C 
BRANCH  10  11
ATOM     11  O   UNL     1       4.402   3.524  18.354  0.00  0.00    +0.000 OA
BRANCH  11  12
ATOM     12  C   UNL     1       3.285   2.825  18.862  0.00  0.00    +0.000 C 
BRANCH  12  13
ATOM     13  C   UNL     1       2.277   2.605  17.738  0.00  0.00    +0.000 C 
BRANCH  13  15
ATOM     14  C   UNL     1       1.044   3.228  19.582  0.00  0.00    +0.000 C 
ATOM     15  O   UNL     1       0.972   2.786  18.245  0.00  0.00    +0.000 OA
ENDBRANCH  13  15
ENDBRANCH  12  13
ENDBRANCH  11  12
ENDBRANCH  10  11
ENDBRANCH   1  10
BRANCH   1  16
ATOM     16  C   UNL     1       4.039   6.695  17.378  0.00  0.00    +0.000 C 
BRANCH  16  17
ATOM     17  N   UNL     1       2.783   6.312  18.038  0.00  0.00    +0.000 NA
ATOM     18  H   UNL     1       2.646   5.282  17.943  0.00  0.00    +0.000 HD
BRANCH  17  19
ATOM     19  C   UNL     1       2.816   6.558  19.482  0.00  0.00    +0.000 C 
BRANCH  19  20
ATOM     20  C   UNL     1       1.907   7.721  19.785  0.00  0.00    +0.000 A 
ATOM     21  C   UNL     1       1.673   8.721  18.829  0.00  0.00    +0.000 A 
ATOM     22  C   UNL     1       0.861   9.817  19.139  0.00  0.00    +0.000 A 
ATOM     23  C   UNL     1       0.267   9.926  20.414  0.00  0.00    +0.000 A 
ATOM     24  C   UNL     1       0.499   8.922  21.361  0.00  0.00    +0.000 A 
ATOM     25  C   UNL     1       1.312   7.829  21.052  0.00  0.00    +0.000 A 
BRANCH  23  26
ATOM     26  O   UNL     1      -0.523  10.974  20.764  0.00  0.00    +0.000 OA
ATOM     27  C   UNL     1      -0.663  11.479  22.040  0.00  0.00    +0.000 C 
ENDBRANCH  23  26
ENDBRANCH  19  20
ENDBRANCH  17  19
ENDBRANCH  16  17
ENDBRANCH   1  16
TORSDOF 12
ENDMDL
MODEL 8
REMARK VINA RESULT:      -6.3      1.078      1.630
REMARK  Name = 
REMARK  14 active torsions:
REMARK  status: ('A' for Active; 'I' for Inactive)
REMARK    1  A    between atoms: C_1  and  O_2
REMARK    2  A    between atoms: O_2  and  C_3
REMARK    3  A    between atoms: C_3  and  C_4
REMARK    4  A    between atoms: C_4  and  O_5
REMARK    5  A    between atoms: O_5  and  C_6
REMARK    6  A    between atoms: C_6  and  C_7
REMARK    7  A    between atoms: C_7  and  C_8
REMARK    8  A    between atoms: C_8  and  N_9
REMARK    9  A    between atoms: N_9  and  C_10
REMARK   10  A    between atoms: C_10  and  C_11
REMARK   11  A    between atoms: C_14  and  O_15
REMARK   12  A    between atoms: O_15  and  C_16
REMARK   13  A    between atoms: C_20  and  O_21
REMARK   14  A    between atoms: C_22  and  O_23
REMARK                            x       y       z     vdW  Elec       q    Type
REMARK                         _______ _______ _______ _____ _____    ______ ____
ROOT
ATOM      1  C   UNL     1       2.840   4.010  18.494  0.00  0.00    +0.000 C 
ATOM      2  C   UNL     1       1.790   2.852  18.400  0.00  0.00    +0.000 C 
ATOM      3  C   UNL     1       1.437   2.463  19.835  0.00  0.00    +0.000 C 
ATOM      4  C   UNL     1       2.790   2.691  20.540  0.00  0.00    +0.000 C 
ATOM      5  C   UNL     1       3.259   4.043  20.000  0.00  0.00    +0.000 C 
ENDROOT
BRANCH   3   6
ATOM      6  O   UNL     1       0.363   3.244  20.313  0.00  0.00    +0.000 OA
ATOM      7  H   UNL     1      -0.258   3.482  19.586  0.00  0.00    +0.000 HD
ENDBRANCH   3   6
BRANCH   4   8
ATOM      8  O   UNL     1       2.733   2.616  21.944  0.00  0.00    +0.000 OA
ATOM      9  H   UNL     1       3.043   1.714  22.219  0.00  0.00    +0.000 HD
ENDBRANCH   4   8
BRANCH   1  10
ATOM     10  C   UNL     1       4.076   3.641  17.623  0.00  0.00    +0.000 C 
BRANCH  10  11
ATOM     11  O   UNL     1       4.637   4.808  17.053  0.00  0.00    +0.000 OA
BRANCH  11  12
ATOM     12  C   UNL     1       5.953   4.985  17.533  0.00  0.00    +0.000 C 
BRANCH  12  13
ATOM     13  C   UNL     1       6.302   6.469  17.508  0.00  0.00    +0.000 C 
BRANCH  13  15
ATOM     14  C   UNL     1       7.830   5.825  19.107  0.00  0.00    +0.000 C 
ATOM     15  O   UNL     1       7.622   6.643  17.977  0.00  0.00    +0.000 OA
ENDBRANCH  13  15
ENDBRANCH  12  13
ENDBRANCH  11  12
ENDBRANCH  10  11
ENDBRANCH   1  10
BRANCH   1  16
ATOM     16  C   UNL     1       2.263   5.374  17.981  0.00  0.00    +0.000 C 
BRANCH  16  17
ATOM     17  N   UNL     1       2.766   6.526  18.744  0.00  0.00    +0.000 NA
ATOM     18  H   UNL     1       3.805   6.563  18.663  0.00  0.00    +0.000 HD
BRANCH  17  19
ATOM     19  C   UNL     1       2.297   7.802  18.197  0.00  0.00    +0.000 C 
BRANCH  19  20
ATOM     20  C   UNL     1       1.631   8.576  19.306  0.00  0.00    +0.000 A 
ATOM     21  C   UNL     1       1.028   9.817  19.056  0.00  0.00    +0.000 A 
ATOM     22  C   UNL     1       0.452  10.545  20.102  0.00  0.00    +0.000 A 
ATOM     23  C   UNL     1       0.468  10.036  21.418  0.00  0.00    +0.000 A 
ATOM     24  C   UNL     1       1.067   8.794  21.659  0.00  0.00    +0.000 A 
ATOM     25  C   UNL     1       1.645   8.069  20.614  0.00  0.00    +0.000 A 
BRANCH  23  26
ATOM     26  O   UNL     1      -0.071  10.708  22.468  0.00  0.00    +0.000 OA
ATOM     27  C   UNL     1      -0.687  11.940  22.399  0.00  0.00    +0.000 C 
ENDBRANCH  23  26
ENDBRANCH  19  20
ENDBRANCH  17  19
ENDBRANCH  16  17
ENDBRANCH   1  16
TORSDOF 12
ENDMDL
MODEL 9
REMARK VINA RESULT:      -6.3      0.887      1.482
REMARK  Name = 
REMARK  14 active torsions:
REMARK  status: ('A' for Active; 'I' for Inactive)
REMARK    1  A    between atoms: C_1  and  O_2
REMARK    2  A    between atoms: O_2  and  C_3
REMARK    3  A    between atoms: C_3  and  C_4
REMARK    4  A    between atoms: C_4  and  O_5
REMARK    5  A    between atoms: O_5  and  C_6
REMARK    6  A    between atoms: C_6  and  C_7
REMARK    7  A    between atoms: C_7  and  C_8
REMARK    8  A    between atoms: C_8  and  N_9
REMARK    9  A    between atoms: N_9  and  C_10
REMARK   10  A    between atoms: C_10  and  C_11
REMARK   11  A    between atoms: C_14  and  O_15
REMARK   12  A    between atoms: O_15  and  C_16
REMARK   13  A    between atoms: C_20  and  O_21
REMARK   14  A    between atoms: C_22  and  O_23
REMARK                            x       y       z     vdW  Elec       q    Type
REMARK                         _______ _______ _______ _____ _____    ______ ____
ROOT
ATOM      1  C   UNL     1       3.644   4.120  18.809  0.00  0.00    +0.000 C 
ATOM      2  C   UNL     1       3.032   2.747  18.368  0.00  0.00    +0.000 C 
ATOM      3  C   UNL     1       2.080   2.313  19.482  0.00  0.00    +0.000 C 
ATOM      4  C   UNL     1       2.813   2.864  20.723  0.00  0.00    +0.000 C 
ATOM      5  C   UNL     1       3.223   4.277  20.307  0.00  0.00    +0.000 C 
ENDROOT
BRANCH   3   6
ATOM      6  O   UNL     1       0.786   2.832  19.261  0.00  0.00    +0.000 OA
ATOM      7  H   UNL     1       0.091   2.183  19.517  0.00  0.00    +0.000 HD
ENDBRANCH   3   6
BRANCH   4   8
ATOM      8  O   UNL     1       2.066   2.803  21.913  0.00  0.00    +0.000 OA
ATOM      9  H   UNL     1       2.610   3.202  22.642  0.00  0.00    +0.000 HD
ENDBRANCH   4   8
BRANCH   1  10
ATOM     10  C   UNL     1       5.195   4.033  18.716  0.00  0.00    +0.000 C 
BRANCH  10  11
ATOM     11  O   UNL     1       5.784   5.173  19.312  0.00  0.00    +0.000 OA
BRANCH  11  12
ATOM     12  C   UNL     1       7.043   5.420  18.720  0.00  0.00    +0.000 C 
BRANCH  12  13
ATOM     13  C   UNL     1       6.922   5.275  17.206  0.00  0.00    +0.000 C 
BRANCH  13  15
ATOM     14  C   UNL     1       7.535   7.475  17.509  0.00  0.00    +0.000 C 
ATOM     15  O   UNL     1       7.489   6.410  16.586  0.00  0.00    +0.000 OA
ENDBRANCH  13  15
ENDBRANCH  12  13
ENDBRANCH  11  12
ENDBRANCH  10  11
ENDBRANCH   1  10
BRANCH   1  16
ATOM     16  C   UNL     1       3.160   5.302  17.903  0.00  0.00    +0.000 C 
BRANCH  16  17
ATOM     17  N   UNL     1       3.552   6.618  18.427  0.00  0.00    +0.000 NA
ATOM     18  H   UNL     1       4.584   6.732  18.330  0.00  0.00    +0.000 HD
BRANCH  17  19
ATOM     19  C   UNL     1       2.974   7.720  17.653  0.00  0.00    +0.000 C 
BRANCH  19  20
ATOM     20  C   UNL     1       1.968   8.431  18.521  0.00  0.00    +0.000 A 
ATOM     21  C   UNL     1       1.156   9.448  17.997  0.00  0.00    +0.000 A 
ATOM     22  C   UNL     1       0.256  10.129  18.824  0.00  0.00    +0.000 A 
ATOM     23  C   UNL     1       0.155   9.798  20.191  0.00  0.00    +0.000 A 
ATOM     24  C   UNL     1       0.964   8.779  20.706  0.00  0.00    +0.000 A 
ATOM     25  C   UNL     1       1.864   8.101  19.881  0.00  0.00    +0.000 A 
BRANCH  23  26
ATOM     26  O   UNL     1      -0.697  10.436  21.036  0.00  0.00    +0.000 OA
ATOM     27  C   UNL     1      -0.336  11.369  21.984  0.00  0.00    +0.000 C 
ENDBRANCH  23  26
ENDBRANCH  19  20
ENDBRANCH  17  19
ENDBRANCH  16  17
ENDBRANCH   1  16
TORSDOF 12
ENDMDL
