MODEL 1
REMARK VINA RESULT:      -8.1      0.000      0.000
REMARK  Name = 
REMARK  11 active torsions:
REMARK  status: ('A' for Active; 'I' for Inactive)
REMARK    1  A    between atoms: C_1  and  C_2
REMARK    2  A    between atoms: C_2  and  N_3
REMARK    3  A    between atoms: C_4  and  C_5
REMARK    4  A    between atoms: C_5  and  O_6
REMARK    5  A    between atoms: C_5  and  C_7
REMARK    6  A    between atoms: C_5  and  C_13
REMARK    7  A    between atoms: C_22  and  O_23
REMARK    8  A    between atoms: O_23  and  C_24
REMARK    9  A    between atoms: C_24  and  C_25
REMARK   10  A    between atoms: C_25  and  C_26
REMARK   11  A    between atoms: C_26  and  O_27
REMARK                            x       y       z     vdW  Elec       q    Type
REMARK                         _______ _______ _______ _____ _____    ______ ____
ROOT
ATOM      1  N   UNL     1       5.709   5.943  17.354  0.00  0.00    +0.000 N 
ATOM      2  C   UNL     1       4.452   5.415  17.625  0.00  0.00    +0.000 A 
ATOM      3  N   UNL     1       4.080   4.650  16.599  0.00  0.00    +0.000 NA
ATOM      4  C   UNL     1       5.116   4.624  15.701  0.00  0.00    +0.000 A 
ATOM      5  C   UNL     1       5.238   3.952  14.488  0.00  0.00    +0.000 A 
ATOM      6  C   UNL     1       6.446   4.129  13.833  0.00  0.00    +0.000 A 
ATOM      7  N   UNL     1       7.454   4.922  14.264  0.00  0.00    +0.000 NA
ATOM      8  C   UNL     1       7.318   5.583  15.427  0.00  0.00    +0.000 A 
ATOM      9  C   UNL     1       6.149   5.420  16.156  0.00  0.00    +0.000 A 
ENDROOT
BRANCH   1  11
ATOM     10  C   UNL     1       7.729   6.346  18.685  0.00  0.00    +0.000 C 
ATOM     11  C   UNL     1       6.486   6.954  18.053  0.00  0.00    +0.000 C 
ENDBRANCH   1  11
BRANCH   2  12
ATOM     12  C   UNL     1       3.565   5.633  18.897  0.00  0.00    +0.000 C 
BRANCH  12  13
ATOM     13  C   UNL     1       2.832   6.995  18.863  0.00  0.00    +0.000 A 
ATOM     14  C   UNL     1       2.100   7.441  19.975  0.00  0.00    +0.000 A 
ATOM     15  C   UNL     1       1.378   8.637  19.938  0.00  0.00    +0.000 A 
ATOM     16  C   UNL     1       1.373   9.421  18.789  0.00  0.00    +0.000 A 
ATOM     17  C   UNL     1       2.117   9.024  17.684  0.00  0.00    +0.000 A 
ATOM     18  C   UNL     1       2.853   7.837  17.728  0.00  0.00    +0.000 A 
ENDBRANCH  12  13
BRANCH  12  19
ATOM     19  C   UNL     1       2.634   4.440  19.202  0.00  0.00    +0.000 A 
ATOM     20  C   UNL     1       2.837   3.653  20.356  0.00  0.00    +0.000 A 
ATOM     21  C   UNL     1       2.147   2.451  20.552  0.00  0.00    +0.000 A 
ATOM     22  C   UNL     1       1.211   2.023  19.617  0.00  0.00    +0.000 A 
ATOM     23  C   UNL     1       0.912   2.835  18.529  0.00  0.00    +0.000 A 
ATOM     24  C   UNL     1       1.600   4.038  18.335  0.00  0.00    +0.000 A 
ENDBRANCH  12  19
BRANCH  12  25
ATOM     25  O   UNL     1       4.482   5.653  20.009  0.00  0.00    +0.000 OA
ATOM     26  H   UNL     1       4.852   4.760  20.061  0.00  0.00    +0.000 HD
ENDBRANCH  12  25
ENDBRANCH   2  12
BRANCH   6  27
ATOM     27  O   UNL     1       6.604   3.463  12.634  0.00  0.00    +0.000 OA
BRANCH  27  28
ATOM     28  C   UNL     1       5.376   3.383  11.903  0.00  0.00    +0.000 C 
BRANCH  28  29
ATOM     29  C   UNL     1       5.231   1.982  11.330  0.00  0.00    +0.000 C 
BRANCH  29  30
ATOM     30  C   UNL     1       6.586   1.326  11.103  0.00  0.00    +0.000 C 
BRANCH  30  31
ATOM     31  O   UNL     1       6.518  -0.053  11.452  0.00  0.00    +0.000 OA
ATOM     32  H   UNL     1       7.132  -0.199  12.191  0.00  0.00    +0.000 HD
ENDBRANCH  30  31
ENDBRANCH  29  30
ENDBRANCH  28  29
ENDBRANCH  27  28
ENDBRANCH   6  27
TORSDOF 10
ENDMDL
MODEL 2
REMARK VINA RESULT:      -8.0      0.462      1.335
REMARK  Name = 
REMARK  11 active torsions:
REMARK  status: ('A' for Active; 'I' for Inactive)
REMARK    1  A    between atoms: C_1  and  C_2
REMARK    2  A    between atoms: C_2  and  N_3
REMARK    3  A    between atoms: C_4  and  C_5
REMARK    4  A    between atoms: C_5  and  O_6
REMARK    5  A    between atoms: C_5  and  C_7
REMARK    6  A    between atoms: C_5  and  C_13
REMARK    7  A    between atoms: C_22  and  O_23
REMARK    8  A    between atoms: O_23  and  C_24
REMARK    9  A    between atoms: C_24  and  C_25
REMARK   10  A    between atoms: C_25  and  C_26
REMARK   11  A    between atoms: C_26  and  O_27
REMARK                            x       y       z     vdW  Elec       q    Type
REMARK                         _______ _______ _______ _____ _____    ______ ____
ROOT
ATOM      1  N   UNL     1       5.947   5.855  17.377  0.00  0.00    +0.000 N 
ATOM      2  C   UNL     1       4.654   5.371  17.541  0.00  0.00    +0.000 A 
ATOM      3  N   UNL     1       4.272   4.782  16.409  0.00  0.00    +0.000 NA
ATOM      4  C   UNL     1       5.333   4.820  15.541  0.00  0.00    +0.000 A 
ATOM      5  C   UNL     1       5.454   4.318  14.247  0.00  0.00    +0.000 A 
ATOM      6  C   UNL     1       6.690   4.512  13.652  0.00  0.00    +0.000 A 
ATOM      7  N   UNL     1       7.727   5.175  14.213  0.00  0.00    +0.000 NA
ATOM      8  C   UNL     1       7.592   5.673  15.455  0.00  0.00    +0.000 A 
ATOM      9  C   UNL     1       6.394   5.480  16.127  0.00  0.00    +0.000 A 
ENDROOT
BRANCH   1  11
ATOM     10  C   UNL     1       7.798   5.897  18.984  0.00  0.00    +0.000 C 
ATOM     11  C   UNL     1       6.757   6.710  18.230  0.00  0.00    +0.000 C 
ENDBRANCH   1  11
BRANCH   2  12
ATOM     12  C   UNL     1       3.742   5.462  18.811  0.00  0.00    +0.000 C 
BRANCH  12  13
ATOM     13  C   UNL     1       2.917   6.771  18.837  0.00  0.00    +0.000 A 
ATOM     14  C   UNL     1       2.879   7.613  17.715  0.00  0.00    +0.000 A 
ATOM     15  C   UNL     1       2.193   8.831  17.743  0.00  0.00    +0.000 A 
ATOM     16  C   UNL     1       1.523   9.235  18.894  0.00  0.00    +0.000 A 
ATOM     17  C   UNL     1       1.514   8.406  20.009  0.00  0.00    +0.000 A 
ATOM     18  C   UNL     1       2.184   7.180  19.974  0.00  0.00    +0.000 A 
ENDBRANCH  12  13
BRANCH  12  19
ATOM     19  C   UNL     1       2.892   4.194  19.042  0.00  0.00    +0.000 A 
ATOM     20  C   UNL     1       1.809   3.897  18.188  0.00  0.00    +0.000 A 
ATOM     21  C   UNL     1       0.898   2.876  18.489  0.00  0.00    +0.000 A 
ATOM     22  C   UNL     1       1.069   2.105  19.633  0.00  0.00    +0.000 A 
ATOM     23  C   UNL     1       2.190   2.304  20.431  0.00  0.00    +0.000 A 
ATOM     24  C   UNL     1       3.101   3.323  20.127  0.00  0.00    +0.000 A 
ENDBRANCH  12  19
BRANCH  12  25
ATOM     25  O   UNL     1       4.645   5.486  19.934  0.00  0.00    +0.000 OA
ATOM     26  H   UNL     1       5.399   4.936  19.679  0.00  0.00    +0.000 HD
ENDBRANCH  12  25
ENDBRANCH   2  12
BRANCH   6  27
ATOM     27  O   UNL     1       6.848   4.013  12.374  0.00  0.00    +0.000 OA
BRANCH  27  28
ATOM     28  C   UNL     1       5.994   2.891  12.132  0.00  0.00    +0.000 C 
BRANCH  28  29
ATOM     29  C   UNL     1       6.783   1.817  11.399  0.00  0.00    +0.000 C 
BRANCH  29  30
ATOM     30  C   UNL     1       5.896   0.649  10.991  0.00  0.00    +0.000 C 
BRANCH  30  31
ATOM     31  O   UNL     1       6.388  -0.555  11.572  0.00  0.00    +0.000 OA
ATOM     32  H   UNL     1       6.595  -0.368  12.503  0.00  0.00    +0.000 HD
ENDBRANCH  30  31
ENDBRANCH  29  30
ENDBRANCH  28  29
ENDBRANCH  27  28
ENDBRANCH   6  27
TORSDOF 10
ENDMDL
MODEL 3
REMARK VINA RESULT:      -7.9      1.033      1.285
REMARK  Name = 
REMARK  11 active torsions:
REMARK  status: ('A' for Active; 'I' for Inactive)
REMARK    1  A    between atoms: C_1  and  C_2
REMARK    2  A    between atoms: C_2  and  N_3
REMARK    3  A    between atoms: C_4  and  C_5
REMARK    4  A    between atoms: C_5  and  O_6
REMARK    5  A    between atoms: C_5  and  C_7
REMARK    6  A    between atoms: C_5  and  C_13
REMARK    7  A    between atoms: C_22  and  O_23
REMARK    8  A    between atoms: O_23  and  C_24
REMARK    9  A    between atoms: C_24  and  C_25
REMARK   10  A    between atoms: C_25  and  C_26
REMARK   11  A    between atoms: C_26  and  O_27
REMARK                            x       y       z     vdW  Elec       q    Type
REMARK                         _______ _______ _______ _____ _____    ______ ____
ROOT
ATOM      1  N   UNL     1       5.754   5.891  17.319  0.00  0.00    +0.000 N 
ATOM      2  C   UNL     1       4.486   5.385  17.578  0.00  0.00    +0.000 A 
ATOM      3  N   UNL     1       4.084   4.680  16.521  0.00  0.00    +0.000 NA
ATOM      4  C   UNL     1       5.110   4.668  15.613  0.00  0.00    +0.000 A 
ATOM      5  C   UNL     1       5.201   4.051  14.368  0.00  0.00    +0.000 A 
ATOM      6  C   UNL     1       6.407   4.227  13.708  0.00  0.00    +0.000 A 
ATOM      7  N   UNL     1       7.440   4.971  14.165  0.00  0.00    +0.000 NA
ATOM      8  C   UNL     1       7.334   5.580  15.359  0.00  0.00    +0.000 A 
ATOM      9  C   UNL     1       6.168   5.414  16.093  0.00  0.00    +0.000 A 
ENDROOT
BRANCH   1  11
ATOM     10  C   UNL     1       7.705   6.149  18.781  0.00  0.00    +0.000 C 
ATOM     11  C   UNL     1       6.565   6.847  18.056  0.00  0.00    +0.000 C 
ENDBRANCH   1  11
BRANCH   2  12
ATOM     12  C   UNL     1       3.618   5.566  18.870  0.00  0.00    +0.000 C 
BRANCH  12  13
ATOM     13  C   UNL     1       2.877   6.924  18.880  0.00  0.00    +0.000 A 
ATOM     14  C   UNL     1       2.162   7.338  20.015  0.00  0.00    +0.000 A 
ATOM     15  C   UNL     1       1.432   8.531  20.019  0.00  0.00    +0.000 A 
ATOM     16  C   UNL     1       1.403   9.342  18.889  0.00  0.00    +0.000 A 
ATOM     17  C   UNL     1       2.130   8.976  17.762  0.00  0.00    +0.000 A 
ATOM     18  C   UNL     1       2.874   7.793  17.765  0.00  0.00    +0.000 A 
ENDBRANCH  12  13
BRANCH  12  19
ATOM     19  C   UNL     1       2.699   4.361  19.159  0.00  0.00    +0.000 A 
ATOM     20  C   UNL     1       3.027   3.442  20.179  0.00  0.00    +0.000 A 
ATOM     21  C   UNL     1       2.332   2.236  20.328  0.00  0.00    +0.000 A 
ATOM     22  C   UNL     1       1.269   1.934  19.485  0.00  0.00    +0.000 A 
ATOM     23  C   UNL     1       0.855   2.872  18.545  0.00  0.00    +0.000 A 
ATOM     24  C   UNL     1       1.548   4.078  18.398  0.00  0.00    +0.000 A 
ENDBRANCH  12  19
BRANCH  12  25
ATOM     25  O   UNL     1       4.552   5.564  19.967  0.00  0.00    +0.000 OA
ATOM     26  H   UNL     1       4.423   4.720  20.422  0.00  0.00    +0.000 HD
ENDBRANCH  12  25
ENDBRANCH   2  12
BRANCH   6  27
ATOM     27  O   UNL     1       6.535   3.615  12.477  0.00  0.00    +0.000 OA
BRANCH  27  28
ATOM     28  C   UNL     1       5.335   2.936  12.093  0.00  0.00    +0.000 C 
BRANCH  28  29
ATOM     29  C   UNL     1       4.566   3.809  11.113  0.00  0.00    +0.000 C 
BRANCH  29  30
ATOM     30  C   UNL     1       3.329   3.098  10.581  0.00  0.00    +0.000 C 
BRANCH  30  31
ATOM     31  O   UNL     1       2.969   3.643   9.315  0.00  0.00    +0.000 OA
ATOM     32  H   UNL     1       3.439   4.487   9.215  0.00  0.00    +0.000 HD
ENDBRANCH  30  31
ENDBRANCH  29  30
ENDBRANCH  28  29
ENDBRANCH  27  28
ENDBRANCH   6  27
TORSDOF 10
ENDMDL
MODEL 4
REMARK VINA RESULT:      -7.7      0.996      1.779
REMARK  Name = 
REMARK  11 active torsions:
REMARK  status: ('A' for Active; 'I' for Inactive)
REMARK    1  A    between atoms: C_1  and  C_2
REMARK    2  A    between atoms: C_2  and  N_3
REMARK    3  A    between atoms: C_4  and  C_5
REMARK    4  A    between atoms: C_5  and  O_6
REMARK    5  A    between atoms: C_5  and  C_7
REMARK    6  A    between atoms: C_5  and  C_13
REMARK    7  A    between atoms: C_22  and  O_23
REMARK    8  A    between atoms: O_23  and  C_24
REMARK    9  A    between atoms: C_24  and  C_25
REMARK   10  A    between atoms: C_25  and  C_26
REMARK   11  A    between atoms: C_26  and  O_27
REMARK                            x       y       z     vdW  Elec       q    Type
REMARK                         _______ _______ _______ _____ _____    ______ ____
ROOT
ATOM      1  N   UNL     1       5.811   5.833  17.415  0.00  0.00    +0.000 N 
ATOM      2  C   UNL     1       4.525   5.350  17.628  0.00  0.00    +0.000 A 
ATOM      3  N   UNL     1       4.130   4.693  16.538  0.00  0.00    +0.000 NA
ATOM      4  C   UNL     1       5.176   4.688  15.652  0.00  0.00    +0.000 A 
ATOM      5  C   UNL     1       5.280   4.113  14.388  0.00  0.00    +0.000 A 
ATOM      6  C   UNL     1       6.505   4.281  13.762  0.00  0.00    +0.000 A 
ATOM      7  N   UNL     1       7.545   4.982  14.267  0.00  0.00    +0.000 NA
ATOM      8  C   UNL     1       7.427   5.551  15.480  0.00  0.00    +0.000 A 
ATOM      9  C   UNL     1       6.241   5.389  16.182  0.00  0.00    +0.000 A 
ENDROOT
BRANCH   1  11
ATOM     10  C   UNL     1       7.710   5.984  18.959  0.00  0.00    +0.000 C 
ATOM     11  C   UNL     1       6.628   6.741  18.203  0.00  0.00    +0.000 C 
ENDBRANCH   1  11
BRANCH   2  12
ATOM     12  C   UNL     1       3.633   5.508  18.906  0.00  0.00    +0.000 C 
BRANCH  12  13
ATOM     13  C   UNL     1       2.839   6.836  18.895  0.00  0.00    +0.000 A 
ATOM     14  C   UNL     1       2.848   7.664  17.762  0.00  0.00    +0.000 A 
ATOM     15  C   UNL     1       2.192   8.899  17.758  0.00  0.00    +0.000 A 
ATOM     16  C   UNL     1       1.503   9.333  18.887  0.00  0.00    +0.000 A 
ATOM     17  C   UNL     1       1.446   8.518  20.011  0.00  0.00    +0.000 A 
ATOM     18  C   UNL     1       2.088   7.277  20.008  0.00  0.00    +0.000 A 
ENDBRANCH  12  13
BRANCH  12  19
ATOM     19  C   UNL     1       2.757   4.269  19.193  0.00  0.00    +0.000 A 
ATOM     20  C   UNL     1       1.754   3.878  18.281  0.00  0.00    +0.000 A 
ATOM     21  C   UNL     1       0.813   2.894  18.605  0.00  0.00    +0.000 A 
ATOM     22  C   UNL     1       0.873   2.251  19.837  0.00  0.00    +0.000 A 
ATOM     23  C   UNL     1       1.918   2.539  20.708  0.00  0.00    +0.000 A 
ATOM     24  C   UNL     1       2.860   3.521  20.381  0.00  0.00    +0.000 A 
ENDBRANCH  12  19
BRANCH  12  25
ATOM     25  O   UNL     1       4.551   5.551  20.016  0.00  0.00    +0.000 OA
ATOM     26  H   UNL     1       4.407   6.407  20.443  0.00  0.00    +0.000 HD
ENDBRANCH  12  25
ENDBRANCH   2  12
BRANCH   6  27
ATOM     27  O   UNL     1       6.646   3.710  12.513  0.00  0.00    +0.000 OA
BRANCH  27  28
ATOM     28  C   UNL     1       5.551   2.844  12.197  0.00  0.00    +0.000 C 
BRANCH  28  29
ATOM     29  C   UNL     1       4.959   3.263  10.860  0.00  0.00    +0.000 C 
BRANCH  29  30
ATOM     30  C   UNL     1       3.437   3.271  10.898  0.00  0.00    +0.000 C 
BRANCH  30  31
ATOM     31  O   UNL     1       2.931   3.912   9.732  0.00  0.00    +0.000 OA
ATOM     32  H   UNL     1       2.871   3.241   9.031  0.00  0.00    +0.000 HD
ENDBRANCH  30  31
ENDBRANCH  29  30
ENDBRANCH  28  29
ENDBRANCH  27  28
ENDBRANCH   6  27
TORSDOF 10
ENDMDL
MODEL 5
REMARK VINA RESULT:      -7.7      3.618      7.779
REMARK  Name = 
REMARK  11 active torsions:
REMARK  status: ('A' for Active; 'I' for Inactive)
REMARK    1  A    between atoms: C_1  and  C_2
REMARK    2  A    between atoms: C_2  and  N_3
REMARK    3  A    between atoms: C_4  and  C_5
REMARK    4  A    between atoms: C_5  and  O_6
REMARK    5  A    between atoms: C_5  and  C_7
REMARK    6  A    between atoms: C_5  and  C_13
REMARK    7  A    between atoms: C_22  and  O_23
REMARK    8  A    between atoms: O_23  and  C_24
REMARK    9  A    between atoms: C_24  and  C_25
REMARK   10  A    between atoms: C_25  and  C_26
REMARK   11  A    between atoms: C_26  and  O_27
REMARK                            x       y       z     vdW  Elec       q    Type
REMARK                         _______ _______ _______ _____ _____    ______ ____
ROOT
ATOM      1  N   UNL     1       2.588   6.715  19.608  0.00  0.00    +0.000 N 
ATOM      2  C   UNL     1       3.198   6.742  18.359  0.00  0.00    +0.000 A 
ATOM      3  N   UNL     1       2.772   7.819  17.699  0.00  0.00    +0.000 NA
ATOM      4  C   UNL     1       1.949   8.524  18.539  0.00  0.00    +0.000 A 
ATOM      5  C   UNL     1       1.278   9.727  18.338  0.00  0.00    +0.000 A 
ATOM      6  C   UNL     1       0.536  10.177  19.419  0.00  0.00    +0.000 A 
ATOM      7  N   UNL     1       0.395   9.519  20.592  0.00  0.00    +0.000 NA
ATOM      8  C   UNL     1       1.031   8.348  20.768  0.00  0.00    +0.000 A 
ATOM      9  C   UNL     1       1.825   7.857  19.741  0.00  0.00    +0.000 A 
ENDROOT
BRANCH   1  11
ATOM     10  C   UNL     1       1.330   4.821  20.525  0.00  0.00    +0.000 C 
ATOM     11  C   UNL     1       2.575   5.688  20.637  0.00  0.00    +0.000 C 
ENDBRANCH   1  11
BRANCH   2  12
ATOM     12  C   UNL     1       4.222   5.719  17.761  0.00  0.00    +0.000 C 
BRANCH  12  13
ATOM     13  C   UNL     1       5.676   6.052  18.173  0.00  0.00    +0.000 A 
ATOM     14  C   UNL     1       6.428   6.989  17.446  0.00  0.00    +0.000 A 
ATOM     15  C   UNL     1       7.764   7.253  17.763  0.00  0.00    +0.000 A 
ATOM     16  C   UNL     1       8.380   6.589  18.819  0.00  0.00    +0.000 A 
ATOM     17  C   UNL     1       7.652   5.682  19.579  0.00  0.00    +0.000 A 
ATOM     18  C   UNL     1       6.311   5.433  19.273  0.00  0.00    +0.000 A 
ENDBRANCH  12  13
BRANCH  12  19
ATOM     19  C   UNL     1       3.832   4.248  18.015  0.00  0.00    +0.000 A 
ATOM     20  C   UNL     1       2.722   3.679  17.354  0.00  0.00    +0.000 A 
ATOM     21  C   UNL     1       2.220   2.423  17.714  0.00  0.00    +0.000 A 
ATOM     22  C   UNL     1       2.837   1.688  18.720  0.00  0.00    +0.000 A 
ATOM     23  C   UNL     1       3.997   2.177  19.310  0.00  0.00    +0.000 A 
ATOM     24  C   UNL     1       4.500   3.432  18.948  0.00  0.00    +0.000 A 
ENDBRANCH  12  19
BRANCH  12  25
ATOM     25  O   UNL     1       4.124   5.865  16.331  0.00  0.00    +0.000 OA
ATOM     26  H   UNL     1       4.617   5.121  15.956  0.00  0.00    +0.000 HD
ENDBRANCH  12  25
ENDBRANCH   2  12
BRANCH   6  27
ATOM     27  O   UNL     1      -0.130  11.376  19.257  0.00  0.00    +0.000 OA
BRANCH  27  28
ATOM     28  C   UNL     1      -1.368  11.398  19.974  0.00  0.00    +0.000 C 
BRANCH  28  29
ATOM     29  C   UNL     1      -2.401  12.159  19.155  0.00  0.00    +0.000 C 
BRANCH  29  30
ATOM     30  C   UNL     1      -2.662  11.484  17.815  0.00  0.00    +0.000 C 
BRANCH  30  31
ATOM     31  O   UNL     1      -1.739  11.969  16.846  0.00  0.00    +0.000 OA
ATOM     32  H   UNL     1      -0.856  11.646  17.094  0.00  0.00    +0.000 HD
ENDBRANCH  30  31
ENDBRANCH  29  30
ENDBRANCH  28  29
ENDBRANCH  27  28
ENDBRANCH   6  27
TORSDOF 10
ENDMDL
MODEL 6
REMARK VINA RESULT:      -7.7      3.595      7.797
REMARK  Name = 
REMARK  11 active torsions:
REMARK  status: ('A' for Active; 'I' for Inactive)
REMARK    1  A    between atoms: C_1  and  C_2
REMARK    2  A    between atoms: C_2  and  N_3
REMARK    3  A    between atoms: C_4  and  C_5
REMARK    4  A    between atoms: C_5  and  O_6
REMARK    5  A    between atoms: C_5  and  C_7
REMARK    6  A    between atoms: C_5  and  C_13
REMARK    7  A    between atoms: C_22  and  O_23
REMARK    8  A    between atoms: O_23  and  C_24
REMARK    9  A    between atoms: C_24  and  C_25
REMARK   10  A    between atoms: C_25  and  C_26
REMARK   11  A    between atoms: C_26  and  O_27
REMARK                            x       y       z     vdW  Elec       q    Type
REMARK                         _______ _______ _______ _____ _____    ______ ____
ROOT
ATOM      1  N   UNL     1       2.635   6.560  19.649  0.00  0.00    +0.000 N 
ATOM      2  C   UNL     1       3.219   6.643  18.391  0.00  0.00    +0.000 A 
ATOM      3  N   UNL     1       2.775   7.744  17.786  0.00  0.00    +0.000 NA
ATOM      4  C   UNL     1       1.966   8.409  18.670  0.00  0.00    +0.000 A 
ATOM      5  C   UNL     1       1.285   9.615  18.533  0.00  0.00    +0.000 A 
ATOM      6  C   UNL     1       0.563  10.016  19.646  0.00  0.00    +0.000 A 
ATOM      7  N   UNL     1       0.448   9.308  20.793  0.00  0.00    +0.000 NA
ATOM      8  C   UNL     1       1.093   8.134  20.907  0.00  0.00    +0.000 A 
ATOM      9  C   UNL     1       1.868   7.691  19.845  0.00  0.00    +0.000 A 
ENDROOT
BRANCH   1  11
ATOM     10  C   UNL     1       1.384   4.647  20.537  0.00  0.00    +0.000 C 
ATOM     11  C   UNL     1       2.646   5.491  20.634  0.00  0.00    +0.000 C 
ENDBRANCH   1  11
BRANCH   2  12
ATOM     12  C   UNL     1       4.236   5.652  17.730  0.00  0.00    +0.000 C 
BRANCH  12  13
ATOM     13  C   UNL     1       5.700   6.005  18.087  0.00  0.00    +0.000 A 
ATOM     14  C   UNL     1       6.333   5.402  19.185  0.00  0.00    +0.000 A 
ATOM     15  C   UNL     1       7.632   5.758  19.561  0.00  0.00    +0.000 A 
ATOM     16  C   UNL     1       8.332   6.724  18.845  0.00  0.00    +0.000 A 
ATOM     17  C   UNL     1       7.745   7.314  17.732  0.00  0.00    +0.000 A 
ATOM     18  C   UNL     1       6.454   6.944  17.346  0.00  0.00    +0.000 A 
ENDBRANCH  12  13
BRANCH  12  19
ATOM     19  C   UNL     1       3.885   4.169  17.972  0.00  0.00    +0.000 A 
ATOM     20  C   UNL     1       2.791   3.577  17.305  0.00  0.00    +0.000 A 
ATOM     21  C   UNL     1       2.322   2.305  17.653  0.00  0.00    +0.000 A 
ATOM     22  C   UNL     1       2.957   1.578  18.654  0.00  0.00    +0.000 A 
ATOM     23  C   UNL     1       4.104   2.092  19.249  0.00  0.00    +0.000 A 
ATOM     24  C   UNL     1       4.574   3.362  18.898  0.00  0.00    +0.000 A 
ENDBRANCH  12  19
BRANCH  12  25
ATOM     25  O   UNL     1       4.075   5.822  16.309  0.00  0.00    +0.000 OA
ATOM     26  H   UNL     1       4.942   6.097  15.976  0.00  0.00    +0.000 HD
ENDBRANCH  12  25
ENDBRANCH   2  12
BRANCH   6  27
ATOM     27  O   UNL     1      -0.112  11.217  19.548  0.00  0.00    +0.000 OA
BRANCH  27  28
ATOM     28  C   UNL     1       0.625  12.292  20.138  0.00  0.00    +0.000 C 
BRANCH  28  29
ATOM     29  C   UNL     1       0.936  13.326  19.068  0.00  0.00    +0.000 C 
BRANCH  29  30
ATOM     30  C   UNL     1      -0.335  13.915  18.471  0.00  0.00    +0.000 C 
BRANCH  30  31
ATOM     31  O   UNL     1      -0.899  12.997  17.540  0.00  0.00    +0.000 OA
ATOM     32  H   UNL     1      -0.167  12.606  17.034  0.00  0.00    +0.000 HD
ENDBRANCH  30  31
ENDBRANCH  29  30
ENDBRANCH  28  29
ENDBRANCH  27  28
ENDBRANCH   6  27
TORSDOF 10
ENDMDL
MODEL 7
REMARK VINA RESULT:      -7.6      3.547      7.685
REMARK  Name = 
REMARK  11 active torsions:
REMARK  status: ('A' for Active; 'I' for Inactive)
REMARK    1  A    between atoms: C_1  and  C_2
REMARK    2  A    between atoms: C_2  and  N_3
REMARK    3  A    between atoms: C_4  and  C_5
REMARK    4  A    between atoms: C_5  and  O_6
REMARK    5  A    between atoms: C_5  and  C_7
REMARK    6  A    between atoms: C_5  and  C_13
REMARK    7  A    between atoms: C_22  and  O_23
REMARK    8  A    between atoms: O_23  and  C_24
REMARK    9  A    between atoms: C_24  and  C_25
REMARK   10  A    between atoms: C_25  and  C_26
REMARK   11  A    between atoms: C_26  and  O_27
REMARK                            x       y       z     vdW  Elec       q    Type
REMARK                         _______ _______ _______ _____ _____    ______ ____
ROOT
ATOM      1  N   UNL     1       2.675   6.713  19.467  0.00  0.00    +0.000 N 
ATOM      2  C   UNL     1       3.292   6.700  18.221  0.00  0.00    +0.000 A 
ATOM      3  N   UNL     1       2.868   7.754  17.525  0.00  0.00    +0.000 NA
ATOM      4  C   UNL     1       2.038   8.484  18.336  0.00  0.00    +0.000 A 
ATOM      5  C   UNL     1       1.365   9.678  18.091  0.00  0.00    +0.000 A 
ATOM      6  C   UNL     1       0.617  10.162  19.153  0.00  0.00    +0.000 A 
ATOM      7  N   UNL     1       0.470   9.542  20.345  0.00  0.00    +0.000 NA
ATOM      8  C   UNL     1       1.107   8.379  20.564  0.00  0.00    +0.000 A 
ATOM      9  C   UNL     1       1.908   7.856  19.558  0.00  0.00    +0.000 A 
ENDROOT
BRANCH   1  11
ATOM     10  C   UNL     1       1.402   4.863  20.452  0.00  0.00    +0.000 C 
ATOM     11  C   UNL     1       2.657   5.720  20.529  0.00  0.00    +0.000 C 
ENDBRANCH   1  11
BRANCH   2  12
ATOM     12  C   UNL     1       4.322   5.661  17.663  0.00  0.00    +0.000 C 
BRANCH  12  13
ATOM     13  C   UNL     1       5.774   6.015  18.065  0.00  0.00    +0.000 A 
ATOM     14  C   UNL     1       6.381   5.395  19.168  0.00  0.00    +0.000 A 
ATOM     15  C   UNL     1       7.668   5.751  19.585  0.00  0.00    +0.000 A 
ATOM     16  C   UNL     1       8.381   6.733  18.904  0.00  0.00    +0.000 A 
ATOM     17  C   UNL     1       7.820   7.340  17.787  0.00  0.00    +0.000 A 
ATOM     18  C   UNL     1       6.541   6.971  17.361  0.00  0.00    +0.000 A 
ENDBRANCH  12  13
BRANCH  12  19
ATOM     19  C   UNL     1       3.938   4.198  17.971  0.00  0.00    +0.000 A 
ATOM     20  C   UNL     1       2.866   3.583  17.289  0.00  0.00    +0.000 A 
ATOM     21  C   UNL     1       2.364   2.338  17.687  0.00  0.00    +0.000 A 
ATOM     22  C   UNL     1       2.942   1.662  18.755  0.00  0.00    +0.000 A 
ATOM     23  C   UNL     1       4.068   2.194  19.372  0.00  0.00    +0.000 A 
ATOM     24  C   UNL     1       4.572   3.437  18.972  0.00  0.00    +0.000 A 
ENDBRANCH  12  19
BRANCH  12  25
ATOM     25  O   UNL     1       4.226   5.753  16.229  0.00  0.00    +0.000 OA
ATOM     26  H   UNL     1       3.357   6.138  16.047  0.00  0.00    +0.000 HD
ENDBRANCH  12  25
ENDBRANCH   2  12
BRANCH   6  27
ATOM     27  O   UNL     1      -0.051  11.353  18.947  0.00  0.00    +0.000 OA
BRANCH  27  28
ATOM     28  C   UNL     1      -1.425  11.267  19.337  0.00  0.00    +0.000 C 
BRANCH  28  29
ATOM     29  C   UNL     1      -2.227  10.666  18.193  0.00  0.00    +0.000 C 
BRANCH  29  30
ATOM     30  C   UNL     1      -3.617  11.280  18.099  0.00  0.00    +0.000 C 
BRANCH  30  31
ATOM     31  O   UNL     1      -3.772  11.928  16.840  0.00  0.00    +0.000 OA
ATOM     32  H   UNL     1      -4.287  12.738  16.989  0.00  0.00    +0.000 HD
ENDBRANCH  30  31
ENDBRANCH  29  30
ENDBRANCH  28  29
ENDBRANCH  27  28
ENDBRANCH   6  27
TORSDOF 10
ENDMDL
MODEL 8
REMARK VINA RESULT:      -7.6      0.947      1.056
REMARK  Name = 
REMARK  11 active torsions:
REMARK  status: ('A' for Active; 'I' for Inactive)
REMARK    1  A    between atoms: C_1  and  C_2
REMARK    2  A    between atoms: C_2  and  N_3
REMARK    3  A    between atoms: C_4  and  C_5
REMARK    4  A    between atoms: C_5  and  O_6
REMARK    5  A    between atoms: C_5  and  C_7
REMARK    6  A    between atoms: C_5  and  C_13
REMARK    7  A    between atoms: C_22  and  O_23
REMARK    8  A    between atoms: O_23  and  C_24
REMARK    9  A    between atoms: C_24  and  C_25
REMARK   10  A    between atoms: C_25  and  C_26
REMARK   11  A    between atoms: C_26  and  O_27
REMARK                            x       y       z     vdW  Elec       q    Type
REMARK                         _______ _______ _______ _____ _____    ______ ____
ROOT
ATOM      1  N   UNL     1       5.636   5.272  18.288  0.00  0.00    +0.000 N 
ATOM      2  C   UNL     1       4.301   5.619  18.115  0.00  0.00    +0.000 A 
ATOM      3  N   UNL     1       4.055   5.734  16.810  0.00  0.00    +0.000 NA
ATOM      4  C   UNL     1       5.202   5.395  16.139  0.00  0.00    +0.000 A 
ATOM      5  C   UNL     1       5.455   5.328  14.771  0.00  0.00    +0.000 A 
ATOM      6  C   UNL     1       6.736   4.924  14.427  0.00  0.00    +0.000 A 
ATOM      7  N   UNL     1       7.725   4.648  15.307  0.00  0.00    +0.000 NA
ATOM      8  C   UNL     1       7.475   4.736  16.625  0.00  0.00    +0.000 A 
ATOM      9  C   UNL     1       6.202   5.096  17.042  0.00  0.00    +0.000 A 
ENDROOT
BRANCH   1  11
ATOM     10  C   UNL     1       7.718   6.015  19.350  0.00  0.00    +0.000 C 
ATOM     11  C   UNL     1       6.448   5.188  19.491  0.00  0.00    +0.000 C 
ENDBRANCH   1  11
BRANCH   2  12
ATOM     12  C   UNL     1       3.211   5.848  19.217  0.00  0.00    +0.000 C 
BRANCH  12  13
ATOM     13  C   UNL     1       2.542   7.237  19.086  0.00  0.00    +0.000 A 
ATOM     14  C   UNL     1       1.824   7.787  20.159  0.00  0.00    +0.000 A 
ATOM     15  C   UNL     1       1.157   9.010  20.037  0.00  0.00    +0.000 A 
ATOM     16  C   UNL     1       1.197   9.717  18.838  0.00  0.00    +0.000 A 
ATOM     17  C   UNL     1       1.929   9.214  17.769  0.00  0.00    +0.000 A 
ATOM     18  C   UNL     1       2.610   8.001  17.898  0.00  0.00    +0.000 A 
ENDBRANCH  12  13
BRANCH  12  19
ATOM     19  C   UNL     1       2.201   4.686  19.325  0.00  0.00    +0.000 A 
ATOM     20  C   UNL     1       1.817   4.190  20.589  0.00  0.00    +0.000 A 
ATOM     21  C   UNL     1       1.070   3.013  20.717  0.00  0.00    +0.000 A 
ATOM     22  C   UNL     1       0.659   2.321  19.583  0.00  0.00    +0.000 A 
ATOM     23  C   UNL     1       0.929   2.848  18.325  0.00  0.00    +0.000 A 
ATOM     24  C   UNL     1       1.674   4.026  18.198  0.00  0.00    +0.000 A 
ENDBRANCH  12  19
BRANCH  12  25
ATOM     25  O   UNL     1       3.918   5.815  20.472  0.00  0.00    +0.000 OA
ATOM     26  H   UNL     1       3.292   6.140  21.135  0.00  0.00    +0.000 HD
ENDBRANCH  12  25
ENDBRANCH   2  12
BRANCH   6  27
ATOM     27  O   UNL     1       7.015   4.832  13.078  0.00  0.00    +0.000 OA
BRANCH  27  28
ATOM     28  C   UNL     1       6.825   3.503  12.584  0.00  0.00    +0.000 C 
BRANCH  28  29
ATOM     29  C   UNL     1       5.417   3.379  12.023  0.00  0.00    +0.000 C 
BRANCH  29  30
ATOM     30  C   UNL     1       5.230   2.075  11.260  0.00  0.00    +0.000 C 
BRANCH  30  31
ATOM     31  O   UNL     1       6.301   1.185  11.558  0.00  0.00    +0.000 OA
ATOM     32  H   UNL     1       6.573   0.764  10.725  0.00  0.00    +0.000 HD
ENDBRANCH  30  31
ENDBRANCH  29  30
ENDBRANCH  28  29
ENDBRANCH  27  28
ENDBRANCH   6  27
TORSDOF 10
ENDMDL
MODEL 9
REMARK VINA RESULT:      -7.5      3.570      7.927
REMARK  Name = 
REMARK  11 active torsions:
REMARK  status: ('A' for Active; 'I' for Inactive)
REMARK    1  A    between atoms: C_1  and  C_2
REMARK    2  A    between atoms: C_2  and  N_3
REMARK    3  A    between atoms: C_4  and  C_5
REMARK    4  A    between atoms: C_5  and  O_6
REMARK    5  A    between atoms: C_5  and  C_7
REMARK    6  A    between atoms: C_5  and  C_13
REMARK    7  A    between atoms: C_22  and  O_23
REMARK    8  A    between atoms: O_23  and  C_24
REMARK    9  A    between atoms: C_24  and  C_25
REMARK   10  A    between atoms: C_25  and  C_26
REMARK   11  A    between atoms: C_26  and  O_27
REMARK                            x       y       z     vdW  Elec       q    Type
REMARK                         _______ _______ _______ _____ _____    ______ ____
ROOT
ATOM      1  N   UNL     1       2.647   6.643  19.569  0.00  0.00    +0.000 N 
ATOM      2  C   UNL     1       3.252   6.673  18.317  0.00  0.00    +0.000 A 
ATOM      3  N   UNL     1       2.827   7.754  17.665  0.00  0.00    +0.000 NA
ATOM      4  C   UNL     1       2.008   8.458  18.510  0.00  0.00    +0.000 A 
ATOM      5  C   UNL     1       1.339   9.663  18.317  0.00  0.00    +0.000 A 
ATOM      6  C   UNL     1       0.603  10.111  19.403  0.00  0.00    +0.000 A 
ATOM      7  N   UNL     1       0.465   9.448  20.573  0.00  0.00    +0.000 NA
ATOM      8  C   UNL     1       1.099   8.274  20.742  0.00  0.00    +0.000 A 
ATOM      9  C   UNL     1       1.887   7.785  19.710  0.00  0.00    +0.000 A 
ENDROOT
BRANCH   1  11
ATOM     10  C   UNL     1       1.376   4.762  20.496  0.00  0.00    +0.000 C 
ATOM     11  C   UNL     1       2.634   5.611  20.594  0.00  0.00    +0.000 C 
ENDBRANCH   1  11
BRANCH   2  12
ATOM     12  C   UNL     1       4.271   5.650  17.711  0.00  0.00    +0.000 C 
BRANCH  12  13
ATOM     13  C   UNL     1       5.732   6.003  18.083  0.00  0.00    +0.000 A 
ATOM     14  C   UNL     1       6.355   5.395  19.183  0.00  0.00    +0.000 A 
ATOM     15  C   UNL     1       7.651   5.749  19.572  0.00  0.00    +0.000 A 
ATOM     16  C   UNL     1       8.357   6.719  18.867  0.00  0.00    +0.000 A 
ATOM     17  C   UNL     1       7.779   7.314  17.752  0.00  0.00    +0.000 A 
ATOM     18  C   UNL     1       6.491   6.945  17.352  0.00  0.00    +0.000 A 
ENDBRANCH  12  13
BRANCH  12  19
ATOM     19  C   UNL     1       3.901   4.180  17.998  0.00  0.00    +0.000 A 
ATOM     20  C   UNL     1       2.833   3.566  17.310  0.00  0.00    +0.000 A 
ATOM     21  C   UNL     1       2.342   2.311  17.690  0.00  0.00    +0.000 A 
ATOM     22  C   UNL     1       2.930   1.623  18.746  0.00  0.00    +0.000 A 
ATOM     23  C   UNL     1       4.054   2.156  19.367  0.00  0.00    +0.000 A 
ATOM     24  C   UNL     1       4.546   3.409  18.984  0.00  0.00    +0.000 A 
ENDBRANCH  12  19
BRANCH  12  25
ATOM     25  O   UNL     1       4.137   5.772  16.282  0.00  0.00    +0.000 OA
ATOM     26  H   UNL     1       3.761   4.933  15.980  0.00  0.00    +0.000 HD
ENDBRANCH  12  25
ENDBRANCH   2  12
BRANCH   6  27
ATOM     27  O   UNL     1      -0.060  11.312  19.249  0.00  0.00    +0.000 OA
BRANCH  27  28
ATOM     28  C   UNL     1      -1.381  11.128  18.729  0.00  0.00    +0.000 C 
BRANCH  28  29
ATOM     29  C   UNL     1      -2.329  12.084  19.436  0.00  0.00    +0.000 C 
BRANCH  29  30
ATOM     30  C   UNL     1      -1.699  12.673  20.691  0.00  0.00    +0.000 C 
BRANCH  30  31
ATOM     31  O   UNL     1      -1.550  11.655  21.676  0.00  0.00    +0.000 OA
ATOM     32  H   UNL     1      -0.896  11.018  21.342  0.00  0.00    +0.000 HD
ENDBRANCH  30  31
ENDBRANCH  29  30
ENDBRANCH  28  29
ENDBRANCH  27  28
ENDBRANCH   6  27
TORSDOF 10
ENDMDL
