MODEL 1
REMARK VINA RESULT:      -8.0      0.000      0.000
REMARK  Name = 
REMARK  9 active torsions:
REMARK  status: ('A' for Active; 'I' for Inactive)
REMARK    1  A    between atoms: C_1  and  O_2
REMARK    2  A    between atoms: O_2  and  C_3
REMARK    3  A    between atoms: C_5  and  C_6
REMARK    4  A    between atoms: N_12  and  C_13
REMARK    5  A    between atoms: C_13  and  C_14
REMARK    6  A    between atoms: C_22  and  C_23
REMARK    7  A    between atoms: C_27  and  O_28
REMARK    8  A    between atoms: O_28  and  C_29
REMARK    9  A    between atoms: C_29  and  C_30
REMARK                            x       y       z     vdW  Elec       q    Type
REMARK                         _______ _______ _______ _____ _____    ______ ____
ROOT
ATOM      1  C   UNL     1      -0.982  12.040  18.369  0.00  0.00    +0.000 C 
ATOM      2  C   UNL     1      -0.401  13.436  18.625  0.00  0.00    +0.000 C 
ATOM      3  C   UNL     1      -0.603  13.851  20.070  0.00  0.00    +0.000 C 
ATOM      4  O   UNL     1       0.285  14.446  20.680  0.00  0.00    +0.000 OA
ATOM      5  N   UNL     1      -1.859  13.549  20.624  0.00  0.00    +0.000 N 
ATOM      6  C   UNL     1      -1.966  13.849  22.057  0.00  0.00    +0.000 C 
ATOM      7  N   UNL     1      -3.302  13.778  22.660  0.00  0.00    +0.000 NA
ATOM      8  C   UNL     1      -4.032  12.598  22.246  0.00  0.00    +0.000 C 
ATOM      9  S   UNL     1      -4.407  12.723  20.503  0.00  0.00    +0.000 S 
ATOM     10  C   UNL     1      -2.772  12.760  19.930  0.00  0.00    +0.000 C 
ATOM     11  C   UNL     1      -2.383  12.013  18.867  0.00  0.00    +0.000 C 
ENDROOT
BRANCH   1  14
ATOM     12  C   UNL     1       0.069   9.319  20.800  0.00  0.00    +0.000 A 
ATOM     13  C   UNL     1      -0.501  10.498  20.301  0.00  0.00    +0.000 A 
ATOM     14  C   UNL     1      -0.123  10.996  19.054  0.00  0.00    +0.000 A 
ATOM     15  C   UNL     1       0.938  10.385  18.380  0.00  0.00    +0.000 A 
ATOM     16  C   UNL     1       1.536   9.251  18.881  0.00  0.00    +0.000 A 
ATOM     17  C   UNL     1       1.131   8.715  20.103  0.00  0.00    +0.000 A 
BRANCH  12  19
ATOM     18  C   UNL     1      -0.059   9.375  23.165  0.00  0.00    +0.000 C 
ATOM     19  O   UNL     1      -0.393   8.716  21.942  0.00  0.00    +0.000 OA
ENDBRANCH  12  19
BRANCH  17  20
ATOM     20  O   UNL     1       1.739   7.603  20.635  0.00  0.00    +0.000 OA
BRANCH  20  21
ATOM     21  C   UNL     1       2.482   6.846  19.667  0.00  0.00    +0.000 C 
BRANCH  21  22
ATOM     22  C   UNL     1       2.013   5.428  19.521  0.00  0.00    +0.000 A 
ATOM     23  C   UNL     1       1.974   4.784  18.286  0.00  0.00    +0.000 A 
ATOM     24  C   UNL     1       1.465   3.492  18.194  0.00  0.00    +0.000 A 
ATOM     25  C   UNL     1       1.011   2.834  19.337  0.00  0.00    +0.000 A 
ATOM     26  C   UNL     1       1.086   3.454  20.581  0.00  0.00    +0.000 A 
ATOM     27  C   UNL     1       1.593   4.744  20.676  0.00  0.00    +0.000 A 
ENDBRANCH  21  22
ENDBRANCH  20  21
ENDBRANCH  17  20
ENDBRANCH   1  14
BRANCH  11  28
ATOM     28  C   UNL     1      -3.449  11.253  18.096  0.00  0.00    +0.000 C 
ATOM     29  N   UNL     1      -4.333  10.622  17.456  0.00  0.00    +0.000 NA
ENDBRANCH  11  28
BRANCH   7  30
ATOM     30  C   UNL     1      -3.196  13.756  24.135  0.00  0.00    +0.000 C 
BRANCH  30  31
ATOM     31  C   UNL     1      -2.773  15.061  24.705  0.00  0.00    +0.000 A 
ATOM     32  C   UNL     1      -1.722  15.444  25.507  0.00  0.00    +0.000 A 
ATOM     33  C   UNL     1      -1.890  16.829  25.745  0.00  0.00    +0.000 A 
ATOM     34  C   UNL     1      -3.034  17.197  25.072  0.00  0.00    +0.000 A 
ATOM     35  O   UNL     1      -3.575  16.130  24.433  0.00  0.00    +0.000 OA
ENDBRANCH  30  31
ENDBRANCH   7  30
TORSDOF 8
ENDMDL
MODEL 2
REMARK VINA RESULT:      -7.4      1.191      1.309
REMARK  Name = 
REMARK  9 active torsions:
REMARK  status: ('A' for Active; 'I' for Inactive)
REMARK    1  A    between atoms: C_1  and  O_2
REMARK    2  A    between atoms: O_2  and  C_3
REMARK    3  A    between atoms: C_5  and  C_6
REMARK    4  A    between atoms: N_12  and  C_13
REMARK    5  A    between atoms: C_13  and  C_14
REMARK    6  A    between atoms: C_22  and  C_23
REMARK    7  A    between atoms: C_27  and  O_28
REMARK    8  A    between atoms: O_28  and  C_29
REMARK    9  A    between atoms: C_29  and  C_30
REMARK                            x       y       z     vdW  Elec       q    Type
REMARK                         _______ _______ _______ _____ _____    ______ ____
ROOT
ATOM      1  C   UNL     1       0.296  12.006  18.344  0.00  0.00    +0.000 C 
ATOM      2  C   UNL     1       1.139  13.242  18.678  0.00  0.00    +0.000 C 
ATOM      3  C   UNL     1       0.976  13.633  20.135  0.00  0.00    +0.000 C 
ATOM      4  O   UNL     1       1.944  14.008  20.794  0.00  0.00    +0.000 OA
ATOM      5  N   UNL     1      -0.334  13.574  20.640  0.00  0.00    +0.000 N 
ATOM      6  C   UNL     1      -0.429  13.833  22.082  0.00  0.00    +0.000 C 
ATOM      7  N   UNL     1      -1.772  14.014  22.645  0.00  0.00    +0.000 NA
ATOM      8  C   UNL     1      -2.712  13.027  22.158  0.00  0.00    +0.000 C 
ATOM      9  S   UNL     1      -2.991  13.294  20.413  0.00  0.00    +0.000 S 
ATOM     10  C   UNL     1      -1.364  13.016  19.887  0.00  0.00    +0.000 C 
ATOM     11  C   UNL     1      -1.098  12.248  18.801  0.00  0.00    +0.000 C 
ENDROOT
BRANCH   1  14
ATOM     12  C   UNL     1       0.842   9.208  20.850  0.00  0.00    +0.000 A 
ATOM     13  C   UNL     1       0.578  10.479  20.327  0.00  0.00    +0.000 A 
ATOM     14  C   UNL     1       0.899  10.782  19.002  0.00  0.00    +0.000 A 
ATOM     15  C   UNL     1       1.621   9.848  18.256  0.00  0.00    +0.000 A 
ATOM     16  C   UNL     1       1.925   8.610  18.775  0.00  0.00    +0.000 A 
ATOM     17  C   UNL     1       1.563   8.278  20.080  0.00  0.00    +0.000 A 
BRANCH  12  19
ATOM     18  C   UNL     1      -0.328   9.820  22.818  0.00  0.00    +0.000 C 
ATOM     19  O   UNL     1       0.395   8.826  22.090  0.00  0.00    +0.000 OA
ENDBRANCH  12  19
BRANCH  17  20
ATOM     20  O   UNL     1       1.888   7.058  20.626  0.00  0.00    +0.000 OA
BRANCH  20  21
ATOM     21  C   UNL     1       2.741   6.269  19.784  0.00  0.00    +0.000 C 
BRANCH  21  22
ATOM     22  C   UNL     1       2.155   4.940  19.407  0.00  0.00    +0.000 A 
ATOM     23  C   UNL     1       2.300   4.401  18.131  0.00  0.00    +0.000 A 
ATOM     24  C   UNL     1       1.678   3.197  17.812  0.00  0.00    +0.000 A 
ATOM     25  C   UNL     1       0.926   2.520  18.772  0.00  0.00    +0.000 A 
ATOM     26  C   UNL     1       0.811   3.030  20.063  0.00  0.00    +0.000 A 
ATOM     27  C   UNL     1       1.430   4.232  20.383  0.00  0.00    +0.000 A 
ENDBRANCH  21  22
ENDBRANCH  20  21
ENDBRANCH  17  20
ENDBRANCH   1  14
BRANCH  11  28
ATOM     28  C   UNL     1      -2.269  11.754  17.968  0.00  0.00    +0.000 C 
ATOM     29  N   UNL     1      -3.240  11.344  17.277  0.00  0.00    +0.000 NA
ENDBRANCH  11  28
BRANCH   7  30
ATOM     30  C   UNL     1      -1.725  13.914  24.120  0.00  0.00    +0.000 C 
BRANCH  30  31
ATOM     31  C   UNL     1      -1.611  15.236  24.787  0.00  0.00    +0.000 A 
ATOM     32  C   UNL     1      -2.525  16.216  25.103  0.00  0.00    +0.000 A 
ATOM     33  C   UNL     1      -1.788  17.267  25.699  0.00  0.00    +0.000 A 
ATOM     34  C   UNL     1      -0.473  16.856  25.707  0.00  0.00    +0.000 A 
ATOM     35  O   UNL     1      -0.356  15.621  25.159  0.00  0.00    +0.000 OA
ENDBRANCH  30  31
ENDBRANCH   7  30
TORSDOF 8
ENDMDL
MODEL 3
REMARK VINA RESULT:      -7.3      1.601      2.115
REMARK  Name = 
REMARK  9 active torsions:
REMARK  status: ('A' for Active; 'I' for Inactive)
REMARK    1  A    between atoms: C_1  and  O_2
REMARK    2  A    between atoms: O_2  and  C_3
REMARK    3  A    between atoms: C_5  and  C_6
REMARK    4  A    between atoms: N_12  and  C_13
REMARK    5  A    between atoms: C_13  and  C_14
REMARK    6  A    between atoms: C_22  and  C_23
REMARK    7  A    between atoms: C_27  and  O_28
REMARK    8  A    between atoms: O_28  and  C_29
REMARK    9  A    between atoms: C_29  and  C_30
REMARK                            x       y       z     vdW  Elec       q    Type
REMARK                         _______ _______ _______ _____ _____    ______ ____
ROOT
ATOM      1  C   UNL     1       0.114  12.128  18.494  0.00  0.00    +0.000 C 
ATOM      2  C   UNL     1       0.631  13.413  19.150  0.00  0.00    +0.000 C 
ATOM      3  C   UNL     1      -0.002  13.619  20.514  0.00  0.00    +0.000 C 
ATOM      4  O   UNL     1       0.668  14.035  21.458  0.00  0.00    +0.000 OA
ATOM      5  N   UNL     1      -1.378  13.344  20.598  0.00  0.00    +0.000 N 
ATOM      6  C   UNL     1      -1.921  13.430  21.958  0.00  0.00    +0.000 C 
ATOM      7  N   UNL     1      -3.380  13.383  22.103  0.00  0.00    +0.000 NA
ATOM      8  C   UNL     1      -3.983  12.347  21.290  0.00  0.00    +0.000 C 
ATOM      9  S   UNL     1      -3.784  12.768  19.565  0.00  0.00    +0.000 S 
ATOM     10  C   UNL     1      -2.051  12.751  19.533  0.00  0.00    +0.000 C 
ATOM     11  C   UNL     1      -1.373  12.145  18.528  0.00  0.00    +0.000 C 
ENDROOT
BRANCH   1  14
ATOM     12  C   UNL     1       0.552   9.432  21.132  0.00  0.00    +0.000 A 
ATOM     13  C   UNL     1       0.326  10.685  20.548  0.00  0.00    +0.000 A 
ATOM     14  C   UNL     1       0.678  10.921  19.218  0.00  0.00    +0.000 A 
ATOM     15  C   UNL     1       1.393   9.939  18.528  0.00  0.00    +0.000 A 
ATOM     16  C   UNL     1       1.659   8.720  19.106  0.00  0.00    +0.000 A 
ATOM     17  C   UNL     1       1.267   8.454  20.418  0.00  0.00    +0.000 A 
BRANCH  12  19
ATOM     18  C   UNL     1      -0.719  10.123  23.009  0.00  0.00    +0.000 C 
ATOM     19  O   UNL     1       0.074   9.115  22.379  0.00  0.00    +0.000 OA
ENDBRANCH  12  19
BRANCH  17  20
ATOM     20  O   UNL     1       1.554   7.254  21.023  0.00  0.00    +0.000 OA
BRANCH  20  21
ATOM     21  C   UNL     1       2.493   6.456  20.285  0.00  0.00    +0.000 C 
BRANCH  21  22
ATOM     22  C   UNL     1       1.912   5.179  19.754  0.00  0.00    +0.000 A 
ATOM     23  C   UNL     1       1.304   4.240  20.583  0.00  0.00    +0.000 A 
ATOM     24  C   UNL     1       0.843   3.039  20.050  0.00  0.00    +0.000 A 
ATOM     25  C   UNL     1       0.972   2.782  18.685  0.00  0.00    +0.000 A 
ATOM     26  C   UNL     1       1.540   3.733  17.842  0.00  0.00    +0.000 A 
ATOM     27  C   UNL     1       2.002   4.932  18.372  0.00  0.00    +0.000 A 
ENDBRANCH  21  22
ENDBRANCH  20  21
ENDBRANCH  17  20
ENDBRANCH   1  14
BRANCH  11  28
ATOM     28  C   UNL     1      -2.167  11.605  17.349  0.00  0.00    +0.000 C 
ATOM     29  N   UNL     1      -2.825  11.158  16.372  0.00  0.00    +0.000 NA
ENDBRANCH  11  28
BRANCH   7  30
ATOM     30  C   UNL     1      -3.746  13.127  23.514  0.00  0.00    +0.000 C 
BRANCH  30  31
ATOM     31  C   UNL     1      -5.172  13.422  23.805  0.00  0.00    +0.000 A 
ATOM     32  C   UNL     1      -6.241  12.638  24.177  0.00  0.00    +0.000 A 
ATOM     33  C   UNL     1      -7.356  13.503  24.262  0.00  0.00    +0.000 A 
ATOM     34  C   UNL     1      -6.892  14.759  23.936  0.00  0.00    +0.000 A 
ATOM     35  O   UNL     1      -5.565  14.720  23.661  0.00  0.00    +0.000 OA
ENDBRANCH  30  31
ENDBRANCH   7  30
TORSDOF 8
ENDMDL
MODEL 4
REMARK VINA RESULT:      -7.2      2.638      3.773
REMARK  Name = 
REMARK  9 active torsions:
REMARK  status: ('A' for Active; 'I' for Inactive)
REMARK    1  A    between atoms: C_1  and  O_2
REMARK    2  A    between atoms: O_2  and  C_3
REMARK    3  A    between atoms: C_5  and  C_6
REMARK    4  A    between atoms: N_12  and  C_13
REMARK    5  A    between atoms: C_13  and  C_14
REMARK    6  A    between atoms: C_22  and  C_23
REMARK    7  A    between atoms: C_27  and  O_28
REMARK    8  A    between atoms: O_28  and  C_29
REMARK    9  A    between atoms: C_29  and  C_30
REMARK                            x       y       z     vdW  Elec       q    Type
REMARK                         _______ _______ _______ _____ _____    ______ ____
ROOT
ATOM      1  C   UNL     1      -1.119  12.455  19.040  0.00  0.00    +0.000 C 
ATOM      2  C   UNL     1      -0.428  13.430  18.081  0.00  0.00    +0.000 C 
ATOM      3  C   UNL     1       0.621  14.253  18.806  0.00  0.00    +0.000 C 
ATOM      4  O   UNL     1       1.700  14.500  18.271  0.00  0.00    +0.000 OA
ATOM      5  N   UNL     1       0.255  14.728  20.077  0.00  0.00    +0.000 N 
ATOM      6  C   UNL     1       1.340  15.405  20.795  0.00  0.00    +0.000 C 
ATOM      7  N   UNL     1       0.985  16.126  22.023  0.00  0.00    +0.000 NA
ATOM      8  C   UNL     1       0.099  15.362  22.875  0.00  0.00    +0.000 C 
ATOM      9  S   UNL     1      -1.484  15.186  22.066  0.00  0.00    +0.000 S 
ATOM     10  C   UNL     1      -0.926  14.305  20.682  0.00  0.00    +0.000 C 
ATOM     11  C   UNL     1      -1.593  13.215  20.227  0.00  0.00    +0.000 C 
ENDROOT
BRANCH   1  14
ATOM     12  C   UNL     1       0.783   9.973  21.194  0.00  0.00    +0.000 A 
ATOM     13  C   UNL     1       0.177  11.163  20.770  0.00  0.00    +0.000 A 
ATOM     14  C   UNL     1      -0.157  11.350  19.428  0.00  0.00    +0.000 A 
ATOM     15  C   UNL     1       0.257  10.398  18.494  0.00  0.00    +0.000 A 
ATOM     16  C   UNL     1       0.892   9.244  18.893  0.00  0.00    +0.000 A 
ATOM     17  C   UNL     1       1.185   9.023  20.238  0.00  0.00    +0.000 A 
BRANCH  12  19
ATOM     18  C   UNL     1      -0.210   9.598  23.312  0.00  0.00    +0.000 C 
ATOM     19  O   UNL     1       0.977   9.689  22.522  0.00  0.00    +0.000 OA
ENDBRANCH  12  19
BRANCH  17  20
ATOM     20  O   UNL     1       1.850   7.892  20.651  0.00  0.00    +0.000 OA
BRANCH  20  21
ATOM     21  C   UNL     1       2.494   7.189  19.577  0.00  0.00    +0.000 C 
BRANCH  21  22
ATOM     22  C   UNL     1       2.041   5.766  19.431  0.00  0.00    +0.000 A 
ATOM     23  C   UNL     1       2.004   5.124  18.195  0.00  0.00    +0.000 A 
ATOM     24  C   UNL     1       1.510   3.825  18.103  0.00  0.00    +0.000 A 
ATOM     25  C   UNL     1       1.069   3.160  19.247  0.00  0.00    +0.000 A 
ATOM     26  C   UNL     1       1.142   3.779  20.492  0.00  0.00    +0.000 A 
ATOM     27  C   UNL     1       1.634   5.075  20.586  0.00  0.00    +0.000 A 
ENDBRANCH  21  22
ENDBRANCH  20  21
ENDBRANCH  17  20
ENDBRANCH   1  14
BRANCH  11  28
ATOM     28  C   UNL     1      -2.925  12.868  20.871  0.00  0.00    +0.000 C 
ATOM     29  N   UNL     1      -4.030  12.581  21.406  0.00  0.00    +0.000 NA
ENDBRANCH  11  28
BRANCH   7  30
ATOM     30  C   UNL     1       2.204  16.444  22.799  0.00  0.00    +0.000 C 
BRANCH  30  31
ATOM     31  C   UNL     1       3.420  15.777  22.268  0.00  0.00    +0.000 A 
ATOM     32  C   UNL     1       4.344  16.124  21.308  0.00  0.00    +0.000 A 
ATOM     33  C   UNL     1       5.253  15.044  21.225  0.00  0.00    +0.000 A 
ATOM     34  C   UNL     1       4.823  14.110  22.141  0.00  0.00    +0.000 A 
ATOM     35  O   UNL     1       3.712  14.549  22.783  0.00  0.00    +0.000 OA
ENDBRANCH  30  31
ENDBRANCH   7  30
TORSDOF 8
ENDMDL
MODEL 5
REMARK VINA RESULT:      -7.1      0.902      1.419
REMARK  Name = 
REMARK  9 active torsions:
REMARK  status: ('A' for Active; 'I' for Inactive)
REMARK    1  A    between atoms: C_1  and  O_2
REMARK    2  A    between atoms: O_2  and  C_3
REMARK    3  A    between atoms: C_5  and  C_6
REMARK    4  A    between atoms: N_12  and  C_13
REMARK    5  A    between atoms: C_13  and  C_14
REMARK    6  A    between atoms: C_22  and  C_23
REMARK    7  A    between atoms: C_27  and  O_28
REMARK    8  A    between atoms: O_28  and  C_29
REMARK    9  A    between atoms: C_29  and  C_30
REMARK                            x       y       z     vdW  Elec       q    Type
REMARK                         _______ _______ _______ _____ _____    ______ ____
ROOT
ATOM      1  C   UNL     1      -0.864  11.748  18.282  0.00  0.00    +0.000 C 
ATOM      2  C   UNL     1      -0.233  13.144  18.338  0.00  0.00    +0.000 C 
ATOM      3  C   UNL     1      -0.334  13.730  19.734  0.00  0.00    +0.000 C 
ATOM      4  O   UNL     1       0.605  14.361  20.217  0.00  0.00    +0.000 OA
ATOM      5  N   UNL     1      -1.561  13.536  20.391  0.00  0.00    +0.000 N 
ATOM      6  C   UNL     1      -1.573  14.003  21.782  0.00  0.00    +0.000 C 
ATOM      7  N   UNL     1      -2.871  14.046  22.466  0.00  0.00    +0.000 NA
ATOM      8  C   UNL     1      -3.656  12.852  22.236  0.00  0.00    +0.000 C 
ATOM      9  S   UNL     1      -4.133  12.787  20.515  0.00  0.00    +0.000 S 
ATOM     10  C   UNL     1      -2.535  12.702  19.848  0.00  0.00    +0.000 C 
ATOM     11  C   UNL     1      -2.232  11.826  18.859  0.00  0.00    +0.000 C 
ENDROOT
BRANCH   1  14
ATOM     12  C   UNL     1       0.237   9.246  20.917  0.00  0.00    +0.000 A 
ATOM     13  C   UNL     1      -0.339  10.380  20.330  0.00  0.00    +0.000 A 
ATOM     14  C   UNL     1       0.008  10.762  19.034  0.00  0.00    +0.000 A 
ATOM     15  C   UNL     1       1.046  10.085  18.389  0.00  0.00    +0.000 A 
ATOM     16  C   UNL     1       1.651   8.996  18.973  0.00  0.00    +0.000 A 
ATOM     17  C   UNL     1       1.277   8.574  20.248  0.00  0.00    +0.000 A 
BRANCH  12  19
ATOM     18  C   UNL     1      -0.442   9.725  23.135  0.00  0.00    +0.000 C 
ATOM     19  O   UNL     1      -0.196   8.750  22.120  0.00  0.00    +0.000 OA
ENDBRANCH  12  19
BRANCH  17  20
ATOM     20  O   UNL     1       1.893   7.509  20.861  0.00  0.00    +0.000 OA
BRANCH  20  21
ATOM     21  C   UNL     1       1.400   6.235  20.416  0.00  0.00    +0.000 C 
BRANCH  21  22
ATOM     22  C   UNL     1       2.306   5.544  19.441  0.00  0.00    +0.000 A 
ATOM     23  C   UNL     1       3.677   5.788  19.402  0.00  0.00    +0.000 A 
ATOM     24  C   UNL     1       4.464   5.172  18.432  0.00  0.00    +0.000 A 
ATOM     25  C   UNL     1       3.885   4.298  17.511  0.00  0.00    +0.000 A 
ATOM     26  C   UNL     1       2.523   4.016  17.570  0.00  0.00    +0.000 A 
ATOM     27  C   UNL     1       1.736   4.630  18.537  0.00  0.00    +0.000 A 
ENDBRANCH  21  22
ENDBRANCH  20  21
ENDBRANCH  17  20
ENDBRANCH   1  14
BRANCH  11  28
ATOM     28  C   UNL     1      -3.364  11.017  18.246  0.00  0.00    +0.000 C 
ATOM     29  N   UNL     1      -4.301  10.346  17.737  0.00  0.00    +0.000 NA
ENDBRANCH  11  28
BRANCH   7  30
ATOM     30  C   UNL     1      -2.675  14.192  23.925  0.00  0.00    +0.000 C 
BRANCH  30  31
ATOM     31  C   UNL     1      -3.207  15.473  24.456  0.00  0.00    +0.000 A 
ATOM     32  C   UNL     1      -4.473  16.011  24.529  0.00  0.00    +0.000 A 
ATOM     33  C   UNL     1      -4.324  17.293  25.108  0.00  0.00    +0.000 A 
ATOM     34  C   UNL     1      -2.977  17.451  25.350  0.00  0.00    +0.000 A 
ATOM     35  O   UNL     1      -2.291  16.348  24.960  0.00  0.00    +0.000 OA
ENDBRANCH  30  31
ENDBRANCH   7  30
TORSDOF 8
ENDMDL
MODEL 6
REMARK VINA RESULT:      -7.1      1.167      1.482
REMARK  Name = 
REMARK  9 active torsions:
REMARK  status: ('A' for Active; 'I' for Inactive)
REMARK    1  A    between atoms: C_1  and  O_2
REMARK    2  A    between atoms: O_2  and  C_3
REMARK    3  A    between atoms: C_5  and  C_6
REMARK    4  A    between atoms: N_12  and  C_13
REMARK    5  A    between atoms: C_13  and  C_14
REMARK    6  A    between atoms: C_22  and  C_23
REMARK    7  A    between atoms: C_27  and  O_28
REMARK    8  A    between atoms: O_28  and  C_29
REMARK    9  A    between atoms: C_29  and  C_30
REMARK                            x       y       z     vdW  Elec       q    Type
REMARK                         _______ _______ _______ _____ _____    ______ ____
ROOT
ATOM      1  C   UNL     1       0.300  11.809  18.089  0.00  0.00    +0.000 C 
ATOM      2  C   UNL     1       1.172  13.049  18.315  0.00  0.00    +0.000 C 
ATOM      3  C   UNL     1       1.095  13.512  19.758  0.00  0.00    +0.000 C 
ATOM      4  O   UNL     1       2.103  13.907  20.342  0.00  0.00    +0.000 OA
ATOM      5  N   UNL     1      -0.184  13.492  20.339  0.00  0.00    +0.000 N 
ATOM      6  C   UNL     1      -0.194  13.822  21.769  0.00  0.00    +0.000 C 
ATOM      7  N   UNL     1      -1.500  14.045  22.398  0.00  0.00    +0.000 NA
ATOM      8  C   UNL     1      -2.476  13.047  22.015  0.00  0.00    +0.000 C 
ATOM      9  S   UNL     1      -2.852  13.233  20.278  0.00  0.00    +0.000 S 
ATOM     10  C   UNL     1      -1.260  12.911  19.673  0.00  0.00    +0.000 C 
ATOM     11  C   UNL     1      -1.064  12.089  18.613  0.00  0.00    +0.000 C 
ENDROOT
BRANCH   1  14
ATOM     12  C   UNL     1       0.876   9.043  20.625  0.00  0.00    +0.000 A 
ATOM     13  C   UNL     1       0.581  10.302  20.088  0.00  0.00    +0.000 A 
ATOM     14  C   UNL     1       0.929  10.610  18.772  0.00  0.00    +0.000 A 
ATOM     15  C   UNL     1       1.706   9.701  18.052  0.00  0.00    +0.000 A 
ATOM     16  C   UNL     1       2.040   8.477  18.585  0.00  0.00    +0.000 A 
ATOM     17  C   UNL     1       1.654   8.138  19.881  0.00  0.00    +0.000 A 
BRANCH  12  19
ATOM     18  C   UNL     1      -0.250   9.663  22.616  0.00  0.00    +0.000 C 
ATOM     19  O   UNL     1       0.409   8.650  21.854  0.00  0.00    +0.000 OA
ENDBRANCH  12  19
BRANCH  17  20
ATOM     20  O   UNL     1       2.008   6.933  20.443  0.00  0.00    +0.000 OA
BRANCH  20  21
ATOM     21  C   UNL     1       2.797   6.110  19.570  0.00  0.00    +0.000 C 
BRANCH  21  22
ATOM     22  C   UNL     1       2.198   4.759  19.310  0.00  0.00    +0.000 A 
ATOM     23  C   UNL     1       1.297   4.166  20.191  0.00  0.00    +0.000 A 
ATOM     24  C   UNL     1       0.824   2.881  19.938  0.00  0.00    +0.000 A 
ATOM     25  C   UNL     1       1.235   2.195  18.795  0.00  0.00    +0.000 A 
ATOM     26  C   UNL     1       2.101   2.798  17.886  0.00  0.00    +0.000 A 
ATOM     27  C   UNL     1       2.576   4.080  18.138  0.00  0.00    +0.000 A 
ENDBRANCH  21  22
ENDBRANCH  20  21
ENDBRANCH  17  20
ENDBRANCH   1  14
BRANCH  11  28
ATOM     28  C   UNL     1      -2.285  11.568  17.873  0.00  0.00    +0.000 C 
ATOM     29  N   UNL     1      -3.297  11.136  17.259  0.00  0.00    +0.000 NA
ENDBRANCH  11  28
BRANCH   7  30
ATOM     30  C   UNL     1      -1.370  14.016  23.872  0.00  0.00    +0.000 C 
BRANCH  30  31
ATOM     31  C   UNL     1      -1.491  15.360  24.491  0.00  0.00    +0.000 A 
ATOM     32  C   UNL     1      -0.573  16.246  25.010  0.00  0.00    +0.000 A 
ATOM     33  C   UNL     1      -1.316  17.347  25.496  0.00  0.00    +0.000 A 
ATOM     34  C   UNL     1      -2.639  17.058  25.241  0.00  0.00    +0.000 A 
ATOM     35  O   UNL     1      -2.754  15.854  24.626  0.00  0.00    +0.000 OA
ENDBRANCH  30  31
ENDBRANCH   7  30
TORSDOF 8
ENDMDL
MODEL 7
REMARK VINA RESULT:      -7.1      2.734      5.045
REMARK  Name = 
REMARK  9 active torsions:
REMARK  status: ('A' for Active; 'I' for Inactive)
REMARK    1  A    between atoms: C_1  and  O_2
REMARK    2  A    between atoms: O_2  and  C_3
REMARK    3  A    between atoms: C_5  and  C_6
REMARK    4  A    between atoms: N_12  and  C_13
REMARK    5  A    between atoms: C_13  and  C_14
REMARK    6  A    between atoms: C_22  and  C_23
REMARK    7  A    between atoms: C_27  and  O_28
REMARK    8  A    between atoms: O_28  and  C_29
REMARK    9  A    between atoms: C_29  and  C_30
REMARK                            x       y       z     vdW  Elec       q    Type
REMARK                         _______ _______ _______ _____ _____    ______ ____
ROOT
ATOM      1  C   UNL     1      -1.267  13.810  22.099  0.00  0.00    +0.000 C 
ATOM      2  C   UNL     1      -1.803  13.350  23.459  0.00  0.00    +0.000 C 
ATOM      3  C   UNL     1      -3.226  12.836  23.336  0.00  0.00    +0.000 C 
ATOM      4  O   UNL     1      -3.587  11.839  23.959  0.00  0.00    +0.000 OA
ATOM      5  N   UNL     1      -4.080  13.591  22.513  0.00  0.00    +0.000 N 
ATOM      6  C   UNL     1      -5.404  12.991  22.319  0.00  0.00    +0.000 C 
ATOM      7  N   UNL     1      -6.427  13.816  21.666  0.00  0.00    +0.000 NA
ATOM      8  C   UNL     1      -5.915  14.511  20.503  0.00  0.00    +0.000 C 
ATOM      9  S   UNL     1      -4.719  15.730  21.028  0.00  0.00    +0.000 S 
ATOM     10  C   UNL     1      -3.580  14.630  21.732  0.00  0.00    +0.000 C 
ATOM     11  C   UNL     1      -2.250  14.750  21.498  0.00  0.00    +0.000 C 
ENDROOT
BRANCH   1  14
ATOM     12  C   UNL     1      -1.195  11.623  18.997  0.00  0.00    +0.000 A 
ATOM     13  C   UNL     1      -1.646  12.531  19.963  0.00  0.00    +0.000 A 
ATOM     14  C   UNL     1      -1.025  12.607  21.210  0.00  0.00    +0.000 A 
ATOM     15  C   UNL     1      -0.048  11.662  21.533  0.00  0.00    +0.000 A 
ATOM     16  C   UNL     1       0.373  10.735  20.607  0.00  0.00    +0.000 A 
ATOM     17  C   UNL     1      -0.205  10.683  19.339  0.00  0.00    +0.000 A 
BRANCH  12  19
ATOM     18  C   UNL     1      -3.086  11.465  17.578  0.00  0.00    +0.000 C 
ATOM     19  O   UNL     1      -1.673  11.632  17.711  0.00  0.00    +0.000 OA
ENDBRANCH  12  19
BRANCH  17  20
ATOM     20  O   UNL     1       0.179   9.742  18.413  0.00  0.00    +0.000 OA
BRANCH  20  21
ATOM     21  C   UNL     1       1.600   9.691  18.213  0.00  0.00    +0.000 C 
BRANCH  21  22
ATOM     22  C   UNL     1       2.197   8.339  18.472  0.00  0.00    +0.000 A 
ATOM     23  C   UNL     1       3.018   7.701  17.544  0.00  0.00    +0.000 A 
ATOM     24  C   UNL     1       3.490   6.418  17.803  0.00  0.00    +0.000 A 
ATOM     25  C   UNL     1       3.160   5.777  18.997  0.00  0.00    +0.000 A 
ATOM     26  C   UNL     1       2.376   6.423  19.949  0.00  0.00    +0.000 A 
ATOM     27  C   UNL     1       1.902   7.704  19.691  0.00  0.00    +0.000 A 
ENDBRANCH  21  22
ENDBRANCH  20  21
ENDBRANCH  17  20
ENDBRANCH   1  14
BRANCH  11  28
ATOM     28  C   UNL     1      -1.766  15.963  20.719  0.00  0.00    +0.000 C 
ATOM     29  N   UNL     1      -1.364  16.968  20.074  0.00  0.00    +0.000 NA
ENDBRANCH  11  28
BRANCH   7  30
ATOM     30  C   UNL     1      -7.563  12.974  21.233  0.00  0.00    +0.000 C 
BRANCH  30  31
ATOM     31  C   UNL     1      -7.259  12.166  20.025  0.00  0.00    +0.000 A 
ATOM     32  C   UNL     1      -6.802  10.880  19.840  0.00  0.00    +0.000 A 
ATOM     33  C   UNL     1      -6.670  10.704  18.443  0.00  0.00    +0.000 A 
ATOM     34  C   UNL     1      -7.056  11.895  17.868  0.00  0.00    +0.000 A 
ATOM     35  O   UNL     1      -7.420  12.788  18.822  0.00  0.00    +0.000 OA
ENDBRANCH  30  31
ENDBRANCH   7  30
TORSDOF 8
ENDMDL
MODEL 8
REMARK VINA RESULT:      -7.1      2.641      5.096
REMARK  Name = 
REMARK  9 active torsions:
REMARK  status: ('A' for Active; 'I' for Inactive)
REMARK    1  A    between atoms: C_1  and  O_2
REMARK    2  A    between atoms: O_2  and  C_3
REMARK    3  A    between atoms: C_5  and  C_6
REMARK    4  A    between atoms: N_12  and  C_13
REMARK    5  A    between atoms: C_13  and  C_14
REMARK    6  A    between atoms: C_22  and  C_23
REMARK    7  A    between atoms: C_27  and  O_28
REMARK    8  A    between atoms: O_28  and  C_29
REMARK    9  A    between atoms: C_29  and  C_30
REMARK                            x       y       z     vdW  Elec       q    Type
REMARK                         _______ _______ _______ _____ _____    ______ ____
ROOT
ATOM      1  C   UNL     1      -1.733  13.758  22.906  0.00  0.00    +0.000 C 
ATOM      2  C   UNL     1      -2.454  13.378  24.204  0.00  0.00    +0.000 C 
ATOM      3  C   UNL     1      -3.854  12.870  23.919  0.00  0.00    +0.000 C 
ATOM      4  O   UNL     1      -4.311  11.912  24.541  0.00  0.00    +0.000 OA
ATOM      5  N   UNL     1      -4.579  13.583  22.948  0.00  0.00    +0.000 N 
ATOM      6  C   UNL     1      -5.874  12.983  22.610  0.00  0.00    +0.000 C 
ATOM      7  N   UNL     1      -6.787  13.778  21.781  0.00  0.00    +0.000 NA
ATOM      8  C   UNL     1      -6.114  14.403  20.662  0.00  0.00    +0.000 C 
ATOM      9  S   UNL     1      -4.981  15.641  21.276  0.00  0.00    +0.000 S 
ATOM     10  C   UNL     1      -3.963  14.573  22.186  0.00  0.00    +0.000 C 
ATOM     11  C   UNL     1      -2.612  14.670  22.127  0.00  0.00    +0.000 C 
ENDROOT
BRANCH   1  14
ATOM     12  C   UNL     1      -0.530  11.538  20.071  0.00  0.00    +0.000 A 
ATOM     13  C   UNL     1      -1.162  12.587  20.751  0.00  0.00    +0.000 A 
ATOM     14  C   UNL     1      -1.391  12.505  22.125  0.00  0.00    +0.000 A 
ATOM     15  C   UNL     1      -1.118  11.302  22.781  0.00  0.00    +0.000 A 
ATOM     16  C   UNL     1      -0.537  10.248  22.114  0.00  0.00    +0.000 A 
ATOM     17  C   UNL     1      -0.257  10.338  20.751  0.00  0.00    +0.000 A 
BRANCH  12  19
ATOM     18  C   UNL     1       1.052  12.397  18.530  0.00  0.00    +0.000 C 
ATOM     19  O   UNL     1      -0.145  11.651  18.759  0.00  0.00    +0.000 OA
ENDBRANCH  12  19
BRANCH  17  20
ATOM     20  O   UNL     1       0.292   9.283  20.060  0.00  0.00    +0.000 OA
BRANCH  20  21
ATOM     21  C   UNL     1       1.261   8.548  20.824  0.00  0.00    +0.000 C 
BRANCH  21  22
ATOM     22  C   UNL     1       1.829   7.364  20.099  0.00  0.00    +0.000 A 
ATOM     23  C   UNL     1       2.424   7.478  18.844  0.00  0.00    +0.000 A 
ATOM     24  C   UNL     1       2.872   6.337  18.184  0.00  0.00    +0.000 A 
ATOM     25  C   UNL     1       2.745   5.084  18.783  0.00  0.00    +0.000 A 
ATOM     26  C   UNL     1       2.191   4.966  20.055  0.00  0.00    +0.000 A 
ATOM     27  C   UNL     1       1.742   6.103  20.716  0.00  0.00    +0.000 A 
ENDBRANCH  21  22
ENDBRANCH  20  21
ENDBRANCH  17  20
ENDBRANCH   1  14
BRANCH  11  28
ATOM     28  C   UNL     1      -2.009  15.833  21.356  0.00  0.00    +0.000 C 
ATOM     29  N   UNL     1      -1.510  16.797  20.717  0.00  0.00    +0.000 NA
ENDBRANCH  11  28
BRANCH   7  30
ATOM     30  C   UNL     1      -7.868  12.922  21.245  0.00  0.00    +0.000 C 
BRANCH  30  31
ATOM     31  C   UNL     1      -7.391  11.964  20.215  0.00  0.00    +0.000 A 
ATOM     32  C   UNL     1      -7.121  12.080  18.870  0.00  0.00    +0.000 A 
ATOM     33  C   UNL     1      -6.739  10.792  18.430  0.00  0.00    +0.000 A 
ATOM     34  C   UNL     1      -6.802   9.974  19.537  0.00  0.00    +0.000 A 
ATOM     35  O   UNL     1      -7.193  10.679  20.628  0.00  0.00    +0.000 OA
ENDBRANCH  30  31
ENDBRANCH   7  30
TORSDOF 8
ENDMDL
MODEL 9
REMARK VINA RESULT:      -7.1      1.818      2.428
REMARK  Name = 
REMARK  9 active torsions:
REMARK  status: ('A' for Active; 'I' for Inactive)
REMARK    1  A    between atoms: C_1  and  O_2
REMARK    2  A    between atoms: O_2  and  C_3
REMARK    3  A    between atoms: C_5  and  C_6
REMARK    4  A    between atoms: N_12  and  C_13
REMARK    5  A    between atoms: C_13  and  C_14
REMARK    6  A    between atoms: C_22  and  C_23
REMARK    7  A    between atoms: C_27  and  O_28
REMARK    8  A    between atoms: O_28  and  C_29
REMARK    9  A    between atoms: C_29  and  C_30
REMARK                            x       y       z     vdW  Elec       q    Type
REMARK                         _______ _______ _______ _____ _____    ______ ____
ROOT
ATOM      1  C   UNL     1       0.959  10.617  17.928  0.00  0.00    +0.000 C 
ATOM      2  C   UNL     1       1.810  11.862  18.203  0.00  0.00    +0.000 C 
ATOM      3  C   UNL     1       1.502  12.440  19.571  0.00  0.00    +0.000 C 
ATOM      4  O   UNL     1       2.405  12.870  20.287  0.00  0.00    +0.000 OA
ATOM      5  N   UNL     1       0.142  12.481  19.925  0.00  0.00    +0.000 N 
ATOM      6  C   UNL     1      -0.102  12.924  21.303  0.00  0.00    +0.000 C 
ATOM      7  N   UNL     1      -1.490  13.212  21.680  0.00  0.00    +0.000 NA
ATOM      8  C   UNL     1      -2.411  12.196  21.214  0.00  0.00    +0.000 C 
ATOM      9  S   UNL     1      -2.482  12.246  19.429  0.00  0.00    +0.000 S 
ATOM     10  C   UNL     1      -0.819  11.860  19.132  0.00  0.00    +0.000 C 
ATOM     11  C   UNL     1      -0.466  10.953  18.188  0.00  0.00    +0.000 C 
ENDROOT
BRANCH   1  14
ATOM     12  C   UNL     1       1.074   8.112  20.778  0.00  0.00    +0.000 A 
ATOM     13  C   UNL     1       0.917   9.319  20.086  0.00  0.00    +0.000 A 
ATOM     14  C   UNL     1       1.434   9.471  18.798  0.00  0.00    +0.000 A 
ATOM     15  C   UNL     1       2.237   8.456  18.273  0.00  0.00    +0.000 A 
ATOM     16  C   UNL     1       2.435   7.282  18.963  0.00  0.00    +0.000 A 
ATOM     17  C   UNL     1       1.881   7.099  20.229  0.00  0.00    +0.000 A 
BRANCH  12  19
ATOM     18  C   UNL     1      -0.129   9.017  22.608  0.00  0.00    +0.000 C 
ATOM     19  O   UNL     1       0.444   7.872  21.973  0.00  0.00    +0.000 OA
ENDBRANCH  12  19
BRANCH  17  20
ATOM     20  O   UNL     1       2.096   5.946  20.947  0.00  0.00    +0.000 OA
BRANCH  20  21
ATOM     21  C   UNL     1       1.289   4.844  20.505  0.00  0.00    +0.000 C 
BRANCH  21  22
ATOM     22  C   UNL     1       2.036   3.846  19.669  0.00  0.00    +0.000 A 
ATOM     23  C   UNL     1       1.664   3.551  18.359  0.00  0.00    +0.000 A 
ATOM     24  C   UNL     1       2.347   2.568  17.649  0.00  0.00    +0.000 A 
ATOM     25  C   UNL     1       3.414   1.891  18.239  0.00  0.00    +0.000 A 
ATOM     26  C   UNL     1       3.820   2.209  19.532  0.00  0.00    +0.000 A 
ATOM     27  C   UNL     1       3.139   3.190  20.243  0.00  0.00    +0.000 A 
ENDBRANCH  21  22
ENDBRANCH  20  21
ENDBRANCH  17  20
ENDBRANCH   1  14
BRANCH  11  28
ATOM     28  C   UNL     1      -1.557  10.388  17.292  0.00  0.00    +0.000 C 
ATOM     29  N   UNL     1      -2.460   9.920  16.549  0.00  0.00    +0.000 NA
ENDBRANCH  11  28
BRANCH   7  30
ATOM     30  C   UNL     1      -1.613  13.299  23.152  0.00  0.00    +0.000 C 
BRANCH  30  31
ATOM     31  C   UNL     1      -3.022  13.269  23.619  0.00  0.00    +0.000 A 
ATOM     32  C   UNL     1      -3.779  12.325  24.275  0.00  0.00    +0.000 A 
ATOM     33  C   UNL     1      -5.076  12.875  24.402  0.00  0.00    +0.000 A 
ATOM     34  C   UNL     1      -5.022  14.121  23.815  0.00  0.00    +0.000 A 
ATOM     35  O   UNL     1      -3.777  14.370  23.340  0.00  0.00    +0.000 OA
ENDBRANCH  30  31
ENDBRANCH   7  30
TORSDOF 8
ENDMDL
