MODEL 1
REMARK VINA RESULT:      -6.3      0.000      0.000
REMARK  Name = 
REMARK  11 active torsions:
REMARK  status: ('A' for Active; 'I' for Inactive)
REMARK    1  A    between atoms: C_1  and  C_2
REMARK    2  A    between atoms: C_2  and  N_3
REMARK    3  A    between atoms: N_3  and  C_4
REMARK    4  A    between atoms: N_3  and  C_7
REMARK    5  A    between atoms: C_4  and  C_5
REMARK    6  A    between atoms: C_5  and  O_6
REMARK    7  A    between atoms: C_7  and  C_8
REMARK    8  A    between atoms: C_11  and  C_13
REMARK    9  A    between atoms: C_21  and  C_22
REMARK   10  A    between atoms: C_24  and  C_25
REMARK   11  A    between atoms: C_25  and  O_26
REMARK                            x       y       z     vdW  Elec       q    Type
REMARK                         _______ _______ _______ _____ _____    ______ ____
ROOT
ATOM      1  C   UNL     1      -2.385  11.180  18.138  0.00  0.00    +0.000 C 
ATOM      2  C   UNL     1      -1.384  10.267  18.831  0.00  0.00    +0.000 C 
ATOM      3  N   UNL     1      -0.324  11.154  19.251  0.00  0.00    +0.000 N 
ATOM      4  C   UNL     1       1.042  10.864  19.358  0.00  0.00    +0.000 C 
ATOM      5  O   UNL     1       1.841  11.795  19.479  0.00  0.00    +0.000 OA
ATOM      6  C   UNL     1      -0.834  12.510  19.428  0.00  0.00    +0.000 C 
ATOM      7  C   UNL     1      -2.313  12.482  18.972  0.00  0.00    +0.000 C 
ENDROOT
BRANCH   4   8
ATOM      8  C   UNL     1       1.500   9.463  19.296  0.00  0.00    +0.000 A 
ATOM      9  S   UNL     1       2.112   8.810  17.838  0.00  0.00    +0.000 S 
ATOM     10  C   UNL     1       2.502   7.307  18.545  0.00  0.00    +0.000 A 
ATOM     11  C   UNL     1       3.199   6.252  17.924  0.00  0.00    +0.000 A 
ATOM     12  C   UNL     1       3.349   5.047  18.606  0.00  0.00    +0.000 A 
ATOM     13  C   UNL     1       2.823   4.897  19.878  0.00  0.00    +0.000 A 
ATOM     14  C   UNL     1       2.163   5.967  20.503  0.00  0.00    +0.000 A 
ATOM     15  C   UNL     1       1.999   7.213  19.837  0.00  0.00    +0.000 A 
ATOM     16  C   UNL     1       1.375   8.462  20.267  0.00  0.00    +0.000 A 
ATOM     17  C   UNL     1       0.717   8.644  21.600  0.00  0.00    +0.000 C 
ENDBRANCH   4   8
BRANCH   1  18
ATOM     18  C   UNL     1      -3.713  10.434  17.941  0.00  0.00    +0.000 C 
BRANCH  18  19
ATOM     19  N   UNL     1      -4.497  10.799  16.738  0.00  0.00    +0.000 NA
BRANCH  19  21
ATOM     20  C   UNL     1      -6.540  11.763  17.902  0.00  0.00    +0.000 C 
ATOM     21  C   UNL     1      -5.326  12.001  17.008  0.00  0.00    +0.000 C 
ENDBRANCH  19  21
BRANCH  19  22
ATOM     22  C   UNL     1      -3.571  11.077  15.602  0.00  0.00    +0.000 C 
BRANCH  22  23
ATOM     23  C   UNL     1      -3.100   9.854  14.796  0.00  0.00    +0.000 C 
BRANCH  23  24
ATOM     24  O   UNL     1      -2.778  10.242  13.460  0.00  0.00    +0.000 OA
ATOM     25  H   UNL     1      -1.917  10.697  13.491  0.00  0.00    +0.000 HD
ENDBRANCH  23  24
ENDBRANCH  22  23
ENDBRANCH  19  22
ENDBRANCH  18  19
ENDBRANCH   1  18
BRANCH   7  26
ATOM     26  C   UNL     1      -3.251  12.610  20.174  0.00  0.00    +0.000 C 
BRANCH  26  27
ATOM     27  O   UNL     1      -4.239  13.619  20.011  0.00  0.00    +0.000 OA
ATOM     28  H   UNL     1      -5.059  13.358  20.477  0.00  0.00    +0.000 HD
ENDBRANCH  26  27
ENDBRANCH   7  26
TORSDOF 9
ENDMDL
MODEL 2
REMARK VINA RESULT:      -5.9      1.742      2.606
REMARK  Name = 
REMARK  11 active torsions:
REMARK  status: ('A' for Active; 'I' for Inactive)
REMARK    1  A    between atoms: C_1  and  C_2
REMARK    2  A    between atoms: C_2  and  N_3
REMARK    3  A    between atoms: N_3  and  C_4
REMARK    4  A    between atoms: N_3  and  C_7
REMARK    5  A    between atoms: C_4  and  C_5
REMARK    6  A    between atoms: C_5  and  O_6
REMARK    7  A    between atoms: C_7  and  C_8
REMARK    8  A    between atoms: C_11  and  C_13
REMARK    9  A    between atoms: C_21  and  C_22
REMARK   10  A    between atoms: C_24  and  C_25
REMARK   11  A    between atoms: C_25  and  O_26
REMARK                            x       y       z     vdW  Elec       q    Type
REMARK                         _______ _______ _______ _____ _____    ______ ____
ROOT
ATOM      1  C   UNL     1      -2.345  11.645  18.700  0.00  0.00    +0.000 C 
ATOM      2  C   UNL     1      -1.524  10.543  19.352  0.00  0.00    +0.000 C 
ATOM      3  N   UNL     1      -0.574  11.249  20.181  0.00  0.00    +0.000 N 
ATOM      4  C   UNL     1       0.735  10.865  20.499  0.00  0.00    +0.000 C 
ATOM      5  O   UNL     1       1.494  11.696  21.001  0.00  0.00    +0.000 OA
ATOM      6  C   UNL     1      -1.102  12.555  20.562  0.00  0.00    +0.000 C 
ATOM      7  C   UNL     1      -2.448  12.716  19.813  0.00  0.00    +0.000 C 
ENDROOT
BRANCH   4   8
ATOM      8  C   UNL     1       1.187   9.492  20.207  0.00  0.00    +0.000 A 
ATOM      9  S   UNL     1       1.221   8.305  21.438  0.00  0.00    +0.000 S 
ATOM     10  C   UNL     1       1.709   7.060  20.379  0.00  0.00    +0.000 A 
ATOM     11  C   UNL     1       1.823   5.693  20.700  0.00  0.00    +0.000 A 
ATOM     12  C   UNL     1       2.335   4.816  19.746  0.00  0.00    +0.000 A 
ATOM     13  C   UNL     1       2.717   5.285  18.502  0.00  0.00    +0.000 A 
ATOM     14  C   UNL     1       2.563   6.644  18.179  0.00  0.00    +0.000 A 
ATOM     15  C   UNL     1       2.039   7.564  19.127  0.00  0.00    +0.000 A 
ATOM     16  C   UNL     1       1.771   8.997  19.034  0.00  0.00    +0.000 A 
ATOM     17  C   UNL     1       2.061   9.818  17.815  0.00  0.00    +0.000 C 
ENDBRANCH   4   8
BRANCH   1  18
ATOM     18  C   UNL     1      -3.604  11.041  18.060  0.00  0.00    +0.000 C 
BRANCH  18  19
ATOM     19  N   UNL     1      -4.109  11.718  16.843  0.00  0.00    +0.000 NA
BRANCH  19  21
ATOM     20  C   UNL     1      -2.731  10.000  15.575  0.00  0.00    +0.000 C 
ATOM     21  C   UNL     1      -4.023  10.807  15.673  0.00  0.00    +0.000 C 
ENDBRANCH  19  21
BRANCH  19  22
ATOM     22  C   UNL     1      -5.527  12.130  17.051  0.00  0.00    +0.000 C 
BRANCH  22  23
ATOM     23  C   UNL     1      -6.175  11.686  18.374  0.00  0.00    +0.000 C 
BRANCH  23  24
ATOM     24  O   UNL     1      -7.163  10.686  18.125  0.00  0.00    +0.000 OA
ATOM     25  H   UNL     1      -7.819  11.073  17.518  0.00  0.00    +0.000 HD
ENDBRANCH  23  24
ENDBRANCH  22  23
ENDBRANCH  19  22
ENDBRANCH  18  19
ENDBRANCH   1  18
BRANCH   7  26
ATOM     26  C   UNL     1      -3.623  12.619  20.788  0.00  0.00    +0.000 C 
BRANCH  26  27
ATOM     27  O   UNL     1      -3.294  13.037  22.107  0.00  0.00    +0.000 OA
ATOM     28  H   UNL     1      -3.107  13.997  22.112  0.00  0.00    +0.000 HD
ENDBRANCH  26  27
ENDBRANCH   7  26
TORSDOF 9
ENDMDL
MODEL 3
REMARK VINA RESULT:      -5.9      7.360     10.314
REMARK  Name = 
REMARK  11 active torsions:
REMARK  status: ('A' for Active; 'I' for Inactive)
REMARK    1  A    between atoms: C_1  and  C_2
REMARK    2  A    between atoms: C_2  and  N_3
REMARK    3  A    between atoms: N_3  and  C_4
REMARK    4  A    between atoms: N_3  and  C_7
REMARK    5  A    between atoms: C_4  and  C_5
REMARK    6  A    between atoms: C_5  and  O_6
REMARK    7  A    between atoms: C_7  and  C_8
REMARK    8  A    between atoms: C_11  and  C_13
REMARK    9  A    between atoms: C_21  and  C_22
REMARK   10  A    between atoms: C_24  and  C_25
REMARK   11  A    between atoms: C_25  and  O_26
REMARK                            x       y       z     vdW  Elec       q    Type
REMARK                         _______ _______ _______ _____ _____    ______ ____
ROOT
ATOM      1  C   UNL     1       5.765   3.724  13.581  0.00  0.00    +0.000 C 
ATOM      2  C   UNL     1       5.339   4.484  14.829  0.00  0.00    +0.000 C 
ATOM      3  N   UNL     1       6.555   4.618  15.598  0.00  0.00    +0.000 N 
ATOM      4  C   UNL     1       6.686   4.649  16.992  0.00  0.00    +0.000 C 
ATOM      5  O   UNL     1       7.806   4.508  17.488  0.00  0.00    +0.000 OA
ATOM      6  C   UNL     1       7.720   4.573  14.721  0.00  0.00    +0.000 C 
ATOM      7  C   UNL     1       7.184   4.275  13.299  0.00  0.00    +0.000 C 
ENDROOT
BRANCH   4   8
ATOM      8  C   UNL     1       5.489   4.820  17.836  0.00  0.00    +0.000 A 
ATOM      9  S   UNL     1       4.809   3.487  18.665  0.00  0.00    +0.000 S 
ATOM     10  C   UNL     1       3.624   4.434  19.445  0.00  0.00    +0.000 A 
ATOM     11  C   UNL     1       2.729   3.992  20.440  0.00  0.00    +0.000 A 
ATOM     12  C   UNL     1       1.751   4.867  20.905  0.00  0.00    +0.000 A 
ATOM     13  C   UNL     1       1.667   6.153  20.398  0.00  0.00    +0.000 A 
ATOM     14  C   UNL     1       2.588   6.596  19.434  0.00  0.00    +0.000 A 
ATOM     15  C   UNL     1       3.603   5.729  18.943  0.00  0.00    +0.000 A 
ATOM     16  C   UNL     1       4.670   5.948  17.969  0.00  0.00    +0.000 A 
ATOM     17  C   UNL     1       4.872   7.240  17.237  0.00  0.00    +0.000 C 
ENDBRANCH   4   8
BRANCH   1  18
ATOM     18  C   UNL     1       4.655   3.806  12.523  0.00  0.00    +0.000 C 
BRANCH  18  19
ATOM     19  N   UNL     1       4.914   3.098  11.247  0.00  0.00    +0.000 NA
BRANCH  19  21
ATOM     20  C   UNL     1       6.850   1.504  10.838  0.00  0.00    +0.000 C 
ATOM     21  C   UNL     1       5.503   1.761  11.510  0.00  0.00    +0.000 C 
ENDBRANCH  19  21
BRANCH  19  22
ATOM     22  C   UNL     1       3.637   2.941  10.493  0.00  0.00    +0.000 C 
BRANCH  22  23
ATOM     23  C   UNL     1       3.000   4.236   9.959  0.00  0.00    +0.000 C 
BRANCH  23  24
ATOM     24  O   UNL     1       3.047   4.252   8.532  0.00  0.00    +0.000 OA
ATOM     25  H   UNL     1       2.150   4.055   8.211  0.00  0.00    +0.000 HD
ENDBRANCH  23  24
ENDBRANCH  22  23
ENDBRANCH  19  22
ENDBRANCH  18  19
ENDBRANCH   1  18
BRANCH   7  26
ATOM     26  C   UNL     1       7.303   5.513  12.407  0.00  0.00    +0.000 C 
BRANCH  26  27
ATOM     27  O   UNL     1       8.486   6.264  12.643  0.00  0.00    +0.000 OA
ATOM     28  H   UNL     1       9.270   5.687  12.542  0.00  0.00    +0.000 HD
ENDBRANCH  26  27
ENDBRANCH   7  26
TORSDOF 9
ENDMDL
MODEL 4
REMARK VINA RESULT:      -5.8      1.038      1.610
REMARK  Name = 
REMARK  11 active torsions:
REMARK  status: ('A' for Active; 'I' for Inactive)
REMARK    1  A    between atoms: C_1  and  C_2
REMARK    2  A    between atoms: C_2  and  N_3
REMARK    3  A    between atoms: N_3  and  C_4
REMARK    4  A    between atoms: N_3  and  C_7
REMARK    5  A    between atoms: C_4  and  C_5
REMARK    6  A    between atoms: C_5  and  O_6
REMARK    7  A    between atoms: C_7  and  C_8
REMARK    8  A    between atoms: C_11  and  C_13
REMARK    9  A    between atoms: C_21  and  C_22
REMARK   10  A    between atoms: C_24  and  C_25
REMARK   11  A    between atoms: C_25  and  O_26
REMARK                            x       y       z     vdW  Elec       q    Type
REMARK                         _______ _______ _______ _____ _____    ______ ____
ROOT
ATOM      1  C   UNL     1      -2.649  11.279  18.486  0.00  0.00    +0.000 C 
ATOM      2  C   UNL     1      -1.721  10.310  19.205  0.00  0.00    +0.000 C 
ATOM      3  N   UNL     1      -0.752  11.161  19.857  0.00  0.00    +0.000 N 
ATOM      4  C   UNL     1       0.596  10.881  20.115  0.00  0.00    +0.000 C 
ATOM      5  O   UNL     1       1.343  11.804  20.444  0.00  0.00    +0.000 OA
ATOM      6  C   UNL     1      -1.322  12.480  20.111  0.00  0.00    +0.000 C 
ATOM      7  C   UNL     1      -2.727  12.481  19.459  0.00  0.00    +0.000 C 
ENDROOT
BRANCH   4   8
ATOM      8  C   UNL     1       1.099   9.503  19.963  0.00  0.00    +0.000 A 
ATOM      9  S   UNL     1       1.100   8.425  21.291  0.00  0.00    +0.000 S 
ATOM     10  C   UNL     1       1.677   7.112  20.368  0.00  0.00    +0.000 A 
ATOM     11  C   UNL     1       1.811   5.781  20.809  0.00  0.00    +0.000 A 
ATOM     12  C   UNL     1       2.396   4.843  19.961  0.00  0.00    +0.000 A 
ATOM     13  C   UNL     1       2.833   5.220  18.702  0.00  0.00    +0.000 A 
ATOM     14  C   UNL     1       2.659   6.541  18.257  0.00  0.00    +0.000 A 
ATOM     15  C   UNL     1       2.060   7.520  19.096  0.00  0.00    +0.000 A 
ATOM     16  C   UNL     1       1.759   8.931  18.868  0.00  0.00    +0.000 A 
ATOM     17  C   UNL     1       2.092   9.656  17.600  0.00  0.00    +0.000 C 
ENDBRANCH   4   8
BRANCH   1  18
ATOM     18  C   UNL     1      -3.916  10.540  18.033  0.00  0.00    +0.000 C 
BRANCH  18  19
ATOM     19  N   UNL     1      -4.481  10.951  16.726  0.00  0.00    +0.000 NA
BRANCH  19  21
ATOM     20  C   UNL     1      -6.548  11.944  17.823  0.00  0.00    +0.000 C 
ATOM     21  C   UNL     1      -5.352  12.142  16.894  0.00  0.00    +0.000 C 
ENDBRANCH  19  21
BRANCH  19  22
ATOM     22  C   UNL     1      -3.374  11.273  15.780  0.00  0.00    +0.000 C 
BRANCH  22  23
ATOM     23  C   UNL     1      -2.920  10.131  14.854  0.00  0.00    +0.000 C 
BRANCH  23  24
ATOM     24  O   UNL     1      -3.725  10.107  13.675  0.00  0.00    +0.000 OA
ATOM     25  H   UNL     1      -4.125   9.221  13.616  0.00  0.00    +0.000 HD
ENDBRANCH  23  24
ENDBRANCH  22  23
ENDBRANCH  19  22
ENDBRANCH  18  19
ENDBRANCH   1  18
BRANCH   7  26
ATOM     26  C   UNL     1      -3.818  12.459  20.531  0.00  0.00    +0.000 C 
BRANCH  26  27
ATOM     27  O   UNL     1      -3.973  13.704  21.200  0.00  0.00    +0.000 OA
ATOM     28  H   UNL     1      -4.299  13.552  22.111  0.00  0.00    +0.000 HD
ENDBRANCH  26  27
ENDBRANCH   7  26
TORSDOF 9
ENDMDL
MODEL 5
REMARK VINA RESULT:      -5.8      1.840      2.397
REMARK  Name = 
REMARK  11 active torsions:
REMARK  status: ('A' for Active; 'I' for Inactive)
REMARK    1  A    between atoms: C_1  and  C_2
REMARK    2  A    between atoms: C_2  and  N_3
REMARK    3  A    between atoms: N_3  and  C_4
REMARK    4  A    between atoms: N_3  and  C_7
REMARK    5  A    between atoms: C_4  and  C_5
REMARK    6  A    between atoms: C_5  and  O_6
REMARK    7  A    between atoms: C_7  and  C_8
REMARK    8  A    between atoms: C_11  and  C_13
REMARK    9  A    between atoms: C_21  and  C_22
REMARK   10  A    between atoms: C_24  and  C_25
REMARK   11  A    between atoms: C_25  and  O_26
REMARK                            x       y       z     vdW  Elec       q    Type
REMARK                         _______ _______ _______ _____ _____    ______ ____
ROOT
ATOM      1  C   UNL     1      -2.623  12.001  19.015  0.00  0.00    +0.000 C 
ATOM      2  C   UNL     1      -1.646  10.928  19.473  0.00  0.00    +0.000 C 
ATOM      3  N   UNL     1      -0.665  11.649  20.253  0.00  0.00    +0.000 N 
ATOM      4  C   UNL     1       0.698  11.358  20.391  0.00  0.00    +0.000 C 
ATOM      5  O   UNL     1       1.442  12.212  20.878  0.00  0.00    +0.000 OA
ATOM      6  C   UNL     1      -1.247  12.868  20.802  0.00  0.00    +0.000 C 
ATOM      7  C   UNL     1      -2.680  12.967  20.222  0.00  0.00    +0.000 C 
ENDROOT
BRANCH   4   8
ATOM      8  C   UNL     1       1.221  10.059  19.930  0.00  0.00    +0.000 A 
ATOM      9  S   UNL     1       1.745   9.853  18.315  0.00  0.00    +0.000 S 
ATOM     10  C   UNL     1       2.268   8.249  18.571  0.00  0.00    +0.000 A 
ATOM     11  C   UNL     1       2.965   7.445  17.649  0.00  0.00    +0.000 A 
ATOM     12  C   UNL     1       3.231   6.117  17.976  0.00  0.00    +0.000 A 
ATOM     13  C   UNL     1       2.818   5.603  19.193  0.00  0.00    +0.000 A 
ATOM     14  C   UNL     1       2.157   6.425  20.122  0.00  0.00    +0.000 A 
ATOM     15  C   UNL     1       1.876   7.786  19.821  0.00  0.00    +0.000 A 
ATOM     16  C   UNL     1       1.226   8.832  20.607  0.00  0.00    +0.000 A 
ATOM     17  C   UNL     1       0.669   8.614  21.980  0.00  0.00    +0.000 C 
ENDBRANCH   4   8
BRANCH   1  18
ATOM     18  C   UNL     1      -3.895  11.339  18.465  0.00  0.00    +0.000 C 
BRANCH  18  19
ATOM     19  N   UNL     1      -4.419  11.884  17.191  0.00  0.00    +0.000 NA
BRANCH  19  21
ATOM     20  C   UNL     1      -2.785  10.811  15.566  0.00  0.00    +0.000 C 
ATOM     21  C   UNL     1      -4.216  10.907  16.091  0.00  0.00    +0.000 C 
ENDBRANCH  19  21
BRANCH  19  22
ATOM     22  C   UNL     1      -5.874  12.180  17.333  0.00  0.00    +0.000 C 
BRANCH  22  23
ATOM     23  C   UNL     1      -6.690  11.183  18.173  0.00  0.00    +0.000 C 
BRANCH  23  24
ATOM     24  O   UNL     1      -7.678  11.877  18.935  0.00  0.00    +0.000 OA
ATOM     25  H   UNL     1      -7.276  12.103  19.793  0.00  0.00    +0.000 HD
ENDBRANCH  23  24
ENDBRANCH  22  23
ENDBRANCH  19  22
ENDBRANCH  18  19
ENDBRANCH   1  18
BRANCH   7  26
ATOM     26  C   UNL     1      -3.722  12.689  21.308  0.00  0.00    +0.000 C 
BRANCH  26  27
ATOM     27  O   UNL     1      -3.150  12.289  22.546  0.00  0.00    +0.000 OA
ATOM     28  H   UNL     1      -3.853  11.974  23.149  0.00  0.00    +0.000 HD
ENDBRANCH  26  27
ENDBRANCH   7  26
TORSDOF 9
ENDMDL
MODEL 6
REMARK VINA RESULT:      -5.8      1.897      2.760
REMARK  Name = 
REMARK  11 active torsions:
REMARK  status: ('A' for Active; 'I' for Inactive)
REMARK    1  A    between atoms: C_1  and  C_2
REMARK    2  A    between atoms: C_2  and  N_3
REMARK    3  A    between atoms: N_3  and  C_4
REMARK    4  A    between atoms: N_3  and  C_7
REMARK    5  A    between atoms: C_4  and  C_5
REMARK    6  A    between atoms: C_5  and  O_6
REMARK    7  A    between atoms: C_7  and  C_8
REMARK    8  A    between atoms: C_11  and  C_13
REMARK    9  A    between atoms: C_21  and  C_22
REMARK   10  A    between atoms: C_24  and  C_25
REMARK   11  A    between atoms: C_25  and  O_26
REMARK                            x       y       z     vdW  Elec       q    Type
REMARK                         _______ _______ _______ _____ _____    ______ ____
ROOT
ATOM      1  C   UNL     1      -2.717  11.924  19.109  0.00  0.00    +0.000 C 
ATOM      2  C   UNL     1      -1.796  10.850  19.670  0.00  0.00    +0.000 C 
ATOM      3  N   UNL     1      -0.831  11.582  20.457  0.00  0.00    +0.000 N 
ATOM      4  C   UNL     1       0.514  11.260  20.677  0.00  0.00    +0.000 C 
ATOM      5  O   UNL     1       1.261  12.117  21.155  0.00  0.00    +0.000 OA
ATOM      6  C   UNL     1      -1.400  12.845  20.915  0.00  0.00    +0.000 C 
ATOM      7  C   UNL     1      -2.800  12.954  20.261  0.00  0.00    +0.000 C 
ENDROOT
BRANCH   4   8
ATOM      8  C   UNL     1       1.017   9.924  20.310  0.00  0.00    +0.000 A 
ATOM      9  S   UNL     1       1.119   8.680  21.481  0.00  0.00    +0.000 S 
ATOM     10  C   UNL     1       1.641   7.510  20.354  0.00  0.00    +0.000 A 
ATOM     11  C   UNL     1       1.816   6.135  20.605  0.00  0.00    +0.000 A 
ATOM     12  C   UNL     1       2.348   5.327  19.602  0.00  0.00    +0.000 A 
ATOM     13  C   UNL     1       2.692   5.873  18.377  0.00  0.00    +0.000 A 
ATOM     14  C   UNL     1       2.477   7.238  18.124  0.00  0.00    +0.000 A 
ATOM     15  C   UNL     1       1.930   8.089  19.125  0.00  0.00    +0.000 A 
ATOM     16  C   UNL     1       1.603   9.512  19.107  0.00  0.00    +0.000 A 
ATOM     17  C   UNL     1       1.840  10.403  17.926  0.00  0.00    +0.000 C 
ENDBRANCH   4   8
BRANCH   1  18
ATOM     18  C   UNL     1      -3.981  11.270  18.533  0.00  0.00    +0.000 C 
BRANCH  18  19
ATOM     19  N   UNL     1      -4.493  11.840  17.264  0.00  0.00    +0.000 NA
BRANCH  19  21
ATOM     20  C   UNL     1      -2.756  10.950  15.636  0.00  0.00    +0.000 C 
ATOM     21  C   UNL     1      -4.199  10.923  16.133  0.00  0.00    +0.000 C 
ENDBRANCH  19  21
BRANCH  19  22
ATOM     22  C   UNL     1      -5.966  12.050  17.367  0.00  0.00    +0.000 C 
BRANCH  22  23
ATOM     23  C   UNL     1      -6.456  13.501  17.221  0.00  0.00    +0.000 C 
BRANCH  23  24
ATOM     24  O   UNL     1      -6.000  14.285  18.324  0.00  0.00    +0.000 OA
ATOM     25  H   UNL     1      -6.555  15.084  18.359  0.00  0.00    +0.000 HD
ENDBRANCH  23  24
ENDBRANCH  22  23
ENDBRANCH  19  22
ENDBRANCH  18  19
ENDBRANCH   1  18
BRANCH   7  26
ATOM     26  C   UNL     1      -3.900  12.764  21.308  0.00  0.00    +0.000 C 
BRANCH  26  27
ATOM     27  O   UNL     1      -5.058  13.550  21.055  0.00  0.00    +0.000 OA
ATOM     28  H   UNL     1      -5.809  13.212  21.584  0.00  0.00    +0.000 HD
ENDBRANCH  26  27
ENDBRANCH   7  26
TORSDOF 9
ENDMDL
MODEL 7
REMARK VINA RESULT:      -5.7      3.602      7.096
REMARK  Name = 
REMARK  11 active torsions:
REMARK  status: ('A' for Active; 'I' for Inactive)
REMARK    1  A    between atoms: C_1  and  C_2
REMARK    2  A    between atoms: C_2  and  N_3
REMARK    3  A    between atoms: N_3  and  C_4
REMARK    4  A    between atoms: N_3  and  C_7
REMARK    5  A    between atoms: C_4  and  C_5
REMARK    6  A    between atoms: C_5  and  O_6
REMARK    7  A    between atoms: C_7  and  C_8
REMARK    8  A    between atoms: C_11  and  C_13
REMARK    9  A    between atoms: C_21  and  C_22
REMARK   10  A    between atoms: C_24  and  C_25
REMARK   11  A    between atoms: C_25  and  O_26
REMARK                            x       y       z     vdW  Elec       q    Type
REMARK                         _______ _______ _______ _____ _____    ______ ____
ROOT
ATOM      1  C   UNL     1      -0.758  10.787  19.115  0.00  0.00    +0.000 C 
ATOM      2  C   UNL     1      -0.010  12.077  18.814  0.00  0.00    +0.000 C 
ATOM      3  N   UNL     1       0.660  12.398  20.054  0.00  0.00    +0.000 N 
ATOM      4  C   UNL     1       0.952  13.670  20.563  0.00  0.00    +0.000 C 
ATOM      5  O   UNL     1       1.291  13.774  21.744  0.00  0.00    +0.000 OA
ATOM      6  C   UNL     1       0.888  11.189  20.838  0.00  0.00    +0.000 C 
ATOM      7  C   UNL     1       0.202  10.034  20.067  0.00  0.00    +0.000 C 
ENDROOT
BRANCH   4   8
ATOM      8  C   UNL     1       0.824  14.854  19.694  0.00  0.00    +0.000 A 
ATOM      9  S   UNL     1       2.202  15.538  18.946  0.00  0.00    +0.000 S 
ATOM     10  C   UNL     1       1.297  16.703  18.090  0.00  0.00    +0.000 A 
ATOM     11  C   UNL     1       1.794  17.590  17.115  0.00  0.00    +0.000 A 
ATOM     12  C   UNL     1       0.941  18.554  16.580  0.00  0.00    +0.000 A 
ATOM     13  C   UNL     1      -0.375  18.629  17.001  0.00  0.00    +0.000 A 
ATOM     14  C   UNL     1      -0.871  17.715  17.945  0.00  0.00    +0.000 A 
ATOM     15  C   UNL     1      -0.029  16.716  18.506  0.00  0.00    +0.000 A 
ATOM     16  C   UNL     1      -0.301  15.659  19.476  0.00  0.00    +0.000 A 
ATOM     17  C   UNL     1      -1.636  15.451  20.125  0.00  0.00    +0.000 C 
ENDBRANCH   4   8
BRANCH   1  18
ATOM     18  C   UNL     1      -1.237  10.150  17.801  0.00  0.00    +0.000 C 
BRANCH  18  19
ATOM     19  N   UNL     1      -2.389  10.805  17.139  0.00  0.00    +0.000 NA
BRANCH  19  21
ATOM     20  C   UNL     1      -2.881  10.194  14.721  0.00  0.00    +0.000 C 
ATOM     21  C   UNL     1      -3.049   9.861  16.201  0.00  0.00    +0.000 C 
ENDBRANCH  19  21
BRANCH  19  22
ATOM     22  C   UNL     1      -3.371  11.254  18.168  0.00  0.00    +0.000 C 
BRANCH  22  23
ATOM     23  C   UNL     1      -4.822  11.431  17.689  0.00  0.00    +0.000 C 
BRANCH  23  24
ATOM     24  O   UNL     1      -5.723  10.842  18.628  0.00  0.00    +0.000 OA
ATOM     25  H   UNL     1      -6.585  10.752  18.184  0.00  0.00    +0.000 HD
ENDBRANCH  23  24
ENDBRANCH  22  23
ENDBRANCH  19  22
ENDBRANCH  18  19
ENDBRANCH   1  18
BRANCH   7  26
ATOM     26  C   UNL     1       1.247   9.109  19.439  0.00  0.00    +0.000 C 
BRANCH  26  27
ATOM     27  O   UNL     1       1.692   8.085  20.318  0.00  0.00    +0.000 OA
ATOM     28  H   UNL     1       2.344   7.516  19.860  0.00  0.00    +0.000 HD
ENDBRANCH  26  27
ENDBRANCH   7  26
TORSDOF 9
ENDMDL
MODEL 8
REMARK VINA RESULT:      -5.7      3.588      6.247
REMARK  Name = 
REMARK  11 active torsions:
REMARK  status: ('A' for Active; 'I' for Inactive)
REMARK    1  A    between atoms: C_1  and  C_2
REMARK    2  A    between atoms: C_2  and  N_3
REMARK    3  A    between atoms: N_3  and  C_4
REMARK    4  A    between atoms: N_3  and  C_7
REMARK    5  A    between atoms: C_4  and  C_5
REMARK    6  A    between atoms: C_5  and  O_6
REMARK    7  A    between atoms: C_7  and  C_8
REMARK    8  A    between atoms: C_11  and  C_13
REMARK    9  A    between atoms: C_21  and  C_22
REMARK   10  A    between atoms: C_24  and  C_25
REMARK   11  A    between atoms: C_25  and  O_26
REMARK                            x       y       z     vdW  Elec       q    Type
REMARK                         _______ _______ _______ _____ _____    ______ ____
ROOT
ATOM      1  C   UNL     1      -3.880  10.753  17.788  0.00  0.00    +0.000 C 
ATOM      2  C   UNL     1      -2.941  11.755  18.444  0.00  0.00    +0.000 C 
ATOM      3  N   UNL     1      -1.676  11.061  18.521  0.00  0.00    +0.000 N 
ATOM      4  C   UNL     1      -0.686  11.193  19.502  0.00  0.00    +0.000 C 
ATOM      5  O   UNL     1       0.210  10.349  19.562  0.00  0.00    +0.000 OA
ATOM      6  C   UNL     1      -1.591  10.040  17.482  0.00  0.00    +0.000 C 
ATOM      7  C   UNL     1      -2.968  10.026  16.771  0.00  0.00    +0.000 C 
ENDROOT
BRANCH   4   8
ATOM      8  C   UNL     1      -0.747  12.316  20.456  0.00  0.00    +0.000 A 
ATOM      9  S   UNL     1      -0.312  13.897  19.970  0.00  0.00    +0.000 S 
ATOM     10  C   UNL     1      -0.720  14.592  21.473  0.00  0.00    +0.000 A 
ATOM     11  C   UNL     1      -0.735  15.968  21.776  0.00  0.00    +0.000 A 
ATOM     12  C   UNL     1      -0.993  16.369  23.085  0.00  0.00    +0.000 A 
ATOM     13  C   UNL     1      -1.237  15.425  24.068  0.00  0.00    +0.000 A 
ATOM     14  C   UNL     1      -1.258  14.057  23.747  0.00  0.00    +0.000 A 
ATOM     15  C   UNL     1      -1.004  13.615  22.419  0.00  0.00    +0.000 A 
ATOM     16  C   UNL     1      -0.982  12.276  21.836  0.00  0.00    +0.000 A 
ATOM     17  C   UNL     1      -1.217  11.024  22.625  0.00  0.00    +0.000 C 
ENDBRANCH   4   8
BRANCH   1  18
ATOM     18  C   UNL     1      -5.163  11.467  17.337  0.00  0.00    +0.000 C 
BRANCH  18  19
ATOM     19  N   UNL     1      -6.153  11.768  18.398  0.00  0.00    +0.000 NA
BRANCH  19  21
ATOM     20  C   UNL     1      -6.826  13.715  16.910  0.00  0.00    +0.000 C 
ATOM     21  C   UNL     1      -7.259  12.594  17.851  0.00  0.00    +0.000 C 
ENDBRANCH  19  21
BRANCH  19  22
ATOM     22  C   UNL     1      -6.704  10.494  18.944  0.00  0.00    +0.000 C 
BRANCH  22  23
ATOM     23  C   UNL     1      -7.418  10.592  20.304  0.00  0.00    +0.000 C 
BRANCH  23  24
ATOM     24  O   UNL     1      -6.616  11.330  21.226  0.00  0.00    +0.000 OA
ATOM     25  H   UNL     1      -6.058  11.934  20.705  0.00  0.00    +0.000 HD
ENDBRANCH  23  24
ENDBRANCH  22  23
ENDBRANCH  19  22
ENDBRANCH  18  19
ENDBRANCH   1  18
BRANCH   7  26
ATOM     26  C   UNL     1      -2.855  10.619  15.365  0.00  0.00    +0.000 C 
BRANCH  26  27
ATOM     27  O   UNL     1      -3.735  10.013  14.428  0.00  0.00    +0.000 OA
ATOM     28  H   UNL     1      -4.001   9.127  14.748  0.00  0.00    +0.000 HD
ENDBRANCH  26  27
ENDBRANCH   7  26
TORSDOF 9
ENDMDL
MODEL 9
REMARK VINA RESULT:      -5.7      3.609      7.429
REMARK  Name = 
REMARK  11 active torsions:
REMARK  status: ('A' for Active; 'I' for Inactive)
REMARK    1  A    between atoms: C_1  and  C_2
REMARK    2  A    between atoms: C_2  and  N_3
REMARK    3  A    between atoms: N_3  and  C_4
REMARK    4  A    between atoms: N_3  and  C_7
REMARK    5  A    between atoms: C_4  and  C_5
REMARK    6  A    between atoms: C_5  and  O_6
REMARK    7  A    between atoms: C_7  and  C_8
REMARK    8  A    between atoms: C_11  and  C_13
REMARK    9  A    between atoms: C_21  and  C_22
REMARK   10  A    between atoms: C_24  and  C_25
REMARK   11  A    between atoms: C_25  and  O_26
REMARK                            x       y       z     vdW  Elec       q    Type
REMARK                         _______ _______ _______ _____ _____    ______ ____
ROOT
ATOM      1  C   UNL     1      -1.530  11.028  18.922  0.00  0.00    +0.000 C 
ATOM      2  C   UNL     1      -1.587  12.110  19.991  0.00  0.00    +0.000 C 
ATOM      3  N   UNL     1      -1.010  11.487  21.160  0.00  0.00    +0.000 N 
ATOM      4  C   UNL     1      -1.334  11.722  22.502  0.00  0.00    +0.000 C 
ATOM      5  O   UNL     1      -0.936  10.928  23.358  0.00  0.00    +0.000 OA
ATOM      6  C   UNL     1      -0.095  10.419  20.769  0.00  0.00    +0.000 C 
ATOM      7  C   UNL     1      -0.201  10.297  19.228  0.00  0.00    +0.000 C 
ENDROOT
BRANCH   4   8
ATOM      8  C   UNL     1      -2.161  12.888  22.862  0.00  0.00    +0.000 A 
ATOM      9  S   UNL     1      -3.865  12.755  22.944  0.00  0.00    +0.000 S 
ATOM     10  C   UNL     1      -4.075  14.359  23.485  0.00  0.00    +0.000 A 
ATOM     11  C   UNL     1      -5.287  14.943  23.904  0.00  0.00    +0.000 A 
ATOM     12  C   UNL     1      -5.309  16.299  24.221  0.00  0.00    +0.000 A 
ATOM     13  C   UNL     1      -4.153  17.055  24.131  0.00  0.00    +0.000 A 
ATOM     14  C   UNL     1      -2.942  16.454  23.750  0.00  0.00    +0.000 A 
ATOM     15  C   UNL     1      -2.884  15.071  23.425  0.00  0.00    +0.000 A 
ATOM     16  C   UNL     1      -1.766  14.222  23.022  0.00  0.00    +0.000 A 
ATOM     17  C   UNL     1      -0.366  14.723  22.838  0.00  0.00    +0.000 C 
ENDBRANCH   4   8
BRANCH   1  18
ATOM     18  C   UNL     1      -1.796  11.650  17.543  0.00  0.00    +0.000 C 
BRANCH  18  19
ATOM     19  N   UNL     1      -2.987  11.149  16.818  0.00  0.00    +0.000 NA
BRANCH  19  21
ATOM     20  C   UNL     1      -3.051  10.108  14.500  0.00  0.00    +0.000 C 
ATOM     21  C   UNL     1      -2.620   9.994  15.960  0.00  0.00    +0.000 C 
ENDBRANCH  19  21
BRANCH  19  22
ATOM     22  C   UNL     1      -4.031  10.731  17.797  0.00  0.00    +0.000 C 
BRANCH  22  23
ATOM     23  C   UNL     1      -5.272  11.636  17.893  0.00  0.00    +0.000 C 
BRANCH  23  24
ATOM     24  O   UNL     1      -5.210  12.660  16.900  0.00  0.00    +0.000 OA
ATOM     25  H   UNL     1      -4.527  13.295  17.181  0.00  0.00    +0.000 HD
ENDBRANCH  23  24
ENDBRANCH  22  23
ENDBRANCH  19  22
ENDBRANCH  18  19
ENDBRANCH   1  18
BRANCH   7  26
ATOM     26  C   UNL     1       1.071  10.821  18.558  0.00  0.00    +0.000 C 
BRANCH  26  27
ATOM     27  O   UNL     1       1.511  10.010  17.477  0.00  0.00    +0.000 OA
ATOM     28  H   UNL     1       1.046  10.270  16.656  0.00  0.00    +0.000 HD
ENDBRANCH  26  27
ENDBRANCH   7  26
TORSDOF 9
ENDMDL
