MODEL 1
REMARK VINA RESULT:      -8.7      0.000      0.000
REMARK  Name = 
REMARK  4 active torsions:
REMARK  status: ('A' for Active; 'I' for Inactive)
REMARK    1  A    between atoms: C_1  and  C_2
REMARK    2  A    between atoms: C_2  and  C_3
REMARK    3  A    between atoms: C_2  and  C_11
REMARK    4  A    between atoms: C_3  and  C_5
REMARK                            x       y       z     vdW  Elec       q    Type
REMARK                         _______ _______ _______ _____ _____    ______ ____
ROOT
ATOM      1  C   UNL     1       2.985   3.233  18.738  0.00  0.00    +0.000 C 
ATOM      2  C   UNL     1       1.493   3.207  18.970  0.00  0.00    +0.000 C 
ATOM      3  O   UNL     1       0.631   3.409  18.132  0.00  0.00    +0.000 OA
ATOM      4  N   UNL     1       1.259   2.952  20.278  0.00  0.00    +0.000 N 
ATOM      5  C   UNL     1       2.370   3.088  21.047  0.00  0.00    +0.000 C 
ATOM      6  O   UNL     1       2.364   3.052  22.266  0.00  0.00    +0.000 OA
ATOM      7  C   UNL     1       3.571   3.260  20.164  0.00  0.00    +0.000 C 
ATOM      8  C   UNL     1       4.493   2.085  20.222  0.00  0.00    +0.000 C 
ATOM      9  O   UNL     1       5.266   1.808  21.120  0.00  0.00    +0.000 OA
ATOM     10  N   UNL     1       4.326   1.346  19.096  0.00  0.00    +0.000 N 
ATOM     11  C   UNL     1       3.465   1.899  18.211  0.00  0.00    +0.000 C 
ATOM     12  O   UNL     1       3.150   1.394  17.146  0.00  0.00    +0.000 OA
ATOM     13  H   UNL     1       0.331   2.916  20.671  0.00  0.00    +0.000 HD
ATOM     14  H   UNL     1       4.811   0.474  18.935  0.00  0.00    +0.000 HD
ENDROOT
BRANCH   1  16
ATOM     15  C   UNL     1       4.346   3.955  16.662  0.00  0.00    +0.000 C 
ATOM     16  C   UNL     1       3.351   4.367  17.748  0.00  0.00    +0.000 C 
BRANCH  16  17
ATOM     17  C   UNL     1       3.921   5.579  18.488  0.00  0.00    +0.000 C 
ATOM     18  O   UNL     1       3.190   6.263  19.206  0.00  0.00    +0.000 OA
BRANCH  17  19
ATOM     19  C   UNL     1       5.361   5.967  18.353  0.00  0.00    +0.000 A 
ATOM     20  C   UNL     1       6.278   5.403  19.257  0.00  0.00    +0.000 A 
ATOM     21  C   UNL     1       7.610   5.818  19.270  0.00  0.00    +0.000 A 
ATOM     22  C   UNL     1       8.041   6.794  18.376  0.00  0.00    +0.000 A 
ATOM     23  C   UNL     1       7.152   7.321  17.441  0.00  0.00    +0.000 A 
ATOM     24  C   UNL     1       5.818   6.900  17.418  0.00  0.00    +0.000 A 
ENDBRANCH  17  19
ENDBRANCH  16  17
ENDBRANCH   1  16
TORSDOF 3
ENDMDL
MODEL 2
REMARK VINA RESULT:      -8.6      1.803      2.893
REMARK  Name = 
REMARK  4 active torsions:
REMARK  status: ('A' for Active; 'I' for Inactive)
REMARK    1  A    between atoms: C_1  and  C_2
REMARK    2  A    between atoms: C_2  and  C_3
REMARK    3  A    between atoms: C_2  and  C_11
REMARK    4  A    between atoms: C_3  and  C_5
REMARK                            x       y       z     vdW  Elec       q    Type
REMARK                         _______ _______ _______ _____ _____    ______ ____
ROOT
ATOM      1  C   UNL     1       3.032   3.386  18.679  0.00  0.00    +0.000 C 
ATOM      2  C   UNL     1       1.531   3.439  18.830  0.00  0.00    +0.000 C 
ATOM      3  O   UNL     1       0.728   3.691  17.949  0.00  0.00    +0.000 OA
ATOM      4  N   UNL     1       1.214   3.190  20.123  0.00  0.00    +0.000 N 
ATOM      5  C   UNL     1       2.287   3.262  20.951  0.00  0.00    +0.000 C 
ATOM      6  O   UNL     1       2.213   3.221  22.167  0.00  0.00    +0.000 OA
ATOM      7  C   UNL     1       3.542   3.374  20.134  0.00  0.00    +0.000 C 
ATOM      8  C   UNL     1       4.396   2.151  20.232  0.00  0.00    +0.000 C 
ATOM      9  O   UNL     1       5.103   1.829  21.168  0.00  0.00    +0.000 OA
ATOM     10  N   UNL     1       4.250   1.429  19.094  0.00  0.00    +0.000 N 
ATOM     11  C   UNL     1       3.469   2.031  18.168  0.00  0.00    +0.000 C 
ATOM     12  O   UNL     1       3.185   1.548  17.084  0.00  0.00    +0.000 OA
ATOM     13  H   UNL     1       0.265   3.202  20.465  0.00  0.00    +0.000 HD
ATOM     14  H   UNL     1       4.696   0.532  18.952  0.00  0.00    +0.000 HD
ENDROOT
BRANCH   1  16
ATOM     15  C   UNL     1       4.669   4.095  16.807  0.00  0.00    +0.000 C 
ATOM     16  C   UNL     1       3.511   4.504  17.719  0.00  0.00    +0.000 C 
BRANCH  16  17
ATOM     17  C   UNL     1       3.929   5.754  18.497  0.00  0.00    +0.000 C 
ATOM     18  O   UNL     1       5.076   5.853  18.935  0.00  0.00    +0.000 OA
BRANCH  17  19
ATOM     19  C   UNL     1       2.965   6.871  18.751  0.00  0.00    +0.000 A 
ATOM     20  C   UNL     1       2.811   7.843  17.748  0.00  0.00    +0.000 A 
ATOM     21  C   UNL     1       2.028   8.976  17.971  0.00  0.00    +0.000 A 
ATOM     22  C   UNL     1       1.385   9.145  19.194  0.00  0.00    +0.000 A 
ATOM     23  C   UNL     1       1.489   8.161  20.175  0.00  0.00    +0.000 A 
ATOM     24  C   UNL     1       2.265   7.019  19.952  0.00  0.00    +0.000 A 
ENDBRANCH  17  19
ENDBRANCH  16  17
ENDBRANCH   1  16
TORSDOF 3
ENDMDL
MODEL 3
REMARK VINA RESULT:      -8.5      2.922      4.706
REMARK  Name = 
REMARK  4 active torsions:
REMARK  status: ('A' for Active; 'I' for Inactive)
REMARK    1  A    between atoms: C_1  and  C_2
REMARK    2  A    between atoms: C_2  and  C_3
REMARK    3  A    between atoms: C_2  and  C_11
REMARK    4  A    between atoms: C_3  and  C_5
REMARK                            x       y       z     vdW  Elec       q    Type
REMARK                         _______ _______ _______ _____ _____    ______ ____
ROOT
ATOM      1  C   UNL     1       4.810   5.055  17.897  0.00  0.00    +0.000 C 
ATOM      2  C   UNL     1       5.568   4.634  19.133  0.00  0.00    +0.000 C 
ATOM      3  O   UNL     1       6.409   5.292  19.720  0.00  0.00    +0.000 OA
ATOM      4  N   UNL     1       5.184   3.382  19.475  0.00  0.00    +0.000 N 
ATOM      5  C   UNL     1       4.488   2.758  18.489  0.00  0.00    +0.000 C 
ATOM      6  O   UNL     1       4.173   1.581  18.518  0.00  0.00    +0.000 OA
ATOM      7  C   UNL     1       4.164   3.745  17.405  0.00  0.00    +0.000 C 
ATOM      8  C   UNL     1       2.702   4.044  17.326  0.00  0.00    +0.000 C 
ATOM      9  O   UNL     1       1.836   3.330  16.855  0.00  0.00    +0.000 OA
ATOM     10  N   UNL     1       2.477   5.259  17.885  0.00  0.00    +0.000 N 
ATOM     11  C   UNL     1       3.607   5.894  18.270  0.00  0.00    +0.000 C 
ATOM     12  O   UNL     1       3.636   6.985  18.816  0.00  0.00    +0.000 OA
ATOM     13  H   UNL     1       5.580   2.881  20.255  0.00  0.00    +0.000 HD
ATOM     14  H   UNL     1       1.551   5.652  17.989  0.00  0.00    +0.000 HD
ENDROOT
BRANCH   1  16
ATOM     15  C   UNL     1       5.008   6.632  15.857  0.00  0.00    +0.000 C 
ATOM     16  C   UNL     1       5.742   5.844  16.943  0.00  0.00    +0.000 C 
BRANCH  16  17
ATOM     17  C   UNL     1       6.749   4.912  16.265  0.00  0.00    +0.000 C 
ATOM     18  O   UNL     1       7.596   4.324  16.939  0.00  0.00    +0.000 OA
BRANCH  17  19
ATOM     19  C   UNL     1       6.738   4.701  14.783  0.00  0.00    +0.000 A 
ATOM     20  C   UNL     1       5.815   3.779  14.260  0.00  0.00    +0.000 A 
ATOM     21  C   UNL     1       5.838   3.440  12.907  0.00  0.00    +0.000 A 
ATOM     22  C   UNL     1       6.777   4.024  12.062  0.00  0.00    +0.000 A 
ATOM     23  C   UNL     1       7.661   4.979  12.559  0.00  0.00    +0.000 A 
ATOM     24  C   UNL     1       7.635   5.329  13.913  0.00  0.00    +0.000 A 
ENDBRANCH  17  19
ENDBRANCH  16  17
ENDBRANCH   1  16
TORSDOF 3
ENDMDL
MODEL 4
REMARK VINA RESULT:      -8.5      2.603      5.127
REMARK  Name = 
REMARK  4 active torsions:
REMARK  status: ('A' for Active; 'I' for Inactive)
REMARK    1  A    between atoms: C_1  and  C_2
REMARK    2  A    between atoms: C_2  and  C_3
REMARK    3  A    between atoms: C_2  and  C_11
REMARK    4  A    between atoms: C_3  and  C_5
REMARK                            x       y       z     vdW  Elec       q    Type
REMARK                         _______ _______ _______ _____ _____    ______ ____
ROOT
ATOM      1  C   UNL     1       5.023   5.589  17.577  0.00  0.00    +0.000 C 
ATOM      2  C   UNL     1       5.107   4.149  18.020  0.00  0.00    +0.000 C 
ATOM      3  O   UNL     1       4.329   3.258  17.724  0.00  0.00    +0.000 OA
ATOM      4  N   UNL     1       6.178   4.005  18.835  0.00  0.00    +0.000 N 
ATOM      5  C   UNL     1       6.680   5.194  19.259  0.00  0.00    +0.000 C 
ATOM      6  O   UNL     1       7.545   5.303  20.111  0.00  0.00    +0.000 OA
ATOM      7  C   UNL     1       6.023   6.311  18.502  0.00  0.00    +0.000 C 
ATOM      8  C   UNL     1       6.969   7.006  17.577  0.00  0.00    +0.000 C 
ATOM      9  O   UNL     1       7.837   7.802  17.885  0.00  0.00    +0.000 OA
ATOM     10  N   UNL     1       6.717   6.595  16.310  0.00  0.00    +0.000 N 
ATOM     11  C   UNL     1       5.653   5.765  16.213  0.00  0.00    +0.000 C 
ATOM     12  O   UNL     1       5.265   5.257  15.174  0.00  0.00    +0.000 OA
ATOM     13  H   UNL     1       6.416   3.130  19.277  0.00  0.00    +0.000 HD
ATOM     14  H   UNL     1       7.266   6.895  15.515  0.00  0.00    +0.000 HD
ENDROOT
BRANCH   1  16
ATOM     15  C   UNL     1       3.328   7.423  16.905  0.00  0.00    +0.000 C 
ATOM     16  C   UNL     1       3.545   6.054  17.551  0.00  0.00    +0.000 C 
BRANCH  16  17
ATOM     17  C   UNL     1       2.956   6.090  18.963  0.00  0.00    +0.000 C 
ATOM     18  O   UNL     1       3.061   7.106  19.650  0.00  0.00    +0.000 OA
BRANCH  17  19
ATOM     19  C   UNL     1       2.253   4.901  19.542  0.00  0.00    +0.000 A 
ATOM     20  C   UNL     1       2.499   4.587  20.889  0.00  0.00    +0.000 A 
ATOM     21  C   UNL     1       1.979   3.422  21.455  0.00  0.00    +0.000 A 
ATOM     22  C   UNL     1       1.202   2.564  20.682  0.00  0.00    +0.000 A 
ATOM     23  C   UNL     1       0.908   2.893  19.360  0.00  0.00    +0.000 A 
ATOM     24  C   UNL     1       1.419   4.065  18.793  0.00  0.00    +0.000 A 
ENDBRANCH  17  19
ENDBRANCH  16  17
ENDBRANCH   1  16
TORSDOF 3
ENDMDL
MODEL 5
REMARK VINA RESULT:      -8.5      0.135      1.037
REMARK  Name = 
REMARK  4 active torsions:
REMARK  status: ('A' for Active; 'I' for Inactive)
REMARK    1  A    between atoms: C_1  and  C_2
REMARK    2  A    between atoms: C_2  and  C_3
REMARK    3  A    between atoms: C_2  and  C_11
REMARK    4  A    between atoms: C_3  and  C_5
REMARK                            x       y       z     vdW  Elec       q    Type
REMARK                         _______ _______ _______ _____ _____    ______ ____
ROOT
ATOM      1  C   UNL     1       2.945   3.206  18.747  0.00  0.00    +0.000 C 
ATOM      2  C   UNL     1       1.455   3.157  18.984  0.00  0.00    +0.000 C 
ATOM      3  O   UNL     1       0.587   3.342  18.149  0.00  0.00    +0.000 OA
ATOM      4  N   UNL     1       1.230   2.903  20.295  0.00  0.00    +0.000 N 
ATOM      5  C   UNL     1       2.342   3.060  21.059  0.00  0.00    +0.000 C 
ATOM      6  O   UNL     1       2.341   3.029  22.278  0.00  0.00    +0.000 OA
ATOM      7  C   UNL     1       3.537   3.248  20.170  0.00  0.00    +0.000 C 
ATOM      8  C   UNL     1       4.478   2.088  20.229  0.00  0.00    +0.000 C 
ATOM      9  O   UNL     1       5.258   1.827  21.125  0.00  0.00    +0.000 OA
ATOM     10  N   UNL     1       4.318   1.342  19.108  0.00  0.00    +0.000 N 
ATOM     11  C   UNL     1       3.445   1.877  18.223  0.00  0.00    +0.000 C 
ATOM     12  O   UNL     1       3.134   1.362  17.162  0.00  0.00    +0.000 OA
ATOM     13  H   UNL     1       0.304   2.854  20.692  0.00  0.00    +0.000 HD
ATOM     14  H   UNL     1       4.816   0.477  18.948  0.00  0.00    +0.000 HD
ENDROOT
BRANCH   1  16
ATOM     15  C   UNL     1       4.340   3.963  16.705  0.00  0.00    +0.000 C 
ATOM     16  C   UNL     1       3.290   4.341  17.751  0.00  0.00    +0.000 C 
BRANCH  16  17
ATOM     17  C   UNL     1       3.774   5.591  18.489  0.00  0.00    +0.000 C 
ATOM     18  O   UNL     1       2.974   6.284  19.120  0.00  0.00    +0.000 OA
BRANCH  17  19
ATOM     19  C   UNL     1       5.213   6.005  18.458  0.00  0.00    +0.000 A 
ATOM     20  C   UNL     1       5.596   6.972  17.514  0.00  0.00    +0.000 A 
ATOM     21  C   UNL     1       6.939   7.308  17.344  0.00  0.00    +0.000 A 
ATOM     22  C   UNL     1       7.912   6.686  18.120  0.00  0.00    +0.000 A 
ATOM     23  C   UNL     1       7.538   5.764  19.096  0.00  0.00    +0.000 A 
ATOM     24  C   UNL     1       6.192   5.432  19.276  0.00  0.00    +0.000 A 
ENDBRANCH  17  19
ENDBRANCH  16  17
ENDBRANCH   1  16
TORSDOF 3
ENDMDL
MODEL 6
REMARK VINA RESULT:      -8.5      2.891      5.218
REMARK  Name = 
REMARK  4 active torsions:
REMARK  status: ('A' for Active; 'I' for Inactive)
REMARK    1  A    between atoms: C_1  and  C_2
REMARK    2  A    between atoms: C_2  and  C_3
REMARK    3  A    between atoms: C_2  and  C_11
REMARK    4  A    between atoms: C_3  and  C_5
REMARK                            x       y       z     vdW  Elec       q    Type
REMARK                         _______ _______ _______ _____ _____    ______ ____
ROOT
ATOM      1  C   UNL     1       5.792   5.656  17.075  0.00  0.00    +0.000 C 
ATOM      2  C   UNL     1       5.737   4.212  17.511  0.00  0.00    +0.000 C 
ATOM      3  O   UNL     1       5.115   3.318  16.964  0.00  0.00    +0.000 OA
ATOM      4  N   UNL     1       6.472   4.069  18.639  0.00  0.00    +0.000 N 
ATOM      5  C   UNL     1       6.788   5.258  19.215  0.00  0.00    +0.000 C 
ATOM      6  O   UNL     1       7.313   5.367  20.310  0.00  0.00    +0.000 OA
ATOM      7  C   UNL     1       6.412   6.378  18.287  0.00  0.00    +0.000 C 
ATOM      8  C   UNL     1       7.608   7.089  17.741  0.00  0.00    +0.000 C 
ATOM      9  O   UNL     1       8.312   7.889  18.328  0.00  0.00    +0.000 OA
ATOM     10  N   UNL     1       7.803   6.688  16.460  0.00  0.00    +0.000 N 
ATOM     11  C   UNL     1       6.844   5.850  16.004  0.00  0.00    +0.000 C 
ATOM     12  O   UNL     1       6.835   5.350  14.892  0.00  0.00    +0.000 OA
ATOM     13  H   UNL     1       6.557   3.192  19.130  0.00  0.00    +0.000 HD
ATOM     14  H   UNL     1       8.585   7.001  15.900  0.00  0.00    +0.000 HD
ENDROOT
BRANCH   1  16
ATOM     15  C   UNL     1       4.458   7.235  15.520  0.00  0.00    +0.000 C 
ATOM     16  C   UNL     1       4.404   6.109  16.554  0.00  0.00    +0.000 C 
BRANCH  16  17
ATOM     17  C   UNL     1       3.504   6.557  17.708  0.00  0.00    +0.000 C 
ATOM     18  O   UNL     1       3.377   7.756  17.961  0.00  0.00    +0.000 OA
BRANCH  17  19
ATOM     19  C   UNL     1       2.773   5.562  18.555  0.00  0.00    +0.000 A 
ATOM     20  C   UNL     1       2.016   4.576  17.900  0.00  0.00    +0.000 A 
ATOM     21  C   UNL     1       1.209   3.699  18.626  0.00  0.00    +0.000 A 
ATOM     22  C   UNL     1       1.156   3.795  20.013  0.00  0.00    +0.000 A 
ATOM     23  C   UNL     1       1.943   4.735  20.676  0.00  0.00    +0.000 A 
ATOM     24  C   UNL     1       2.761   5.608  19.952  0.00  0.00    +0.000 A 
ENDBRANCH  17  19
ENDBRANCH  16  17
ENDBRANCH   1  16
TORSDOF 3
ENDMDL
MODEL 7
REMARK VINA RESULT:      -8.4      2.926      4.730
REMARK  Name = 
REMARK  4 active torsions:
REMARK  status: ('A' for Active; 'I' for Inactive)
REMARK    1  A    between atoms: C_1  and  C_2
REMARK    2  A    between atoms: C_2  and  C_3
REMARK    3  A    between atoms: C_2  and  C_11
REMARK    4  A    between atoms: C_3  and  C_5
REMARK                            x       y       z     vdW  Elec       q    Type
REMARK                         _______ _______ _______ _____ _____    ______ ____
ROOT
ATOM      1  C   UNL     1       4.821   5.059  17.883  0.00  0.00    +0.000 C 
ATOM      2  C   UNL     1       5.562   4.668  19.139  0.00  0.00    +0.000 C 
ATOM      3  O   UNL     1       6.396   5.339  19.721  0.00  0.00    +0.000 OA
ATOM      4  N   UNL     1       5.172   3.424  19.505  0.00  0.00    +0.000 N 
ATOM      5  C   UNL     1       4.489   2.777  18.525  0.00  0.00    +0.000 C 
ATOM      6  O   UNL     1       4.173   1.601  18.579  0.00  0.00    +0.000 OA
ATOM      7  C   UNL     1       4.181   3.737  17.414  0.00  0.00    +0.000 C 
ATOM      8  C   UNL     1       2.720   4.035  17.308  0.00  0.00    +0.000 C 
ATOM      9  O   UNL     1       1.860   3.311  16.843  0.00  0.00    +0.000 OA
ATOM     10  N   UNL     1       2.489   5.264  17.834  0.00  0.00    +0.000 N 
ATOM     11  C   UNL     1       3.614   5.907  18.218  0.00  0.00    +0.000 C 
ATOM     12  O   UNL     1       3.637   7.011  18.738  0.00  0.00    +0.000 OA
ATOM     13  H   UNL     1       5.558   2.943  20.303  0.00  0.00    +0.000 HD
ATOM     14  H   UNL     1       1.562   5.660  17.916  0.00  0.00    +0.000 HD
ENDROOT
BRANCH   1  16
ATOM     15  C   UNL     1       5.052   6.544  15.778  0.00  0.00    +0.000 C 
ATOM     16  C   UNL     1       5.767   5.824  16.922  0.00  0.00    +0.000 C 
BRANCH  16  17
ATOM     17  C   UNL     1       6.814   4.885  16.320  0.00  0.00    +0.000 C 
ATOM     18  O   UNL     1       7.684   4.389  17.038  0.00  0.00    +0.000 OA
BRANCH  17  19
ATOM     19  C   UNL     1       6.815   4.555  14.859  0.00  0.00    +0.000 A 
ATOM     20  C   UNL     1       7.729   5.234  14.035  0.00  0.00    +0.000 A 
ATOM     21  C   UNL     1       7.696   5.070  12.650  0.00  0.00    +0.000 A 
ATOM     22  C   UNL     1       6.755   4.221  12.075  0.00  0.00    +0.000 A 
ATOM     23  C   UNL     1       5.879   3.503  12.887  0.00  0.00    +0.000 A 
ATOM     24  C   UNL     1       5.915   3.657  14.276  0.00  0.00    +0.000 A 
ENDBRANCH  17  19
ENDBRANCH  16  17
ENDBRANCH   1  16
TORSDOF 3
ENDMDL
MODEL 8
REMARK VINA RESULT:      -8.4      2.126      4.480
REMARK  Name = 
REMARK  4 active torsions:
REMARK  status: ('A' for Active; 'I' for Inactive)
REMARK    1  A    between atoms: C_1  and  C_2
REMARK    2  A    between atoms: C_2  and  C_3
REMARK    3  A    between atoms: C_2  and  C_11
REMARK    4  A    between atoms: C_3  and  C_5
REMARK                            x       y       z     vdW  Elec       q    Type
REMARK                         _______ _______ _______ _____ _____    ______ ____
ROOT
ATOM      1  C   UNL     1       4.077   5.096  17.914  0.00  0.00    +0.000 C 
ATOM      2  C   UNL     1       3.540   3.780  17.405  0.00  0.00    +0.000 C 
ATOM      3  O   UNL     1       2.698   3.634  16.537  0.00  0.00    +0.000 OA
ATOM      4  N   UNL     1       4.124   2.774  18.098  0.00  0.00    +0.000 N 
ATOM      5  C   UNL     1       4.769   3.207  19.212  0.00  0.00    +0.000 C 
ATOM      6  O   UNL     1       5.237   2.466  20.059  0.00  0.00    +0.000 OA
ATOM      7  C   UNL     1       4.824   4.707  19.205  0.00  0.00    +0.000 C 
ATOM      8  C   UNL     1       6.214   5.224  19.016  0.00  0.00    +0.000 C 
ATOM      9  O   UNL     1       7.101   5.253  19.848  0.00  0.00    +0.000 OA
ATOM     10  N   UNL     1       6.344   5.658  17.737  0.00  0.00    +0.000 N 
ATOM     11  C   UNL     1       5.197   5.593  17.025  0.00  0.00    +0.000 C 
ATOM     12  O   UNL     1       5.092   5.909  15.851  0.00  0.00    +0.000 OA
ATOM     13  H   UNL     1       3.896   1.803  17.949  0.00  0.00    +0.000 HD
ATOM     14  H   UNL     1       7.216   6.008  17.363  0.00  0.00    +0.000 HD
ENDROOT
BRANCH   1  16
ATOM     15  C   UNL     1       3.371   7.566  17.617  0.00  0.00    +0.000 C 
ATOM     16  C   UNL     1       2.939   6.146  17.985  0.00  0.00    +0.000 C 
BRANCH  16  17
ATOM     17  C   UNL     1       2.310   6.179  19.379  0.00  0.00    +0.000 C 
ATOM     18  O   UNL     1       2.181   7.251  19.972  0.00  0.00    +0.000 OA
BRANCH  17  19
ATOM     19  C   UNL     1       1.849   4.924  20.055  0.00  0.00    +0.000 A 
ATOM     20  C   UNL     1       2.399   4.617  21.311  0.00  0.00    +0.000 A 
ATOM     21  C   UNL     1       2.111   3.403  21.935  0.00  0.00    +0.000 A 
ATOM     22  C   UNL     1       1.267   2.488  21.315  0.00  0.00    +0.000 A 
ATOM     23  C   UNL     1       0.674   2.805  20.094  0.00  0.00    +0.000 A 
ATOM     24  C   UNL     1       0.952   4.025  19.469  0.00  0.00    +0.000 A 
ENDBRANCH  17  19
ENDBRANCH  16  17
ENDBRANCH   1  16
TORSDOF 3
ENDMDL
MODEL 9
REMARK VINA RESULT:      -8.4      2.597      5.189
REMARK  Name = 
REMARK  4 active torsions:
REMARK  status: ('A' for Active; 'I' for Inactive)
REMARK    1  A    between atoms: C_1  and  C_2
REMARK    2  A    between atoms: C_2  and  C_3
REMARK    3  A    between atoms: C_2  and  C_11
REMARK    4  A    between atoms: C_3  and  C_5
REMARK                            x       y       z     vdW  Elec       q    Type
REMARK                         _______ _______ _______ _____ _____    ______ ____
ROOT
ATOM      1  C   UNL     1       5.008   5.586  17.589  0.00  0.00    +0.000 C 
ATOM      2  C   UNL     1       5.099   4.141  18.017  0.00  0.00    +0.000 C 
ATOM      3  O   UNL     1       4.317   3.254  17.722  0.00  0.00    +0.000 OA
ATOM      4  N   UNL     1       6.181   3.990  18.816  0.00  0.00    +0.000 N 
ATOM      5  C   UNL     1       6.687   5.175  19.245  0.00  0.00    +0.000 C 
ATOM      6  O   UNL     1       7.563   5.276  20.087  0.00  0.00    +0.000 OA
ATOM      7  C   UNL     1       6.020   6.300  18.508  0.00  0.00    +0.000 C 
ATOM      8  C   UNL     1       6.954   7.004  17.578  0.00  0.00    +0.000 C 
ATOM      9  O   UNL     1       7.825   7.797  17.882  0.00  0.00    +0.000 OA
ATOM     10  N   UNL     1       6.685   6.606  16.310  0.00  0.00    +0.000 N 
ATOM     11  C   UNL     1       5.621   5.776  16.219  0.00  0.00    +0.000 C 
ATOM     12  O   UNL     1       5.218   5.279  15.179  0.00  0.00    +0.000 OA
ATOM     13  H   UNL     1       6.425   3.111  19.246  0.00  0.00    +0.000 HD
ATOM     14  H   UNL     1       7.223   6.914  15.511  0.00  0.00    +0.000 HD
ENDROOT
BRANCH   1  16
ATOM     15  C   UNL     1       3.302   7.419  16.943  0.00  0.00    +0.000 C 
ATOM     16  C   UNL     1       3.530   6.051  17.587  0.00  0.00    +0.000 C 
BRANCH  16  17
ATOM     17  C   UNL     1       2.964   6.087  19.009  0.00  0.00    +0.000 C 
ATOM     18  O   UNL     1       2.966   7.141  19.647  0.00  0.00    +0.000 OA
BRANCH  17  19
ATOM     19  C   UNL     1       2.409   4.856  19.656  0.00  0.00    +0.000 A 
ATOM     20  C   UNL     1       1.465   4.106  18.935  0.00  0.00    +0.000 A 
ATOM     21  C   UNL     1       0.814   3.023  19.528  0.00  0.00    +0.000 A 
ATOM     22  C   UNL     1       1.105   2.675  20.843  0.00  0.00    +0.000 A 
ATOM     23  C   UNL     1       2.078   3.380  21.550  0.00  0.00    +0.000 A 
ATOM     24  C   UNL     1       2.740   4.459  20.956  0.00  0.00    +0.000 A 
ENDBRANCH  17  19
ENDBRANCH  16  17
ENDBRANCH   1  16
TORSDOF 3
ENDMDL
