MODEL 1
REMARK VINA RESULT:      -7.9      0.000      0.000
REMARK  Name = 
REMARK  13 active torsions:
REMARK  status: ('A' for Active; 'I' for Inactive)
REMARK    1  A    between atoms: C_1  and  C_2
REMARK    2  A    between atoms: C_2  and  O_3
REMARK    3  A    between atoms: O_3  and  C_4
REMARK    4  A    between atoms: C_4  and  C_6
REMARK    5  A    between atoms: C_8  and  O_9
REMARK    6  A    between atoms: O_9  and  C_10
REMARK    7  A    between atoms: C_11  and  O_12
REMARK    8  A    between atoms: O_12  and  C_13
REMARK    9  A    between atoms: C_15  and  N_16
REMARK   10  A    between atoms: C_17  and  C_19
REMARK   11  A    between atoms: C_22  and  O_23
REMARK   12  A    between atoms: O_23  and  C_24
REMARK   13  A    between atoms: C_24  and  C_25
REMARK                            x       y       z     vdW  Elec       q    Type
REMARK                         _______ _______ _______ _____ _____    ______ ____
ROOT
ATOM      1  C   UNL     1       3.511   4.689  17.426  0.00  0.00    +0.000 A 
ATOM      2  C   UNL     1       4.469   4.043  16.621  0.00  0.00    +0.000 A 
ATOM      3  C   UNL     1       5.717   4.613  16.352  0.00  0.00    +0.000 A 
ATOM      4  C   UNL     1       6.029   5.869  16.882  0.00  0.00    +0.000 A 
ATOM      5  C   UNL     1       5.077   6.511  17.687  0.00  0.00    +0.000 A 
ATOM      6  C   UNL     1       3.809   5.963  17.950  0.00  0.00    +0.000 A 
ENDROOT
BRANCH   6   7
ATOM      7  N   UNL     1       2.872   6.688  18.738  0.00  0.00    +0.000 N 
ATOM      8  C   UNL     1       2.326   7.927  18.433  0.00  0.00    +0.000 C 
ATOM      9  O   UNL     1       2.459   8.539  17.378  0.00  0.00    +0.000 OA
ATOM     10  H   UNL     1       2.453   6.171  19.508  0.00  0.00    +0.000 HD
BRANCH   8  11
ATOM     11  C   UNL     1       1.456   8.533  19.477  0.00  0.00    +0.000 A 
ATOM     12  C   UNL     1       1.481   8.086  20.804  0.00  0.00    +0.000 A 
ATOM     13  C   UNL     1       0.709   8.738  21.769  0.00  0.00    +0.000 A 
ATOM     14  C   UNL     1      -0.075   9.839  21.411  0.00  0.00    +0.000 A 
ATOM     15  C   UNL     1      -0.127  10.275  20.090  0.00  0.00    +0.000 A 
ATOM     16  C   UNL     1       0.655   9.631  19.128  0.00  0.00    +0.000 A 
BRANCH  14  17
ATOM     17  O   UNL     1      -0.807  10.429  22.462  0.00  0.00    +0.000 OA
BRANCH  17  18
ATOM     18  C   UNL     1      -0.976  11.812  22.564  0.00  0.00    +0.000 C 
ATOM     19  C   UNL     1      -2.389  12.103  22.978  0.00  0.00    +0.000 C 
ATOM     20  O   UNL     1      -0.119  12.671  22.414  0.00  0.00    +0.000 OA
ENDBRANCH  17  18
ENDBRANCH  14  17
ENDBRANCH   8  11
ENDBRANCH   6   7
BRANCH   1  21
ATOM     21  C   UNL     1       2.216   3.958  17.562  0.00  0.00    +0.000 C 
ATOM     22  O   UNL     1       1.135   4.481  17.329  0.00  0.00    +0.000 OA
BRANCH  21  23
ATOM     23  O   UNL     1       2.388   2.706  18.049  0.00  0.00    +0.000 OA
BRANCH  23  25
ATOM     24  C   UNL     1       1.643   2.765  20.314  0.00  0.00    +0.000 C 
ATOM     25  C   UNL     1       1.332   2.262  18.916  0.00  0.00    +0.000 C 
ENDBRANCH  23  25
ENDBRANCH  21  23
ENDBRANCH   1  21
BRANCH   3  26
ATOM     26  O   UNL     1       6.491   3.849  15.519  0.00  0.00    +0.000 OA
ATOM     27  C   UNL     1       6.292   4.032  14.122  0.00  0.00    +0.000 C 
ENDBRANCH   3  26
BRANCH   4  28
ATOM     28  O   UNL     1       7.239   6.424  16.566  0.00  0.00    +0.000 OA
ATOM     29  C   UNL     1       7.694   7.529  17.339  0.00  0.00    +0.000 C 
ENDBRANCH   4  28
TORSDOF 9
ENDMDL
MODEL 2
REMARK VINA RESULT:      -7.8      0.980      1.077
REMARK  Name = 
REMARK  13 active torsions:
REMARK  status: ('A' for Active; 'I' for Inactive)
REMARK    1  A    between atoms: C_1  and  C_2
REMARK    2  A    between atoms: C_2  and  O_3
REMARK    3  A    between atoms: O_3  and  C_4
REMARK    4  A    between atoms: C_4  and  C_6
REMARK    5  A    between atoms: C_8  and  O_9
REMARK    6  A    between atoms: O_9  and  C_10
REMARK    7  A    between atoms: C_11  and  O_12
REMARK    8  A    between atoms: O_12  and  C_13
REMARK    9  A    between atoms: C_15  and  N_16
REMARK   10  A    between atoms: C_17  and  C_19
REMARK   11  A    between atoms: C_22  and  O_23
REMARK   12  A    between atoms: O_23  and  C_24
REMARK   13  A    between atoms: C_24  and  C_25
REMARK                            x       y       z     vdW  Elec       q    Type
REMARK                         _______ _______ _______ _____ _____    ______ ____
ROOT
ATOM      1  C   UNL     1       3.090   5.026  17.918  0.00  0.00    +0.000 A 
ATOM      2  C   UNL     1       3.936   4.325  17.036  0.00  0.00    +0.000 A 
ATOM      3  C   UNL     1       5.150   4.858  16.592  0.00  0.00    +0.000 A 
ATOM      4  C   UNL     1       5.541   6.129  17.021  0.00  0.00    +0.000 A 
ATOM      5  C   UNL     1       4.702   6.826  17.902  0.00  0.00    +0.000 A 
ATOM      6  C   UNL     1       3.467   6.317  18.341  0.00  0.00    +0.000 A 
ENDROOT
BRANCH   6   7
ATOM      7  N   UNL     1       2.642   7.095  19.199  0.00  0.00    +0.000 N 
ATOM      8  C   UNL     1       1.944   8.243  18.850  0.00  0.00    +0.000 C 
ATOM      9  O   UNL     1       1.818   8.699  17.718  0.00  0.00    +0.000 OA
ATOM     10  H   UNL     1       2.426   6.675  20.100  0.00  0.00    +0.000 HD
BRANCH   8  11
ATOM     11  C   UNL     1       1.243   8.945  19.959  0.00  0.00    +0.000 A 
ATOM     12  C   UNL     1       1.270   8.455  21.271  0.00  0.00    +0.000 A 
ATOM     13  C   UNL     1       0.668   9.190  22.296  0.00  0.00    +0.000 A 
ATOM     14  C   UNL     1       0.056  10.414  22.013  0.00  0.00    +0.000 A 
ATOM     15  C   UNL     1       0.003  10.898  20.709  0.00  0.00    +0.000 A 
ATOM     16  C   UNL     1       0.615  10.170  19.686  0.00  0.00    +0.000 A 
BRANCH  14  17
ATOM     17  O   UNL     1      -0.510  11.080  23.121  0.00  0.00    +0.000 OA
BRANCH  17  18
ATOM     18  C   UNL     1      -1.512  12.042  22.977  0.00  0.00    +0.000 C 
ATOM     19  C   UNL     1      -0.892  13.407  23.035  0.00  0.00    +0.000 C 
ATOM     20  O   UNL     1      -2.700  11.841  22.767  0.00  0.00    +0.000 OA
ENDBRANCH  17  18
ENDBRANCH  14  17
ENDBRANCH   8  11
ENDBRANCH   6   7
BRANCH   1  21
ATOM     21  C   UNL     1       1.811   4.328  18.242  0.00  0.00    +0.000 C 
ATOM     22  O   UNL     1       1.008   3.988  17.383  0.00  0.00    +0.000 OA
BRANCH  21  23
ATOM     23  O   UNL     1       1.623   4.206  19.577  0.00  0.00    +0.000 OA
BRANCH  23  25
ATOM     24  C   UNL     1       1.647   2.840  21.533  0.00  0.00    +0.000 C 
ATOM     25  C   UNL     1       2.251   3.050  20.156  0.00  0.00    +0.000 C 
ENDBRANCH  23  25
ENDBRANCH  21  23
ENDBRANCH   1  21
BRANCH   3  26
ATOM     26  O   UNL     1       5.807   4.041  15.710  0.00  0.00    +0.000 OA
ATOM     27  C   UNL     1       5.577   4.283  14.328  0.00  0.00    +0.000 C 
ENDBRANCH   3  26
BRANCH   4  28
ATOM     28  O   UNL     1       6.712   6.645  16.536  0.00  0.00    +0.000 OA
ATOM     29  C   UNL     1       7.553   7.361  17.435  0.00  0.00    +0.000 C 
ENDBRANCH   4  28
TORSDOF 9
ENDMDL
MODEL 3
REMARK VINA RESULT:      -7.5      0.956      1.424
REMARK  Name = 
REMARK  13 active torsions:
REMARK  status: ('A' for Active; 'I' for Inactive)
REMARK    1  A    between atoms: C_1  and  C_2
REMARK    2  A    between atoms: C_2  and  O_3
REMARK    3  A    between atoms: O_3  and  C_4
REMARK    4  A    between atoms: C_4  and  C_6
REMARK    5  A    between atoms: C_8  and  O_9
REMARK    6  A    between atoms: O_9  and  C_10
REMARK    7  A    between atoms: C_11  and  O_12
REMARK    8  A    between atoms: O_12  and  C_13
REMARK    9  A    between atoms: C_15  and  N_16
REMARK   10  A    between atoms: C_17  and  C_19
REMARK   11  A    between atoms: C_22  and  O_23
REMARK   12  A    between atoms: O_23  and  C_24
REMARK   13  A    between atoms: C_24  and  C_25
REMARK                            x       y       z     vdW  Elec       q    Type
REMARK                         _______ _______ _______ _____ _____    ______ ____
ROOT
ATOM      1  C   UNL     1       3.090   5.177  17.915  0.00  0.00    +0.000 A 
ATOM      2  C   UNL     1       4.060   4.361  17.300  0.00  0.00    +0.000 A 
ATOM      3  C   UNL     1       5.292   4.866  16.874  0.00  0.00    +0.000 A 
ATOM      4  C   UNL     1       5.576   6.224  17.048  0.00  0.00    +0.000 A 
ATOM      5  C   UNL     1       4.614   7.036  17.664  0.00  0.00    +0.000 A 
ATOM      6  C   UNL     1       3.360   6.551  18.078  0.00  0.00    +0.000 A 
ENDROOT
BRANCH   6   7
ATOM      7  N   UNL     1       2.410   7.439  18.655  0.00  0.00    +0.000 N 
ATOM      8  C   UNL     1       2.042   8.683  18.162  0.00  0.00    +0.000 C 
ATOM      9  O   UNL     1       2.376   9.164  17.084  0.00  0.00    +0.000 OA
ATOM     10  H   UNL     1       1.842   7.048  19.403  0.00  0.00    +0.000 HD
BRANCH   8  11
ATOM     11  C   UNL     1       1.112   9.474  19.013  0.00  0.00    +0.000 A 
ATOM     12  C   UNL     1       0.424  10.585  18.510  0.00  0.00    +0.000 A 
ATOM     13  C   UNL     1      -0.503  11.249  19.319  0.00  0.00    +0.000 A 
ATOM     14  C   UNL     1      -0.749  10.795  20.618  0.00  0.00    +0.000 A 
ATOM     15  C   UNL     1      -0.052   9.707  21.135  0.00  0.00    +0.000 A 
ATOM     16  C   UNL     1       0.865   9.036  20.323  0.00  0.00    +0.000 A 
BRANCH  14  17
ATOM     17  O   UNL     1      -1.710  11.530  21.345  0.00  0.00    +0.000 OA
BRANCH  17  18
ATOM     18  C   UNL     1      -1.399  12.176  22.543  0.00  0.00    +0.000 C 
ATOM     19  C   UNL     1      -2.618  12.198  23.418  0.00  0.00    +0.000 C 
ATOM     20  O   UNL     1      -0.306  12.606  22.885  0.00  0.00    +0.000 OA
ENDBRANCH  17  18
ENDBRANCH  14  17
ENDBRANCH   8  11
ENDBRANCH   6   7
BRANCH   1  21
ATOM     21  C   UNL     1       1.814   4.481  18.254  0.00  0.00    +0.000 C 
ATOM     22  O   UNL     1       1.148   3.880  17.423  0.00  0.00    +0.000 OA
BRANCH  21  23
ATOM     23  O   UNL     1       1.458   4.675  19.547  0.00  0.00    +0.000 OA
BRANCH  23  25
ATOM     24  C   UNL     1       2.013   3.177  21.319  0.00  0.00    +0.000 C 
ATOM     25  C   UNL     1       1.013   3.485  20.219  0.00  0.00    +0.000 C 
ENDBRANCH  23  25
ENDBRANCH  21  23
ENDBRANCH   1  21
BRANCH   3  26
ATOM     26  O   UNL     1       6.080   3.925  16.266  0.00  0.00    +0.000 OA
ATOM     27  C   UNL     1       6.077   3.918  14.843  0.00  0.00    +0.000 C 
ENDBRANCH   3  26
BRANCH   4  28
ATOM     28  O   UNL     1       6.772   6.701  16.582  0.00  0.00    +0.000 OA
ATOM     29  C   UNL     1       7.589   7.451  17.474  0.00  0.00    +0.000 C 
ENDBRANCH   4  28
TORSDOF 9
ENDMDL
MODEL 4
REMARK VINA RESULT:      -7.4      1.036      1.168
REMARK  Name = 
REMARK  13 active torsions:
REMARK  status: ('A' for Active; 'I' for Inactive)
REMARK    1  A    between atoms: C_1  and  C_2
REMARK    2  A    between atoms: C_2  and  O_3
REMARK    3  A    between atoms: O_3  and  C_4
REMARK    4  A    between atoms: C_4  and  C_6
REMARK    5  A    between atoms: C_8  and  O_9
REMARK    6  A    between atoms: O_9  and  C_10
REMARK    7  A    between atoms: C_11  and  O_12
REMARK    8  A    between atoms: O_12  and  C_13
REMARK    9  A    between atoms: C_15  and  N_16
REMARK   10  A    between atoms: C_17  and  C_19
REMARK   11  A    between atoms: C_22  and  O_23
REMARK   12  A    between atoms: O_23  and  C_24
REMARK   13  A    between atoms: C_24  and  C_25
REMARK                            x       y       z     vdW  Elec       q    Type
REMARK                         _______ _______ _______ _____ _____    ______ ____
ROOT
ATOM      1  C   UNL     1       3.080   5.109  17.784  0.00  0.00    +0.000 A 
ATOM      2  C   UNL     1       4.075   4.331  17.161  0.00  0.00    +0.000 A 
ATOM      3  C   UNL     1       5.310   4.869  16.787  0.00  0.00    +0.000 A 
ATOM      4  C   UNL     1       5.571   6.222  17.023  0.00  0.00    +0.000 A 
ATOM      5  C   UNL     1       4.583   6.995  17.648  0.00  0.00    +0.000 A 
ATOM      6  C   UNL     1       3.327   6.478  18.011  0.00  0.00    +0.000 A 
ENDROOT
BRANCH   6   7
ATOM      7  N   UNL     1       2.351   7.329  18.600  0.00  0.00    +0.000 N 
ATOM      8  C   UNL     1       1.969   8.582  18.143  0.00  0.00    +0.000 C 
ATOM      9  O   UNL     1       2.313   9.105  17.088  0.00  0.00    +0.000 OA
ATOM     10  H   UNL     1       1.778   6.903  19.325  0.00  0.00    +0.000 HD
BRANCH   8  11
ATOM     11  C   UNL     1       1.010   9.328  19.003  0.00  0.00    +0.000 A 
ATOM     12  C   UNL     1       1.121   9.326  20.399  0.00  0.00    +0.000 A 
ATOM     13  C   UNL     1       0.250  10.106  21.163  0.00  0.00    +0.000 A 
ATOM     14  C   UNL     1      -0.719  10.893  20.534  0.00  0.00    +0.000 A 
ATOM     15  C   UNL     1      -0.854  10.883  19.148  0.00  0.00    +0.000 A 
ATOM     16  C   UNL     1       0.025  10.112  18.384  0.00  0.00    +0.000 A 
BRANCH  14  17
ATOM     17  O   UNL     1      -1.540  11.650  21.397  0.00  0.00    +0.000 OA
BRANCH  17  18
ATOM     18  C   UNL     1      -1.035  12.695  22.173  0.00  0.00    +0.000 C 
ATOM     19  C   UNL     1      -1.135  13.975  21.396  0.00  0.00    +0.000 C 
ATOM     20  O   UNL     1      -0.633  12.627  23.326  0.00  0.00    +0.000 OA
ENDBRANCH  17  18
ENDBRANCH  14  17
ENDBRANCH   8  11
ENDBRANCH   6   7
BRANCH   1  21
ATOM     21  C   UNL     1       1.805   4.382  18.064  0.00  0.00    +0.000 C 
ATOM     22  O   UNL     1       1.071   3.972  17.176  0.00  0.00    +0.000 OA
BRANCH  21  23
ATOM     23  O   UNL     1       1.536   4.321  19.390  0.00  0.00    +0.000 OA
BRANCH  23  25
ATOM     24  C   UNL     1       1.553   3.071  21.421  0.00  0.00    +0.000 C 
ATOM     25  C   UNL     1       1.443   2.984  19.910  0.00  0.00    +0.000 C 
ENDBRANCH  23  25
ENDBRANCH  21  23
ENDBRANCH   1  21
BRANCH   3  26
ATOM     26  O   UNL     1       6.125   3.964  16.159  0.00  0.00    +0.000 OA
ATOM     27  C   UNL     1       6.062   3.930  14.739  0.00  0.00    +0.000 C 
ENDBRANCH   3  26
BRANCH   4  28
ATOM     28  O   UNL     1       6.771   6.733  16.607  0.00  0.00    +0.000 OA
ATOM     29  C   UNL     1       7.572   7.425  17.558  0.00  0.00    +0.000 C 
ENDBRANCH   4  28
TORSDOF 9
ENDMDL
MODEL 5
REMARK VINA RESULT:      -6.9      1.150      1.377
REMARK  Name = 
REMARK  13 active torsions:
REMARK  status: ('A' for Active; 'I' for Inactive)
REMARK    1  A    between atoms: C_1  and  C_2
REMARK    2  A    between atoms: C_2  and  O_3
REMARK    3  A    between atoms: O_3  and  C_4
REMARK    4  A    between atoms: C_4  and  C_6
REMARK    5  A    between atoms: C_8  and  O_9
REMARK    6  A    between atoms: O_9  and  C_10
REMARK    7  A    between atoms: C_11  and  O_12
REMARK    8  A    between atoms: O_12  and  C_13
REMARK    9  A    between atoms: C_15  and  N_16
REMARK   10  A    between atoms: C_17  and  C_19
REMARK   11  A    between atoms: C_22  and  O_23
REMARK   12  A    between atoms: O_23  and  C_24
REMARK   13  A    between atoms: C_24  and  C_25
REMARK                            x       y       z     vdW  Elec       q    Type
REMARK                         _______ _______ _______ _____ _____    ______ ____
ROOT
ATOM      1  C   UNL     1       3.214   5.308  18.053  0.00  0.00    +0.000 A 
ATOM      2  C   UNL     1       4.245   4.544  17.472  0.00  0.00    +0.000 A 
ATOM      3  C   UNL     1       5.428   5.127  17.009  0.00  0.00    +0.000 A 
ATOM      4  C   UNL     1       5.599   6.510  17.110  0.00  0.00    +0.000 A 
ATOM      5  C   UNL     1       4.576   7.271  17.693  0.00  0.00    +0.000 A 
ATOM      6  C   UNL     1       3.369   6.706  18.142  0.00  0.00    +0.000 A 
ENDROOT
BRANCH   6   7
ATOM      7  N   UNL     1       2.351   7.541  18.681  0.00  0.00    +0.000 N 
ATOM      8  C   UNL     1       1.917   8.751  18.159  0.00  0.00    +0.000 C 
ATOM      9  O   UNL     1       2.246   9.235  17.081  0.00  0.00    +0.000 OA
ATOM     10  H   UNL     1       1.791   7.126  19.424  0.00  0.00    +0.000 HD
BRANCH   8  11
ATOM     11  C   UNL     1       0.918   9.495  18.974  0.00  0.00    +0.000 A 
ATOM     12  C   UNL     1       1.026   9.581  20.367  0.00  0.00    +0.000 A 
ATOM     13  C   UNL     1       0.112  10.358  21.084  0.00  0.00    +0.000 A 
ATOM     14  C   UNL     1      -0.894  11.056  20.410  0.00  0.00    +0.000 A 
ATOM     15  C   UNL     1      -1.024  10.956  19.028  0.00  0.00    +0.000 A 
ATOM     16  C   UNL     1      -0.104  10.189  18.310  0.00  0.00    +0.000 A 
BRANCH  14  17
ATOM     17  O   UNL     1      -1.755  11.818  21.228  0.00  0.00    +0.000 OA
BRANCH  17  18
ATOM     18  C   UNL     1      -1.573  11.917  22.609  0.00  0.00    +0.000 C 
ATOM     19  C   UNL     1      -1.024  13.275  22.934  0.00  0.00    +0.000 C 
ATOM     20  O   UNL     1      -1.866  11.080  23.451  0.00  0.00    +0.000 OA
ENDBRANCH  17  18
ENDBRANCH  14  17
ENDBRANCH   8  11
ENDBRANCH   6   7
BRANCH   1  21
ATOM     21  C   UNL     1       2.001   4.526  18.439  0.00  0.00    +0.000 C 
ATOM     22  O   UNL     1       1.321   4.803  19.418  0.00  0.00    +0.000 OA
BRANCH  21  23
ATOM     23  O   UNL     1       1.814   3.450  17.638  0.00  0.00    +0.000 OA
BRANCH  23  25
ATOM     24  C   UNL     1       2.966   1.541  18.486  0.00  0.00    +0.000 C 
ATOM     25  C   UNL     1       1.614   2.216  18.348  0.00  0.00    +0.000 C 
ENDBRANCH  23  25
ENDBRANCH  21  23
ENDBRANCH   1  21
BRANCH   3  26
ATOM     26  O   UNL     1       6.289   4.224  16.443  0.00  0.00    +0.000 OA
ATOM     27  C   UNL     1       6.094   3.941  15.063  0.00  0.00    +0.000 C 
ENDBRANCH   3  26
BRANCH   4  28
ATOM     28  O   UNL     1       6.749   7.060  16.610  0.00  0.00    +0.000 OA
ATOM     29  C   UNL     1       7.655   7.669  17.523  0.00  0.00    +0.000 C 
ENDBRANCH   4  28
TORSDOF 9
ENDMDL
MODEL 6
REMARK VINA RESULT:      -6.7      1.172      1.206
REMARK  Name = 
REMARK  13 active torsions:
REMARK  status: ('A' for Active; 'I' for Inactive)
REMARK    1  A    between atoms: C_1  and  C_2
REMARK    2  A    between atoms: C_2  and  O_3
REMARK    3  A    between atoms: O_3  and  C_4
REMARK    4  A    between atoms: C_4  and  C_6
REMARK    5  A    between atoms: C_8  and  O_9
REMARK    6  A    between atoms: O_9  and  C_10
REMARK    7  A    between atoms: C_11  and  O_12
REMARK    8  A    between atoms: O_12  and  C_13
REMARK    9  A    between atoms: C_15  and  N_16
REMARK   10  A    between atoms: C_17  and  C_19
REMARK   11  A    between atoms: C_22  and  O_23
REMARK   12  A    between atoms: O_23  and  C_24
REMARK   13  A    between atoms: C_24  and  C_25
REMARK                            x       y       z     vdW  Elec       q    Type
REMARK                         _______ _______ _______ _____ _____    ______ ____
ROOT
ATOM      1  C   UNL     1       3.284   4.962  17.565  0.00  0.00    +0.000 A 
ATOM      2  C   UNL     1       4.186   4.142  16.859  0.00  0.00    +0.000 A 
ATOM      3  C   UNL     1       5.452   4.592  16.474  0.00  0.00    +0.000 A 
ATOM      4  C   UNL     1       5.841   5.899  16.783  0.00  0.00    +0.000 A 
ATOM      5  C   UNL     1       4.946   6.714  17.490  0.00  0.00    +0.000 A 
ATOM      6  C   UNL     1       3.660   6.287  17.865  0.00  0.00    +0.000 A 
ENDROOT
BRANCH   6   7
ATOM      7  N   UNL     1       2.783   7.180  18.541  0.00  0.00    +0.000 N 
ATOM      8  C   UNL     1       2.334   7.061  19.848  0.00  0.00    +0.000 C 
ATOM      9  O   UNL     1       2.721   6.243  20.676  0.00  0.00    +0.000 OA
ATOM     10  H   UNL     1       2.604   8.062  18.065  0.00  0.00    +0.000 HD
BRANCH   8  11
ATOM     11  C   UNL     1       1.326   8.064  20.288  0.00  0.00    +0.000 A 
ATOM     12  C   UNL     1       0.653   7.941  21.510  0.00  0.00    +0.000 A 
ATOM     13  C   UNL     1      -0.224   8.948  21.920  0.00  0.00    +0.000 A 
ATOM     14  C   UNL     1      -0.417  10.078  21.120  0.00  0.00    +0.000 A 
ATOM     15  C   UNL     1       0.229  10.198  19.893  0.00  0.00    +0.000 A 
ATOM     16  C   UNL     1       1.115   9.197  19.488  0.00  0.00    +0.000 A 
BRANCH  14  17
ATOM     17  O   UNL     1      -1.314  11.039  21.633  0.00  0.00    +0.000 OA
BRANCH  17  18
ATOM     18  C   UNL     1      -1.228  12.390  21.293  0.00  0.00    +0.000 C 
ATOM     19  C   UNL     1      -2.387  12.748  20.410  0.00  0.00    +0.000 C 
ATOM     20  O   UNL     1      -0.397  13.196  21.688  0.00  0.00    +0.000 OA
ENDBRANCH  17  18
ENDBRANCH  14  17
ENDBRANCH   8  11
ENDBRANCH   6   7
BRANCH   1  21
ATOM     21  C   UNL     1       1.959   4.333  17.845  0.00  0.00    +0.000 C 
ATOM     22  O   UNL     1       0.941   4.641  17.239  0.00  0.00    +0.000 OA
BRANCH  21  23
ATOM     23  O   UNL     1       2.016   3.471  18.887  0.00  0.00    +0.000 OA
BRANCH  23  25
ATOM     24  C   UNL     1       1.291   2.933  21.095  0.00  0.00    +0.000 C 
ATOM     25  C   UNL     1       0.877   3.530  19.763  0.00  0.00    +0.000 C 
ENDBRANCH  23  25
ENDBRANCH  21  23
ENDBRANCH   1  21
BRANCH   3  26
ATOM     26  O   UNL     1       6.163   3.662  15.763  0.00  0.00    +0.000 OA
ATOM     27  C   UNL     1       6.167   3.810  14.349  0.00  0.00    +0.000 C 
ENDBRANCH   3  26
BRANCH   4  28
ATOM     28  O   UNL     1       7.068   6.329  16.356  0.00  0.00    +0.000 OA
ATOM     29  C   UNL     1       7.723   7.345  17.107  0.00  0.00    +0.000 C 
ENDBRANCH   4  28
TORSDOF 9
ENDMDL
MODEL 7
REMARK VINA RESULT:      -6.7      2.885      3.676
REMARK  Name = 
REMARK  13 active torsions:
REMARK  status: ('A' for Active; 'I' for Inactive)
REMARK    1  A    between atoms: C_1  and  C_2
REMARK    2  A    between atoms: C_2  and  O_3
REMARK    3  A    between atoms: O_3  and  C_4
REMARK    4  A    between atoms: C_4  and  C_6
REMARK    5  A    between atoms: C_8  and  O_9
REMARK    6  A    between atoms: O_9  and  C_10
REMARK    7  A    between atoms: C_11  and  O_12
REMARK    8  A    between atoms: O_12  and  C_13
REMARK    9  A    between atoms: C_15  and  N_16
REMARK   10  A    between atoms: C_17  and  C_19
REMARK   11  A    between atoms: C_22  and  O_23
REMARK   12  A    between atoms: O_23  and  C_24
REMARK   13  A    between atoms: C_24  and  C_25
REMARK                            x       y       z     vdW  Elec       q    Type
REMARK                         _______ _______ _______ _____ _____    ______ ____
ROOT
ATOM      1  C   UNL     1       2.860   6.581  19.306  0.00  0.00    +0.000 A 
ATOM      2  C   UNL     1       4.035   5.806  19.338  0.00  0.00    +0.000 A 
ATOM      3  C   UNL     1       4.983   5.854  18.312  0.00  0.00    +0.000 A 
ATOM      4  C   UNL     1       4.762   6.685  17.210  0.00  0.00    +0.000 A 
ATOM      5  C   UNL     1       3.595   7.461  17.179  0.00  0.00    +0.000 A 
ATOM      6  C   UNL     1       2.619   7.408  18.191  0.00  0.00    +0.000 A 
ENDROOT
BRANCH   6   7
ATOM      7  N   UNL     1       1.434   8.187  18.076  0.00  0.00    +0.000 N 
ATOM      8  C   UNL     1       1.352   9.571  18.125  0.00  0.00    +0.000 C 
ATOM      9  O   UNL     1       2.296  10.354  18.143  0.00  0.00    +0.000 OA
ATOM     10  H   UNL     1       0.605   7.681  17.772  0.00  0.00    +0.000 HD
BRANCH   8  11
ATOM     11  C   UNL     1      -0.021  10.146  18.098  0.00  0.00    +0.000 A 
ATOM     12  C   UNL     1      -0.333  11.331  18.776  0.00  0.00    +0.000 A 
ATOM     13  C   UNL     1      -1.613  11.879  18.657  0.00  0.00    +0.000 A 
ATOM     14  C   UNL     1      -2.571  11.253  17.854  0.00  0.00    +0.000 A 
ATOM     15  C   UNL     1      -2.278  10.062  17.196  0.00  0.00    +0.000 A 
ATOM     16  C   UNL     1      -0.995   9.520  17.305  0.00  0.00    +0.000 A 
BRANCH  14  17
ATOM     17  O   UNL     1      -3.826  11.895  17.794  0.00  0.00    +0.000 OA
BRANCH  17  18
ATOM     18  C   UNL     1      -4.898  11.504  18.599  0.00  0.00    +0.000 C 
ATOM     19  C   UNL     1      -5.118  12.543  19.659  0.00  0.00    +0.000 C 
ATOM     20  O   UNL     1      -5.608  10.519  18.452  0.00  0.00    +0.000 OA
ENDBRANCH  17  18
ENDBRANCH  14  17
ENDBRANCH   8  11
ENDBRANCH   6   7
BRANCH   1  21
ATOM     21  C   UNL     1       1.936   6.361  20.459  0.00  0.00    +0.000 C 
ATOM     22  O   UNL     1       1.279   7.263  20.960  0.00  0.00    +0.000 OA
BRANCH  21  23
ATOM     23  O   UNL     1       1.993   5.089  20.919  0.00  0.00    +0.000 OA
BRANCH  23  25
ATOM     24  C   UNL     1       1.385   2.796  20.661  0.00  0.00    +0.000 C 
ATOM     25  C   UNL     1       0.961   4.231  20.404  0.00  0.00    +0.000 C 
ENDBRANCH  23  25
ENDBRANCH  21  23
ENDBRANCH   1  21
BRANCH   3  26
ATOM     26  O   UNL     1       6.035   4.999  18.509  0.00  0.00    +0.000 OA
ATOM     27  C   UNL     1       7.180   5.538  19.156  0.00  0.00    +0.000 C 
ENDBRANCH   3  26
BRANCH   4  28
ATOM     28  O   UNL     1       5.684   6.680  16.198  0.00  0.00    +0.000 OA
ATOM     29  C   UNL     1       5.607   5.646  15.223  0.00  0.00    +0.000 C 
ENDBRANCH   4  28
TORSDOF 9
ENDMDL
MODEL 8
REMARK VINA RESULT:      -6.7      2.068      8.468
REMARK  Name = 
REMARK  13 active torsions:
REMARK  status: ('A' for Active; 'I' for Inactive)
REMARK    1  A    between atoms: C_1  and  C_2
REMARK    2  A    between atoms: C_2  and  O_3
REMARK    3  A    between atoms: O_3  and  C_4
REMARK    4  A    between atoms: C_4  and  C_6
REMARK    5  A    between atoms: C_8  and  O_9
REMARK    6  A    between atoms: O_9  and  C_10
REMARK    7  A    between atoms: C_11  and  O_12
REMARK    8  A    between atoms: O_12  and  C_13
REMARK    9  A    between atoms: C_15  and  N_16
REMARK   10  A    between atoms: C_17  and  C_19
REMARK   11  A    between atoms: C_22  and  O_23
REMARK   12  A    between atoms: O_23  and  C_24
REMARK   13  A    between atoms: C_24  and  C_25
REMARK                            x       y       z     vdW  Elec       q    Type
REMARK                         _______ _______ _______ _____ _____    ______ ____
ROOT
ATOM      1  C   UNL     1       1.803   6.373  20.058  0.00  0.00    +0.000 A 
ATOM      2  C   UNL     1       1.136   7.129  21.042  0.00  0.00    +0.000 A 
ATOM      3  C   UNL     1       0.896   8.498  20.889  0.00  0.00    +0.000 A 
ATOM      4  C   UNL     1       1.340   9.149  19.735  0.00  0.00    +0.000 A 
ATOM      5  C   UNL     1       2.000   8.397  18.753  0.00  0.00    +0.000 A 
ATOM      6  C   UNL     1       2.270   7.025  18.899  0.00  0.00    +0.000 A 
ENDROOT
BRANCH   6   7
ATOM      7  N   UNL     1       2.985   6.330  17.885  0.00  0.00    +0.000 N 
ATOM      8  C   UNL     1       4.324   5.967  17.925  0.00  0.00    +0.000 C 
ATOM      9  O   UNL     1       5.074   6.068  18.890  0.00  0.00    +0.000 OA
ATOM     10  H   UNL     1       2.416   5.930  17.142  0.00  0.00    +0.000 HD
BRANCH   8  11
ATOM     11  C   UNL     1       4.871   5.349  16.686  0.00  0.00    +0.000 A 
ATOM     12  C   UNL     1       5.250   6.125  15.584  0.00  0.00    +0.000 A 
ATOM     13  C   UNL     1       5.837   5.511  14.474  0.00  0.00    +0.000 A 
ATOM     14  C   UNL     1       6.054   4.131  14.472  0.00  0.00    +0.000 A 
ATOM     15  C   UNL     1       5.658   3.347  15.552  0.00  0.00    +0.000 A 
ATOM     16  C   UNL     1       5.084   3.962  16.667  0.00  0.00    +0.000 A 
BRANCH  14  17
ATOM     17  O   UNL     1       6.662   3.614  13.307  0.00  0.00    +0.000 OA
BRANCH  17  18
ATOM     18  C   UNL     1       5.913   3.149  12.224  0.00  0.00    +0.000 C 
ATOM     19  C   UNL     1       6.718   2.126  11.478  0.00  0.00    +0.000 C 
ATOM     20  O   UNL     1       4.763   3.451  11.941  0.00  0.00    +0.000 OA
ENDBRANCH  17  18
ENDBRANCH  14  17
ENDBRANCH   8  11
ENDBRANCH   6   7
BRANCH   1  21
ATOM     21  C   UNL     1       2.018   4.939  20.414  0.00  0.00    +0.000 C 
ATOM     22  O   UNL     1       3.103   4.503  20.772  0.00  0.00    +0.000 OA
BRANCH  21  23
ATOM     23  O   UNL     1       0.907   4.192  20.206  0.00  0.00    +0.000 OA
BRANCH  23  25
ATOM     24  C   UNL     1       1.500   3.038  18.204  0.00  0.00    +0.000 C 
ATOM     25  C   UNL     1       1.170   2.882  19.678  0.00  0.00    +0.000 C 
ENDBRANCH  23  25
ENDBRANCH  21  23
ENDBRANCH   1  21
BRANCH   3  26
ATOM     26  O   UNL     1       0.271   9.060  21.970  0.00  0.00    +0.000 OA
ATOM     27  C   UNL     1       1.102   9.435  23.062  0.00  0.00    +0.000 C 
ENDBRANCH   3  26
BRANCH   4  28
ATOM     28  O   UNL     1       1.132  10.498  19.631  0.00  0.00    +0.000 OA
ATOM     29  C   UNL     1      -0.056  10.947  18.988  0.00  0.00    +0.000 C 
ENDBRANCH   4  28
TORSDOF 9
ENDMDL
MODEL 9
REMARK VINA RESULT:      -6.7      1.417      1.585
REMARK  Name = 
REMARK  13 active torsions:
REMARK  status: ('A' for Active; 'I' for Inactive)
REMARK    1  A    between atoms: C_1  and  C_2
REMARK    2  A    between atoms: C_2  and  O_3
REMARK    3  A    between atoms: O_3  and  C_4
REMARK    4  A    between atoms: C_4  and  C_6
REMARK    5  A    between atoms: C_8  and  O_9
REMARK    6  A    between atoms: O_9  and  C_10
REMARK    7  A    between atoms: C_11  and  O_12
REMARK    8  A    between atoms: O_12  and  C_13
REMARK    9  A    between atoms: C_15  and  N_16
REMARK   10  A    between atoms: C_17  and  C_19
REMARK   11  A    between atoms: C_22  and  O_23
REMARK   12  A    between atoms: O_23  and  C_24
REMARK   13  A    between atoms: C_24  and  C_25
REMARK                            x       y       z     vdW  Elec       q    Type
REMARK                         _______ _______ _______ _____ _____    ______ ____
ROOT
ATOM      1  C   UNL     1       3.002   5.342  18.308  0.00  0.00    +0.000 A 
ATOM      2  C   UNL     1       3.994   4.542  17.709  0.00  0.00    +0.000 A 
ATOM      3  C   UNL     1       5.151   5.091  17.148  0.00  0.00    +0.000 A 
ATOM      4  C   UNL     1       5.333   6.477  17.166  0.00  0.00    +0.000 A 
ATOM      5  C   UNL     1       4.348   7.274  17.767  0.00  0.00    +0.000 A 
ATOM      6  C   UNL     1       3.168   6.742  18.316  0.00  0.00    +0.000 A 
ENDROOT
BRANCH   6   7
ATOM      7  N   UNL     1       2.187   7.610  18.869  0.00  0.00    +0.000 N 
ATOM      8  C   UNL     1       1.755   8.813  18.328  0.00  0.00    +0.000 C 
ATOM      9  O   UNL     1       2.049   9.260  17.225  0.00  0.00    +0.000 OA
ATOM     10  H   UNL     1       1.650   7.228  19.644  0.00  0.00    +0.000 HD
BRANCH   8  11
ATOM     11  C   UNL     1       0.801   9.599  19.159  0.00  0.00    +0.000 A 
ATOM     12  C   UNL     1       0.879   9.604  20.557  0.00  0.00    +0.000 A 
ATOM     13  C   UNL     1       0.017  10.420  21.294  0.00  0.00    +0.000 A 
ATOM     14  C   UNL     1      -0.908  11.236  20.637  0.00  0.00    +0.000 A 
ATOM     15  C   UNL     1      -1.009  11.220  19.248  0.00  0.00    +0.000 A 
ATOM     16  C   UNL     1      -0.139  10.413  18.511  0.00  0.00    +0.000 A 
BRANCH  14  17
ATOM     17  O   UNL     1      -1.722  12.028  21.474  0.00  0.00    +0.000 OA
BRANCH  17  18
ATOM     18  C   UNL     1      -2.462  13.107  20.985  0.00  0.00    +0.000 C 
ATOM     19  C   UNL     1      -3.924  12.789  21.099  0.00  0.00    +0.000 C 
ATOM     20  O   UNL     1      -2.026  14.177  20.585  0.00  0.00    +0.000 OA
ENDBRANCH  17  18
ENDBRANCH  14  17
ENDBRANCH   8  11
ENDBRANCH   6   7
BRANCH   1  21
ATOM     21  C   UNL     1       1.812   4.590  18.806  0.00  0.00    +0.000 C 
ATOM     22  O   UNL     1       1.322   4.784  19.911  0.00  0.00    +0.000 OA
BRANCH  21  23
ATOM     23  O   UNL     1       1.416   3.632  17.934  0.00  0.00    +0.000 OA
BRANCH  23  25
ATOM     24  C   UNL     1       2.256   1.660  18.981  0.00  0.00    +0.000 C 
ATOM     25  C   UNL     1       1.002   2.404  18.558  0.00  0.00    +0.000 C 
ENDBRANCH  23  25
ENDBRANCH  21  23
ENDBRANCH   1  21
BRANCH   3  26
ATOM     26  O   UNL     1       5.972   4.154  16.579  0.00  0.00    +0.000 OA
ATOM     27  C   UNL     1       5.826   3.945  15.180  0.00  0.00    +0.000 C 
ENDBRANCH   3  26
BRANCH   4  28
ATOM     28  O   UNL     1       6.453   6.992  16.570  0.00  0.00    +0.000 OA
ATOM     29  C   UNL     1       7.531   7.398  17.406  0.00  0.00    +0.000 C 
ENDBRANCH   4  28
TORSDOF 9
ENDMDL
