MODEL 1
REMARK VINA RESULT:      -7.3      0.000      0.000
REMARK  Name = 
REMARK  4 active torsions:
REMARK  status: ('A' for Active; 'I' for Inactive)
REMARK    1  A    between atoms: O_1  and  C_2
REMARK    2  A    between atoms: C_6  and  C_7
REMARK    3  A    between atoms: C_7  and  C_8
REMARK    4  A    between atoms: C_8  and  C_9
REMARK                            x       y       z     vdW  Elec       q    Type
REMARK                         _______ _______ _______ _____ _____    ______ ____
ROOT
ATOM      1  C   UNL     1       6.870   4.797  17.085  0.00  0.00    +0.000 A 
ATOM      2  C   UNL     1       5.852   4.739  16.131  0.00  0.00    +0.000 A 
ATOM      3 BR   UNL     1       6.154   3.937  14.438  0.00  0.00    +0.000 Br
ATOM      4  C   UNL     1       4.590   5.274  16.405  0.00  0.00    +0.000 A 
ATOM      5  C   UNL     1       4.315   5.865  17.648  0.00  0.00    +0.000 A 
ATOM      6  C   UNL     1       5.352   5.927  18.596  0.00  0.00    +0.000 A 
ATOM      7  C   UNL     1       6.616   5.392  18.319  0.00  0.00    +0.000 A 
ATOM      8 BR   UNL     1       7.957   5.509  19.656  0.00  0.00    +0.000 Br
ENDROOT
BRANCH   1   9
ATOM      9  O   UNL     1       8.113   4.284  16.819  0.00  0.00    +0.000 OA
ATOM     10  H   UNL     1       8.683   5.019  16.526  0.00  0.00    +0.000 HD
ENDBRANCH   1   9
BRANCH   5  11
ATOM     11  C   UNL     1       2.974   6.497  17.975  0.00  0.00    +0.000 C 
BRANCH  11  12
ATOM     12  C   UNL     1       2.559   6.425  19.451  0.00  0.00    +0.000 C 
BRANCH  12  13
ATOM     13  C   UNL     1       2.095   5.048  19.867  0.00  0.00    +0.000 A 
ATOM     14  C   UNL     1       1.446   4.207  18.952  0.00  0.00    +0.000 A 
ATOM     15  C   UNL     1       1.040   2.926  19.335  0.00  0.00    +0.000 A 
ATOM     16  C   UNL     1       1.274   2.477  20.632  0.00  0.00    +0.000 A 
ATOM     17  C   UNL     1       1.912   3.310  21.551  0.00  0.00    +0.000 A 
ATOM     18  C   UNL     1       2.318   4.590  21.171  0.00  0.00    +0.000 A 
ENDBRANCH  12  13
ENDBRANCH  11  12
ENDBRANCH   5  11
TORSDOF 4
ENDMDL
MODEL 2
REMARK VINA RESULT:      -7.2      0.567      2.620
REMARK  Name = 
REMARK  4 active torsions:
REMARK  status: ('A' for Active; 'I' for Inactive)
REMARK    1  A    between atoms: O_1  and  C_2
REMARK    2  A    between atoms: C_6  and  C_7
REMARK    3  A    between atoms: C_7  and  C_8
REMARK    4  A    between atoms: C_8  and  C_9
REMARK                            x       y       z     vdW  Elec       q    Type
REMARK                         _______ _______ _______ _____ _____    ______ ____
ROOT
ATOM      1  C   UNL     1       6.899   4.759  17.228  0.00  0.00    +0.000 A 
ATOM      2  C   UNL     1       6.660   5.364  18.463  0.00  0.00    +0.000 A 
ATOM      3 BR   UNL     1       8.011   5.413  19.795  0.00  0.00    +0.000 Br
ATOM      4  C   UNL     1       5.419   5.944  18.744  0.00  0.00    +0.000 A 
ATOM      5  C   UNL     1       4.394   5.944  17.786  0.00  0.00    +0.000 A 
ATOM      6  C   UNL     1       4.642   5.322  16.550  0.00  0.00    +0.000 A 
ATOM      7  C   UNL     1       5.885   4.740  16.270  0.00  0.00    +0.000 A 
ATOM      8 BR   UNL     1       6.141   3.930  14.574  0.00  0.00    +0.000 Br
ENDROOT
BRANCH   1   9
ATOM      9  O   UNL     1       8.109   4.180  16.949  0.00  0.00    +0.000 OA
ATOM     10  H   UNL     1       8.380   3.665  17.731  0.00  0.00    +0.000 HD
ENDBRANCH   1   9
BRANCH   5  11
ATOM     11  C   UNL     1       3.018   6.522  18.061  0.00  0.00    +0.000 C 
BRANCH  11  12
ATOM     12  C   UNL     1       1.849   5.540  17.891  0.00  0.00    +0.000 C 
BRANCH  12  13
ATOM     13  C   UNL     1       1.807   4.481  18.968  0.00  0.00    +0.000 A 
ATOM     14  C   UNL     1       1.910   4.834  20.321  0.00  0.00    +0.000 A 
ATOM     15  C   UNL     1       1.848   3.853  21.313  0.00  0.00    +0.000 A 
ATOM     16  C   UNL     1       1.688   2.515  20.964  0.00  0.00    +0.000 A 
ATOM     17  C   UNL     1       1.593   2.154  19.621  0.00  0.00    +0.000 A 
ATOM     18  C   UNL     1       1.655   3.132  18.627  0.00  0.00    +0.000 A 
ENDBRANCH  12  13
ENDBRANCH  11  12
ENDBRANCH   5  11
TORSDOF 4
ENDMDL
MODEL 3
REMARK VINA RESULT:      -7.2      0.549      1.266
REMARK  Name = 
REMARK  4 active torsions:
REMARK  status: ('A' for Active; 'I' for Inactive)
REMARK    1  A    between atoms: O_1  and  C_2
REMARK    2  A    between atoms: C_6  and  C_7
REMARK    3  A    between atoms: C_7  and  C_8
REMARK    4  A    between atoms: C_8  and  C_9
REMARK                            x       y       z     vdW  Elec       q    Type
REMARK                         _______ _______ _______ _____ _____    ______ ____
ROOT
ATOM      1  C   UNL     1       6.916   4.783  17.138  0.00  0.00    +0.000 A 
ATOM      2  C   UNL     1       5.892   4.743  16.189  0.00  0.00    +0.000 A 
ATOM      3 BR   UNL     1       6.176   3.948  14.490  0.00  0.00    +0.000 Br
ATOM      4  C   UNL     1       4.638   5.291  16.473  0.00  0.00    +0.000 A 
ATOM      5  C   UNL     1       4.377   5.878  17.721  0.00  0.00    +0.000 A 
ATOM      6  C   UNL     1       5.419   5.922  18.663  0.00  0.00    +0.000 A 
ATOM      7  C   UNL     1       6.675   5.374  18.377  0.00  0.00    +0.000 A 
ATOM      8 BR   UNL     1       8.024   5.467  19.708  0.00  0.00    +0.000 Br
ENDROOT
BRANCH   1   9
ATOM      9  O   UNL     1       8.152   4.257  16.863  0.00  0.00    +0.000 OA
ATOM     10  H   UNL     1       8.021   3.362  16.500  0.00  0.00    +0.000 HD
ENDBRANCH   1   9
BRANCH   5  11
ATOM     11  C   UNL     1       3.045   6.524  18.059  0.00  0.00    +0.000 C 
BRANCH  11  12
ATOM     12  C   UNL     1       1.821   5.604  17.938  0.00  0.00    +0.000 C 
BRANCH  12  13
ATOM     13  C   UNL     1       1.790   4.521  18.991  0.00  0.00    +0.000 A 
ATOM     14  C   UNL     1       1.928   4.842  20.349  0.00  0.00    +0.000 A 
ATOM     15  C   UNL     1       1.876   3.840  21.320  0.00  0.00    +0.000 A 
ATOM     16  C   UNL     1       1.691   2.512  20.945  0.00  0.00    +0.000 A 
ATOM     17  C   UNL     1       1.561   2.183  19.596  0.00  0.00    +0.000 A 
ATOM     18  C   UNL     1       1.613   3.182  18.624  0.00  0.00    +0.000 A 
ENDBRANCH  12  13
ENDBRANCH  11  12
ENDBRANCH   5  11
TORSDOF 4
ENDMDL
MODEL 4
REMARK VINA RESULT:      -7.2      0.575      2.407
REMARK  Name = 
REMARK  4 active torsions:
REMARK  status: ('A' for Active; 'I' for Inactive)
REMARK    1  A    between atoms: O_1  and  C_2
REMARK    2  A    between atoms: C_6  and  C_7
REMARK    3  A    between atoms: C_7  and  C_8
REMARK    4  A    between atoms: C_8  and  C_9
REMARK                            x       y       z     vdW  Elec       q    Type
REMARK                         _______ _______ _______ _____ _____    ______ ____
ROOT
ATOM      1  C   UNL     1       6.911   4.794  17.163  0.00  0.00    +0.000 A 
ATOM      2  C   UNL     1       6.674   5.400  18.398  0.00  0.00    +0.000 A 
ATOM      3 BR   UNL     1       8.041   5.490  19.711  0.00  0.00    +0.000 Br
ATOM      4  C   UNL     1       5.423   5.952  18.691  0.00  0.00    +0.000 A 
ATOM      5  C   UNL     1       4.386   5.922  17.748  0.00  0.00    +0.000 A 
ATOM      6  C   UNL     1       4.633   5.298  16.512  0.00  0.00    +0.000 A 
ATOM      7  C   UNL     1       5.885   4.744  16.219  0.00  0.00    +0.000 A 
ATOM      8 BR   UNL     1       6.138   3.929  14.525  0.00  0.00    +0.000 Br
ENDROOT
BRANCH   1   9
ATOM      9  O   UNL     1       8.131   4.241  16.871  0.00  0.00    +0.000 OA
ATOM     10  H   UNL     1       8.804   4.708  17.400  0.00  0.00    +0.000 HD
ENDBRANCH   1   9
BRANCH   5  11
ATOM     11  C   UNL     1       3.000   6.469  18.037  0.00  0.00    +0.000 C 
BRANCH  11  12
ATOM     12  C   UNL     1       1.856   5.452  17.916  0.00  0.00    +0.000 C 
BRANCH  12  13
ATOM     13  C   UNL     1       1.838   4.446  19.044  0.00  0.00    +0.000 A 
ATOM     14  C   UNL     1       1.664   3.080  18.780  0.00  0.00    +0.000 A 
ATOM     15  C   UNL     1       1.671   2.153  19.824  0.00  0.00    +0.000 A 
ATOM     16  C   UNL     1       1.847   2.580  21.137  0.00  0.00    +0.000 A 
ATOM     17  C   UNL     1       2.013   3.938  21.410  0.00  0.00    +0.000 A 
ATOM     18  C   UNL     1       2.006   4.866  20.369  0.00  0.00    +0.000 A 
ENDBRANCH  12  13
ENDBRANCH  11  12
ENDBRANCH   5  11
TORSDOF 4
ENDMDL
MODEL 5
REMARK VINA RESULT:      -6.8      1.005      2.663
REMARK  Name = 
REMARK  4 active torsions:
REMARK  status: ('A' for Active; 'I' for Inactive)
REMARK    1  A    between atoms: O_1  and  C_2
REMARK    2  A    between atoms: C_6  and  C_7
REMARK    3  A    between atoms: C_7  and  C_8
REMARK    4  A    between atoms: C_8  and  C_9
REMARK                            x       y       z     vdW  Elec       q    Type
REMARK                         _______ _______ _______ _____ _____    ______ ____
ROOT
ATOM      1  C   UNL     1       6.721   4.815  16.679  0.00  0.00    +0.000 A 
ATOM      2  C   UNL     1       6.448   5.372  17.929  0.00  0.00    +0.000 A 
ATOM      3 BR   UNL     1       7.853   5.762  19.144  0.00  0.00    +0.000 Br
ATOM      4  C   UNL     1       5.132   5.651  18.313  0.00  0.00    +0.000 A 
ATOM      5  C   UNL     1       4.062   5.393  17.444  0.00  0.00    +0.000 A 
ATOM      6  C   UNL     1       4.348   4.821  16.191  0.00  0.00    +0.000 A 
ATOM      7  C   UNL     1       5.666   4.541  15.809  0.00  0.00    +0.000 A 
ATOM      8 BR   UNL     1       5.966   3.778  14.098  0.00  0.00    +0.000 Br
ENDROOT
BRANCH   1   9
ATOM      9  O   UNL     1       8.007   4.529  16.300  0.00  0.00    +0.000 OA
ATOM     10  H   UNL     1       8.481   4.195  17.084  0.00  0.00    +0.000 HD
ENDBRANCH   1   9
BRANCH   5  11
ATOM     11  C   UNL     1       2.615   5.638  17.832  0.00  0.00    +0.000 C 
BRANCH  11  12
ATOM     12  C   UNL     1       1.755   4.376  17.990  0.00  0.00    +0.000 C 
BRANCH  12  13
ATOM     13  C   UNL     1       2.015   3.644  19.285  0.00  0.00    +0.000 A 
ATOM     14  C   UNL     1       3.205   2.926  19.474  0.00  0.00    +0.000 A 
ATOM     15  C   UNL     1       3.449   2.270  20.682  0.00  0.00    +0.000 A 
ATOM     16  C   UNL     1       2.509   2.320  21.709  0.00  0.00    +0.000 A 
ATOM     17  C   UNL     1       1.320   3.025  21.527  0.00  0.00    +0.000 A 
ATOM     18  C   UNL     1       1.073   3.682  20.320  0.00  0.00    +0.000 A 
ENDBRANCH  12  13
ENDBRANCH  11  12
ENDBRANCH   5  11
TORSDOF 4
ENDMDL
MODEL 6
REMARK VINA RESULT:      -6.7      3.252      5.785
REMARK  Name = 
REMARK  4 active torsions:
REMARK  status: ('A' for Active; 'I' for Inactive)
REMARK    1  A    between atoms: O_1  and  C_2
REMARK    2  A    between atoms: C_6  and  C_7
REMARK    3  A    between atoms: C_7  and  C_8
REMARK    4  A    between atoms: C_8  and  C_9
REMARK                            x       y       z     vdW  Elec       q    Type
REMARK                         _______ _______ _______ _____ _____    ______ ____
ROOT
ATOM      1  C   UNL     1       2.582   5.444  19.707  0.00  0.00    +0.000 A 
ATOM      2  C   UNL     1       2.802   6.362  18.679  0.00  0.00    +0.000 A 
ATOM      3 BR   UNL     1       2.152   8.140  18.811  0.00  0.00    +0.000 Br
ATOM      4  C   UNL     1       3.504   5.988  17.529  0.00  0.00    +0.000 A 
ATOM      5  C   UNL     1       4.015   4.689  17.391  0.00  0.00    +0.000 A 
ATOM      6  C   UNL     1       3.778   3.770  18.428  0.00  0.00    +0.000 A 
ATOM      7  C   UNL     1       3.074   4.145  19.579  0.00  0.00    +0.000 A 
ATOM      8 BR   UNL     1       2.805   2.847  20.936  0.00  0.00    +0.000 Br
ENDROOT
BRANCH   1   9
ATOM      9  O   UNL     1       1.886   5.800  20.833  0.00  0.00    +0.000 OA
ATOM     10  H   UNL     1       1.329   5.042  21.091  0.00  0.00    +0.000 HD
ENDBRANCH   1   9
BRANCH   5  11
ATOM     11  C   UNL     1       4.746   4.225  16.144  0.00  0.00    +0.000 C 
BRANCH  11  12
ATOM     12  C   UNL     1       6.265   4.060  16.297  0.00  0.00    +0.000 C 
BRANCH  12  13
ATOM     13  C   UNL     1       6.898   5.161  17.114  0.00  0.00    +0.000 A 
ATOM     14  C   UNL     1       7.421   4.894  18.389  0.00  0.00    +0.000 A 
ATOM     15  C   UNL     1       8.026   5.911  19.131  0.00  0.00    +0.000 A 
ATOM     16  C   UNL     1       8.111   7.200  18.611  0.00  0.00    +0.000 A 
ATOM     17  C   UNL     1       7.587   7.476  17.349  0.00  0.00    +0.000 A 
ATOM     18  C   UNL     1       6.982   6.462  16.605  0.00  0.00    +0.000 A 
ENDBRANCH  12  13
ENDBRANCH  11  12
ENDBRANCH   5  11
TORSDOF 4
ENDMDL
MODEL 7
REMARK VINA RESULT:      -6.7      1.389      3.527
REMARK  Name = 
REMARK  4 active torsions:
REMARK  status: ('A' for Active; 'I' for Inactive)
REMARK    1  A    between atoms: O_1  and  C_2
REMARK    2  A    between atoms: C_6  and  C_7
REMARK    3  A    between atoms: C_7  and  C_8
REMARK    4  A    between atoms: C_8  and  C_9
REMARK                            x       y       z     vdW  Elec       q    Type
REMARK                         _______ _______ _______ _____ _____    ______ ____
ROOT
ATOM      1  C   UNL     1       6.653   4.940  16.597  0.00  0.00    +0.000 A 
ATOM      2  C   UNL     1       6.533   4.974  17.988  0.00  0.00    +0.000 A 
ATOM      3 BR   UNL     1       7.791   5.922  19.046  0.00  0.00    +0.000 Br
ATOM      4  C   UNL     1       5.483   4.308  18.628  0.00  0.00    +0.000 A 
ATOM      5  C   UNL     1       4.521   3.606  17.887  0.00  0.00    +0.000 A 
ATOM      6  C   UNL     1       4.659   3.569  16.489  0.00  0.00    +0.000 A 
ATOM      7  C   UNL     1       5.712   4.235  15.849  0.00  0.00    +0.000 A 
ATOM      8 BR   UNL     1       5.820   4.142  13.957  0.00  0.00    +0.000 Br
ENDROOT
BRANCH   1   9
ATOM      9  O   UNL     1       7.685   5.581  15.963  0.00  0.00    +0.000 OA
ATOM     10  H   UNL     1       7.382   6.478  15.732  0.00  0.00    +0.000 HD
ENDBRANCH   1   9
BRANCH   5  11
ATOM     11  C   UNL     1       3.390   2.832  18.540  0.00  0.00    +0.000 C 
BRANCH  11  12
ATOM     12  C   UNL     1       2.008   3.497  18.457  0.00  0.00    +0.000 C 
BRANCH  12  13
ATOM     13  C   UNL     1       2.011   4.926  18.947  0.00  0.00    +0.000 A 
ATOM     14  C   UNL     1       1.754   5.219  20.295  0.00  0.00    +0.000 A 
ATOM     15  C   UNL     1       1.780   6.540  20.747  0.00  0.00    +0.000 A 
ATOM     16  C   UNL     1       2.058   7.578  19.861  0.00  0.00    +0.000 A 
ATOM     17  C   UNL     1       2.305   7.296  18.518  0.00  0.00    +0.000 A 
ATOM     18  C   UNL     1       2.280   5.977  18.063  0.00  0.00    +0.000 A 
ENDBRANCH  12  13
ENDBRANCH  11  12
ENDBRANCH   5  11
TORSDOF 4
ENDMDL
MODEL 8
REMARK VINA RESULT:      -6.7      1.405      3.388
REMARK  Name = 
REMARK  4 active torsions:
REMARK  status: ('A' for Active; 'I' for Inactive)
REMARK    1  A    between atoms: O_1  and  C_2
REMARK    2  A    between atoms: C_6  and  C_7
REMARK    3  A    between atoms: C_7  and  C_8
REMARK    4  A    between atoms: C_8  and  C_9
REMARK                            x       y       z     vdW  Elec       q    Type
REMARK                         _______ _______ _______ _____ _____    ______ ____
ROOT
ATOM      1  C   UNL     1       6.653   4.976  16.538  0.00  0.00    +0.000 A 
ATOM      2  C   UNL     1       6.540   5.023  17.929  0.00  0.00    +0.000 A 
ATOM      3 BR   UNL     1       7.800   5.987  18.971  0.00  0.00    +0.000 Br
ATOM      4  C   UNL     1       5.498   4.358  18.582  0.00  0.00    +0.000 A 
ATOM      5  C   UNL     1       4.535   3.644  17.853  0.00  0.00    +0.000 A 
ATOM      6  C   UNL     1       4.665   3.594  16.454  0.00  0.00    +0.000 A 
ATOM      7  C   UNL     1       5.711   4.259  15.802  0.00  0.00    +0.000 A 
ATOM      8 BR   UNL     1       5.809   4.149  13.910  0.00  0.00    +0.000 Br
ENDROOT
BRANCH   1   9
ATOM      9  O   UNL     1       7.678   5.616  15.892  0.00  0.00    +0.000 OA
ATOM     10  H   UNL     1       8.517   5.258  16.235  0.00  0.00    +0.000 HD
ENDBRANCH   1   9
BRANCH   5  11
ATOM     11  C   UNL     1       3.411   2.871  18.520  0.00  0.00    +0.000 C 
BRANCH  11  12
ATOM     12  C   UNL     1       2.029   3.537  18.453  0.00  0.00    +0.000 C 
BRANCH  12  13
ATOM     13  C   UNL     1       2.037   4.963  18.951  0.00  0.00    +0.000 A 
ATOM     14  C   UNL     1       2.296   6.025  18.072  0.00  0.00    +0.000 A 
ATOM     15  C   UNL     1       2.279   7.343  18.532  0.00  0.00    +0.000 A 
ATOM     16  C   UNL     1       2.008   7.613  19.871  0.00  0.00    +0.000 A 
ATOM     17  C   UNL     1       1.757   6.563  20.754  0.00  0.00    +0.000 A 
ATOM     18  C   UNL     1       1.773   5.245  20.297  0.00  0.00    +0.000 A 
ENDBRANCH  12  13
ENDBRANCH  11  12
ENDBRANCH   5  11
TORSDOF 4
ENDMDL
MODEL 9
REMARK VINA RESULT:      -6.7      1.788      3.349
REMARK  Name = 
REMARK  4 active torsions:
REMARK  status: ('A' for Active; 'I' for Inactive)
REMARK    1  A    between atoms: O_1  and  C_2
REMARK    2  A    between atoms: C_6  and  C_7
REMARK    3  A    between atoms: C_7  and  C_8
REMARK    4  A    between atoms: C_8  and  C_9
REMARK                            x       y       z     vdW  Elec       q    Type
REMARK                         _______ _______ _______ _____ _____    ______ ____
ROOT
ATOM      1  C   UNL     1       6.649   4.739  16.918  0.00  0.00    +0.000 A 
ATOM      2  C   UNL     1       5.553   4.447  16.105  0.00  0.00    +0.000 A 
ATOM      3 BR   UNL     1       5.802   3.832  14.327  0.00  0.00    +0.000 Br
ATOM      4  C   UNL     1       4.249   4.603  16.585  0.00  0.00    +0.000 A 
ATOM      5  C   UNL     1       4.015   5.042  17.896  0.00  0.00    +0.000 A 
ATOM      6  C   UNL     1       5.127   5.344  18.702  0.00  0.00    +0.000 A 
ATOM      7  C   UNL     1       6.432   5.189  18.220  0.00  0.00    +0.000 A 
ATOM      8 BR   UNL     1       7.877   5.610  19.375  0.00  0.00    +0.000 Br
ENDROOT
BRANCH   1   9
ATOM      9  O   UNL     1       7.930   4.599  16.451  0.00  0.00    +0.000 OA
ATOM     10  H   UNL     1       8.538   4.881  17.159  0.00  0.00    +0.000 HD
ENDBRANCH   1   9
BRANCH   5  11
ATOM     11  C   UNL     1       2.618   5.268  18.447  0.00  0.00    +0.000 C 
BRANCH  11  12
ATOM     12  C   UNL     1       2.544   6.144  19.706  0.00  0.00    +0.000 C 
BRANCH  12  13
ATOM     13  C   UNL     1       2.044   7.542  19.424  0.00  0.00    +0.000 A 
ATOM     14  C   UNL     1       2.227   8.124  18.161  0.00  0.00    +0.000 A 
ATOM     15  C   UNL     1       1.743   9.407  17.898  0.00  0.00    +0.000 A 
ATOM     16  C   UNL     1       1.078  10.121  18.892  0.00  0.00    +0.000 A 
ATOM     17  C   UNL     1       0.899   9.553  20.153  0.00  0.00    +0.000 A 
ATOM     18  C   UNL     1       1.381   8.271  20.418  0.00  0.00    +0.000 A 
ENDBRANCH  12  13
ENDBRANCH  11  12
ENDBRANCH   5  11
TORSDOF 4
ENDMDL
