MODEL 1
REMARK VINA RESULT:      -8.1      0.000      0.000
REMARK  Name = 
REMARK  7 active torsions:
REMARK  status: ('A' for Active; 'I' for Inactive)
REMARK    1  A    between atoms: C_1  and  O_2
REMARK    2  A    between atoms: O_2  and  C_3
REMARK    3  A    between atoms: C_5  and  C_6
REMARK    4  A    between atoms: C_9  and  C_10
REMARK    5  A    between atoms: N_16  and  C_17
REMARK    6  A    between atoms: C_17  and  C_18
REMARK    7  A    between atoms: C_17  and  C_19
REMARK                            x       y       z     vdW  Elec       q    Type
REMARK                         _______ _______ _______ _____ _____    ______ ____
ROOT
ATOM      1  C   UNL     1       2.617   6.626  18.700  0.00  0.00    +0.000 A 
ATOM      2  N   UNL     1       2.030   5.578  19.199  0.00  0.00    +0.000 NA
ATOM      3  C   UNL     1       2.578   4.310  18.934  0.00  0.00    +0.000 A 
ATOM      4  C   UNL     1       1.990   3.151  19.425  0.00  0.00    +0.000 A 
ATOM      5  C   UNL     1       0.727   3.179  20.236  0.00  0.00    +0.000 C 
ATOM      6  N   UNL     1       2.502   1.916  19.202  0.00  0.00    +0.000 NA
ATOM      7  C   UNL     1       3.622   1.839  18.488  0.00  0.00    +0.000 A 
ATOM      8  N   UNL     1       4.173   0.591  18.301  0.00  0.00    +0.000 N 
ATOM      9  N   UNL     1       4.236   2.878  17.927  0.00  0.00    +0.000 NA
ATOM     10  C   UNL     1       3.718   4.104  18.159  0.00  0.00    +0.000 A 
ATOM     11  N   UNL     1       4.368   5.235  17.592  0.00  0.00    +0.000 N 
ATOM     12  C   UNL     1       3.902   6.516  17.867  0.00  0.00    +0.000 A 
ATOM     13  O   UNL     1       4.455   7.545  17.495  0.00  0.00    +0.000 OA
ATOM     14  H   UNL     1       3.472  -0.128  18.410  0.00  0.00    +0.000 HD
ATOM     15  H   UNL     1       4.754   0.566  17.477  0.00  0.00    +0.000 HD
ENDROOT
BRANCH   1  18
ATOM     16  C   UNL     1       1.085   9.603  20.408  0.00  0.00    +0.000 A 
ATOM     17  C   UNL     1       1.635   8.345  20.233  0.00  0.00    +0.000 A 
ATOM     18  C   UNL     1       2.014   7.970  18.939  0.00  0.00    +0.000 A 
ATOM     19  C   UNL     1       1.790   8.853  17.885  0.00  0.00    +0.000 A 
ATOM     20  C   UNL     1       1.244  10.090  18.168  0.00  0.00    +0.000 A 
ATOM     21  N   UNL     1       0.896  10.484  19.405  0.00  0.00    +0.000 NA
BRANCH  16  23
ATOM     22  C   UNL     1      -0.306   9.102  22.216  0.00  0.00    +0.000 C 
ATOM     23  O   UNL     1       0.709   9.955  21.690  0.00  0.00    +0.000 OA
ENDBRANCH  16  23
ENDBRANCH   1  18
BRANCH  11  24
ATOM     24  C   UNL     1       5.546   5.038  16.722  0.00  0.00    +0.000 C 
ATOM     25  C   UNL     1       5.349   5.679  15.343  0.00  0.00    +0.000 C 
ATOM     26  C   UNL     1       6.846   5.530  17.366  0.00  0.00    +0.000 C 
ENDBRANCH  11  24
TORSDOF 3
ENDMDL
MODEL 2
REMARK VINA RESULT:      -7.8      1.011      1.011
REMARK  Name = 
REMARK  7 active torsions:
REMARK  status: ('A' for Active; 'I' for Inactive)
REMARK    1  A    between atoms: C_1  and  O_2
REMARK    2  A    between atoms: O_2  and  C_3
REMARK    3  A    between atoms: C_5  and  C_6
REMARK    4  A    between atoms: C_9  and  C_10
REMARK    5  A    between atoms: N_16  and  C_17
REMARK    6  A    between atoms: C_17  and  C_18
REMARK    7  A    between atoms: C_17  and  C_19
REMARK                            x       y       z     vdW  Elec       q    Type
REMARK                         _______ _______ _______ _____ _____    ______ ____
ROOT
ATOM      1  C   UNL     1       2.792   6.675  19.125  0.00  0.00    +0.000 A 
ATOM      2  N   UNL     1       2.396   5.705  19.897  0.00  0.00    +0.000 NA
ATOM      3  C   UNL     1       3.131   4.505  19.898  0.00  0.00    +0.000 A 
ATOM      4  C   UNL     1       2.752   3.427  20.688  0.00  0.00    +0.000 A 
ATOM      5  C   UNL     1       1.529   3.465  21.558  0.00  0.00    +0.000 C 
ATOM      6  N   UNL     1       3.445   2.263  20.726  0.00  0.00    +0.000 NA
ATOM      7  C   UNL     1       4.539   2.180  19.971  0.00  0.00    +0.000 A 
ATOM      8  N   UNL     1       5.274   1.019  20.043  0.00  0.00    +0.000 N 
ATOM      9  N   UNL     1       4.960   3.130  19.139  0.00  0.00    +0.000 NA
ATOM     10  C   UNL     1       4.262   4.286  19.113  0.00  0.00    +0.000 A 
ATOM     11  N   UNL     1       4.703   5.328  18.252  0.00  0.00    +0.000 N 
ATOM     12  C   UNL     1       4.049   6.555  18.252  0.00  0.00    +0.000 A 
ATOM     13  O   UNL     1       4.418   7.532  17.609  0.00  0.00    +0.000 OA
ATOM     14  H   UNL     1       4.702   0.253  20.368  0.00  0.00    +0.000 HD
ATOM     15  H   UNL     1       5.823   0.879  19.208  0.00  0.00    +0.000 HD
ENDROOT
BRANCH   1  18
ATOM     16  C   UNL     1       0.738   9.640  20.184  0.00  0.00    +0.000 A 
ATOM     17  C   UNL     1       1.470   8.468  20.268  0.00  0.00    +0.000 A 
ATOM     18  C   UNL     1       1.991   7.934  19.085  0.00  0.00    +0.000 A 
ATOM     19  C   UNL     1       1.723   8.574  17.877  0.00  0.00    +0.000 A 
ATOM     20  C   UNL     1       0.990   9.745  17.902  0.00  0.00    +0.000 A 
ATOM     21  N   UNL     1       0.501  10.293  19.027  0.00  0.00    +0.000 NA
BRANCH  16  23
ATOM     22  C   UNL     1      -0.238   9.129  22.243  0.00  0.00    +0.000 C 
ATOM     23  O   UNL     1       0.225  10.150  21.360  0.00  0.00    +0.000 OA
ENDBRANCH  16  23
ENDBRANCH   1  18
BRANCH  11  24
ATOM     24  C   UNL     1       5.867   5.100  17.371  0.00  0.00    +0.000 C 
ATOM     25  C   UNL     1       5.492   5.223  15.888  0.00  0.00    +0.000 C 
ATOM     26  C   UNL     1       7.051   6.013  17.705  0.00  0.00    +0.000 C 
ENDBRANCH  11  24
TORSDOF 3
ENDMDL
MODEL 3
REMARK VINA RESULT:      -7.8      3.208      5.629
REMARK  Name = 
REMARK  7 active torsions:
REMARK  status: ('A' for Active; 'I' for Inactive)
REMARK    1  A    between atoms: C_1  and  O_2
REMARK    2  A    between atoms: O_2  and  C_3
REMARK    3  A    between atoms: C_5  and  C_6
REMARK    4  A    between atoms: C_9  and  C_10
REMARK    5  A    between atoms: N_16  and  C_17
REMARK    6  A    between atoms: C_17  and  C_18
REMARK    7  A    between atoms: C_17  and  C_19
REMARK                            x       y       z     vdW  Elec       q    Type
REMARK                         _______ _______ _______ _____ _____    ______ ____
ROOT
ATOM      1  C   UNL     1       4.552   4.047  17.178  0.00  0.00    +0.000 A 
ATOM      2  N   UNL     1       4.632   3.799  15.903  0.00  0.00    +0.000 NA
ATOM      3  C   UNL     1       5.709   4.344  15.180  0.00  0.00    +0.000 A 
ATOM      4  C   UNL     1       5.844   4.128  13.813  0.00  0.00    +0.000 A 
ATOM      5  C   UNL     1       4.842   3.333  13.027  0.00  0.00    +0.000 C 
ATOM      6  N   UNL     1       6.877   4.624  13.090  0.00  0.00    +0.000 NA
ATOM      7  C   UNL     1       7.793   5.336  13.742  0.00  0.00    +0.000 A 
ATOM      8  N   UNL     1       8.871   5.799  13.021  0.00  0.00    +0.000 N 
ATOM      9  N   UNL     1       7.732   5.646  15.035  0.00  0.00    +0.000 NA
ATOM     10  C   UNL     1       6.700   5.144  15.746  0.00  0.00    +0.000 A 
ATOM     11  N   UNL     1       6.622   5.439  17.135  0.00  0.00    +0.000 N 
ATOM     12  C   UNL     1       5.612   4.882  17.910  0.00  0.00    +0.000 A 
ATOM     13  O   UNL     1       5.526   5.012  19.126  0.00  0.00    +0.000 OA
ATOM     14  H   UNL     1       8.644   5.857  12.038  0.00  0.00    +0.000 HD
ATOM     15  H   UNL     1       9.285   6.608  13.459  0.00  0.00    +0.000 HD
ENDROOT
BRANCH   1  18
ATOM     16  C   UNL     1       1.608   3.806  19.503  0.00  0.00    +0.000 A 
ATOM     17  C   UNL     1       2.685   4.345  18.819  0.00  0.00    +0.000 A 
ATOM     18  C   UNL     1       3.387   3.511  17.942  0.00  0.00    +0.000 A 
ATOM     19  C   UNL     1       3.004   2.178  17.822  0.00  0.00    +0.000 A 
ATOM     20  C   UNL     1       1.908   1.741  18.541  0.00  0.00    +0.000 A 
ATOM     21  N   UNL     1       1.201   2.528  19.370  0.00  0.00    +0.000 NA
BRANCH  16  23
ATOM     22  C   UNL     1       1.671   5.817  20.689  0.00  0.00    +0.000 C 
ATOM     23  O   UNL     1       0.929   4.640  20.369  0.00  0.00    +0.000 OA
ENDBRANCH  16  23
ENDBRANCH   1  18
BRANCH  11  24
ATOM     24  C   UNL     1       7.630   6.330  17.746  0.00  0.00    +0.000 C 
ATOM     25  C   UNL     1       7.199   7.801  17.691  0.00  0.00    +0.000 C 
ATOM     26  C   UNL     1       7.986   5.925  19.181  0.00  0.00    +0.000 C 
ENDBRANCH  11  24
TORSDOF 3
ENDMDL
MODEL 4
REMARK VINA RESULT:      -7.4      1.100      1.834
REMARK  Name = 
REMARK  7 active torsions:
REMARK  status: ('A' for Active; 'I' for Inactive)
REMARK    1  A    between atoms: C_1  and  O_2
REMARK    2  A    between atoms: O_2  and  C_3
REMARK    3  A    between atoms: C_5  and  C_6
REMARK    4  A    between atoms: C_9  and  C_10
REMARK    5  A    between atoms: N_16  and  C_17
REMARK    6  A    between atoms: C_17  and  C_18
REMARK    7  A    between atoms: C_17  and  C_19
REMARK                            x       y       z     vdW  Elec       q    Type
REMARK                         _______ _______ _______ _____ _____    ______ ____
ROOT
ATOM      1  C   UNL     1       2.739   6.627  18.688  0.00  0.00    +0.000 A 
ATOM      2  N   UNL     1       2.128   5.594  19.190  0.00  0.00    +0.000 NA
ATOM      3  C   UNL     1       2.637   4.312  18.915  0.00  0.00    +0.000 A 
ATOM      4  C   UNL     1       2.022   3.168  19.409  0.00  0.00    +0.000 A 
ATOM      5  C   UNL     1       0.769   3.229  20.235  0.00  0.00    +0.000 C 
ATOM      6  N   UNL     1       2.495   1.920  19.177  0.00  0.00    +0.000 NA
ATOM      7  C   UNL     1       3.605   1.814  18.449  0.00  0.00    +0.000 A 
ATOM      8  N   UNL     1       4.117   0.551  18.252  0.00  0.00    +0.000 N 
ATOM      9  N   UNL     1       4.241   2.837  17.885  0.00  0.00    +0.000 NA
ATOM     10  C   UNL     1       3.762   4.076  18.126  0.00  0.00    +0.000 A 
ATOM     11  N   UNL     1       4.436   5.190  17.555  0.00  0.00    +0.000 N 
ATOM     12  C   UNL     1       4.011   6.482  17.840  0.00  0.00    +0.000 A 
ATOM     13  O   UNL     1       4.589   7.496  17.464  0.00  0.00    +0.000 OA
ATOM     14  H   UNL     1       3.398  -0.148  18.367  0.00  0.00    +0.000 HD
ATOM     15  H   UNL     1       4.687   0.512  17.421  0.00  0.00    +0.000 HD
ENDROOT
BRANCH   1  18
ATOM     16  C   UNL     1       1.885  10.267  18.302  0.00  0.00    +0.000 A 
ATOM     17  C   UNL     1       2.431   9.023  18.033  0.00  0.00    +0.000 A 
ATOM     18  C   UNL     1       2.177   7.987  18.938  0.00  0.00    +0.000 A 
ATOM     19  C   UNL     1       1.427   8.253  20.080  0.00  0.00    +0.000 A 
ATOM     20  C   UNL     1       0.918   9.526  20.251  0.00  0.00    +0.000 A 
ATOM     21  N   UNL     1       1.125  10.532  19.384  0.00  0.00    +0.000 NA
BRANCH  16  23
ATOM     22  C   UNL     1       2.484  12.510  18.048  0.00  0.00    +0.000 C 
ATOM     23  O   UNL     1       2.149  11.281  17.403  0.00  0.00    +0.000 OA
ENDBRANCH  16  23
ENDBRANCH   1  18
BRANCH  11  24
ATOM     24  C   UNL     1       5.598   4.962  16.671  0.00  0.00    +0.000 C 
ATOM     25  C   UNL     1       5.381   5.566  15.278  0.00  0.00    +0.000 C 
ATOM     26  C   UNL     1       6.912   5.464  17.279  0.00  0.00    +0.000 C 
ENDBRANCH  11  24
TORSDOF 3
ENDMDL
MODEL 5
REMARK VINA RESULT:      -7.3      3.975      5.706
REMARK  Name = 
REMARK  7 active torsions:
REMARK  status: ('A' for Active; 'I' for Inactive)
REMARK    1  A    between atoms: C_1  and  O_2
REMARK    2  A    between atoms: O_2  and  C_3
REMARK    3  A    between atoms: C_5  and  C_6
REMARK    4  A    between atoms: C_9  and  C_10
REMARK    5  A    between atoms: N_16  and  C_17
REMARK    6  A    between atoms: C_17  and  C_18
REMARK    7  A    between atoms: C_17  and  C_19
REMARK                            x       y       z     vdW  Elec       q    Type
REMARK                         _______ _______ _______ _____ _____    ______ ____
ROOT
ATOM      1  C   UNL     1       4.550   4.325  17.239  0.00  0.00    +0.000 A 
ATOM      2  N   UNL     1       4.632   4.001  15.981  0.00  0.00    +0.000 NA
ATOM      3  C   UNL     1       5.723   4.482  15.233  0.00  0.00    +0.000 A 
ATOM      4  C   UNL     1       5.861   4.183  13.883  0.00  0.00    +0.000 A 
ATOM      5  C   UNL     1       4.847   3.363  13.139  0.00  0.00    +0.000 C 
ATOM      6  N   UNL     1       6.906   4.615  13.137  0.00  0.00    +0.000 NA
ATOM      7  C   UNL     1       7.833   5.347  13.752  0.00  0.00    +0.000 A 
ATOM      8  N   UNL     1       8.922   5.747  13.012  0.00  0.00    +0.000 N 
ATOM      9  N   UNL     1       7.772   5.734  15.024  0.00  0.00    +0.000 NA
ATOM     10  C   UNL     1       6.726   5.295  15.757  0.00  0.00    +0.000 A 
ATOM     11  N   UNL     1       6.648   5.673  17.126  0.00  0.00    +0.000 N 
ATOM     12  C   UNL     1       5.623   5.181  17.926  0.00  0.00    +0.000 A 
ATOM     13  O   UNL     1       5.534   5.384  19.132  0.00  0.00    +0.000 OA
ATOM     14  H   UNL     1       8.702   5.751  12.026  0.00  0.00    +0.000 HD
ATOM     15  H   UNL     1       9.351   6.572  13.404  0.00  0.00    +0.000 HD
ENDROOT
BRANCH   1  18
ATOM     16  C   UNL     1       2.430   2.937  20.014  0.00  0.00    +0.000 A 
ATOM     17  C   UNL     1       3.552   3.354  19.319  0.00  0.00    +0.000 A 
ATOM     18  C   UNL     1       3.372   3.857  18.026  0.00  0.00    +0.000 A 
ATOM     19  C   UNL     1       2.091   3.882  17.481  0.00  0.00    +0.000 A 
ATOM     20  C   UNL     1       1.036   3.452  18.262  0.00  0.00    +0.000 A 
ATOM     21  N   UNL     1       1.178   2.989  19.516  0.00  0.00    +0.000 NA
BRANCH  16  23
ATOM     22  C   UNL     1       1.434   2.462  22.073  0.00  0.00    +0.000 C 
ATOM     23  O   UNL     1       2.626   2.437  21.287  0.00  0.00    +0.000 OA
ENDBRANCH  16  23
ENDBRANCH   1  18
BRANCH  11  24
ATOM     24  C   UNL     1       7.670   6.579  17.690  0.00  0.00    +0.000 C 
ATOM     25  C   UNL     1       7.220   8.044  17.643  0.00  0.00    +0.000 C 
ATOM     26  C   UNL     1       8.088   6.188  19.112  0.00  0.00    +0.000 C 
ENDBRANCH  11  24
TORSDOF 3
ENDMDL
MODEL 6
REMARK VINA RESULT:      -7.1      2.596      6.805
REMARK  Name = 
REMARK  7 active torsions:
REMARK  status: ('A' for Active; 'I' for Inactive)
REMARK    1  A    between atoms: C_1  and  O_2
REMARK    2  A    between atoms: O_2  and  C_3
REMARK    3  A    between atoms: C_5  and  C_6
REMARK    4  A    between atoms: C_9  and  C_10
REMARK    5  A    between atoms: N_16  and  C_17
REMARK    6  A    between atoms: C_17  and  C_18
REMARK    7  A    between atoms: C_17  and  C_19
REMARK                            x       y       z     vdW  Elec       q    Type
REMARK                         _______ _______ _______ _____ _____    ______ ____
ROOT
ATOM      1  C   UNL     1       3.988   5.538  18.137  0.00  0.00    +0.000 A 
ATOM      2  N   UNL     1       3.580   6.773  18.111  0.00  0.00    +0.000 NA
ATOM      3  C   UNL     1       2.574   7.168  19.013  0.00  0.00    +0.000 A 
ATOM      4  C   UNL     1       2.084   8.468  19.026  0.00  0.00    +0.000 A 
ATOM      5  C   UNL     1       2.572   9.514  18.065  0.00  0.00    +0.000 C 
ATOM      6  N   UNL     1       1.130   8.885  19.892  0.00  0.00    +0.000 NA
ATOM      7  C   UNL     1       0.665   7.994  20.764  0.00  0.00    +0.000 A 
ATOM      8  N   UNL     1      -0.269   8.426  21.679  0.00  0.00    +0.000 N 
ATOM      9  N   UNL     1       1.025   6.713  20.803  0.00  0.00    +0.000 NA
ATOM     10  C   UNL     1       1.980   6.310  19.937  0.00  0.00    +0.000 A 
ATOM     11  N   UNL     1       2.402   4.952  19.972  0.00  0.00    +0.000 N 
ATOM     12  C   UNL     1       3.430   4.521  19.143  0.00  0.00    +0.000 A 
ATOM     13  O   UNL     1       3.914   3.395  19.174  0.00  0.00    +0.000 OA
ATOM     14  H   UNL     1      -0.747   9.248  21.339  0.00  0.00    +0.000 HD
ATOM     15  H   UNL     1      -0.829   7.660  22.021  0.00  0.00    +0.000 HD
ENDROOT
BRANCH   1  18
ATOM     16  C   UNL     1       5.634   4.365  14.968  0.00  0.00    +0.000 A 
ATOM     17  C   UNL     1       4.642   4.759  15.850  0.00  0.00    +0.000 A 
ATOM     18  C   UNL     1       5.021   5.102  17.152  0.00  0.00    +0.000 A 
ATOM     19  C   UNL     1       6.360   4.998  17.517  0.00  0.00    +0.000 A 
ATOM     20  C   UNL     1       7.275   4.605  16.559  0.00  0.00    +0.000 A 
ATOM     21  N   UNL     1       6.941   4.295  15.295  0.00  0.00    +0.000 NA
BRANCH  16  23
ATOM     22  C   UNL     1       6.345   3.652  12.861  0.00  0.00    +0.000 C 
ATOM     23  O   UNL     1       5.242   4.023  13.689  0.00  0.00    +0.000 OA
ENDBRANCH  16  23
ENDBRANCH   1  18
BRANCH  11  24
ATOM     24  C   UNL     1       1.748   4.011  20.905  0.00  0.00    +0.000 C 
ATOM     25  C   UNL     1       0.702   3.142  20.197  0.00  0.00    +0.000 C 
ATOM     26  C   UNL     1       2.751   3.138  21.665  0.00  0.00    +0.000 C 
ENDBRANCH  11  24
TORSDOF 3
ENDMDL
MODEL 7
REMARK VINA RESULT:      -7.0      3.847      7.104
REMARK  Name = 
REMARK  7 active torsions:
REMARK  status: ('A' for Active; 'I' for Inactive)
REMARK    1  A    between atoms: C_1  and  O_2
REMARK    2  A    between atoms: O_2  and  C_3
REMARK    3  A    between atoms: C_5  and  C_6
REMARK    4  A    between atoms: C_9  and  C_10
REMARK    5  A    between atoms: N_16  and  C_17
REMARK    6  A    between atoms: C_17  and  C_18
REMARK    7  A    between atoms: C_17  and  C_19
REMARK                            x       y       z     vdW  Elec       q    Type
REMARK                         _______ _______ _______ _____ _____    ______ ____
ROOT
ATOM      1  C   UNL     1       5.753   4.657  15.482  0.00  0.00    +0.000 A 
ATOM      2  N   UNL     1       4.628   4.159  15.905  0.00  0.00    +0.000 NA
ATOM      3  C   UNL     1       4.223   4.436  17.224  0.00  0.00    +0.000 A 
ATOM      4  C   UNL     1       3.040   3.922  17.740  0.00  0.00    +0.000 A 
ATOM      5  C   UNL     1       2.143   3.023  16.938  0.00  0.00    +0.000 C 
ATOM      6  N   UNL     1       2.612   4.182  18.999  0.00  0.00    +0.000 NA
ATOM      7  C   UNL     1       3.373   4.975  19.750  0.00  0.00    +0.000 A 
ATOM      8  N   UNL     1       2.919   5.283  21.012  0.00  0.00    +0.000 N 
ATOM      9  N   UNL     1       4.548   5.476  19.374  0.00  0.00    +0.000 NA
ATOM     10  C   UNL     1       4.961   5.212  18.116  0.00  0.00    +0.000 A 
ATOM     11  N   UNL     1       6.201   5.754  17.679  0.00  0.00    +0.000 N 
ATOM     12  C   UNL     1       6.623   5.560  16.369  0.00  0.00    +0.000 A 
ATOM     13  O   UNL     1       7.631   6.066  15.887  0.00  0.00    +0.000 OA
ATOM     14  H   UNL     1       2.266   4.584  21.337  0.00  0.00    +0.000 HD
ATOM     15  H   UNL     1       3.679   5.541  21.623  0.00  0.00    +0.000 HD
ENDROOT
BRANCH   1  18
ATOM     16  C   UNL     1       6.024   3.052  12.095  0.00  0.00    +0.000 A 
ATOM     17  C   UNL     1       5.570   3.319  13.375  0.00  0.00    +0.000 A 
ATOM     18  C   UNL     1       6.210   4.329  14.100  0.00  0.00    +0.000 A 
ATOM     19  C   UNL     1       7.292   4.994  13.527  0.00  0.00    +0.000 A 
ATOM     20  C   UNL     1       7.661   4.660  12.238  0.00  0.00    +0.000 A 
ATOM     21  N   UNL     1       7.046   3.712  11.510  0.00  0.00    +0.000 NA
BRANCH  16  23
ATOM     22  C   UNL     1       6.267   0.979  11.047  0.00  0.00    +0.000 C 
ATOM     23  O   UNL     1       5.387   2.048  11.394  0.00  0.00    +0.000 OA
ENDBRANCH  16  23
ENDBRANCH   1  18
BRANCH  11  24
ATOM     24  C   UNL     1       7.027   6.534  18.623  0.00  0.00    +0.000 C 
ATOM     25  C   UNL     1       8.038   5.648  19.363  0.00  0.00    +0.000 C 
ATOM     26  C   UNL     1       7.735   7.717  17.954  0.00  0.00    +0.000 C 
ENDBRANCH  11  24
TORSDOF 3
ENDMDL
MODEL 8
REMARK VINA RESULT:      -7.0      1.122      1.881
REMARK  Name = 
REMARK  7 active torsions:
REMARK  status: ('A' for Active; 'I' for Inactive)
REMARK    1  A    between atoms: C_1  and  O_2
REMARK    2  A    between atoms: O_2  and  C_3
REMARK    3  A    between atoms: C_5  and  C_6
REMARK    4  A    between atoms: C_9  and  C_10
REMARK    5  A    between atoms: N_16  and  C_17
REMARK    6  A    between atoms: C_17  and  C_18
REMARK    7  A    between atoms: C_17  and  C_19
REMARK                            x       y       z     vdW  Elec       q    Type
REMARK                         _______ _______ _______ _____ _____    ______ ____
ROOT
ATOM      1  C   UNL     1       2.441   6.616  19.341  0.00  0.00    +0.000 A 
ATOM      2  N   UNL     1       2.020   5.504  19.868  0.00  0.00    +0.000 NA
ATOM      3  C   UNL     1       2.571   4.293  19.410  0.00  0.00    +0.000 A 
ATOM      4  C   UNL     1       2.155   3.070  19.922  0.00  0.00    +0.000 A 
ATOM      5  C   UNL     1       1.079   2.965  20.964  0.00  0.00    +0.000 C 
ATOM      6  N   UNL     1       2.676   1.887  19.515  0.00  0.00    +0.000 NA
ATOM      7  C   UNL     1       3.634   1.927  18.592  0.00  0.00    +0.000 A 
ATOM      8  N   UNL     1       4.202   0.732  18.213  0.00  0.00    +0.000 N 
ATOM      9  N   UNL     1       4.069   3.037  17.999  0.00  0.00    +0.000 NA
ATOM     10  C   UNL     1       3.544   4.209  18.415  0.00  0.00    +0.000 A 
ATOM     11  N   UNL     1       4.007   5.413  17.816  0.00  0.00    +0.000 N 
ATOM     12  C   UNL     1       3.538   6.641  18.268  0.00  0.00    +0.000 A 
ATOM     13  O   UNL     1       3.951   7.725  17.870  0.00  0.00    +0.000 OA
ATOM     14  H   UNL     1       3.576  -0.038  18.404  0.00  0.00    +0.000 HD
ATOM     15  H   UNL     1       4.607   0.794  17.291  0.00  0.00    +0.000 HD
ENDROOT
BRANCH   1  18
ATOM     16  C   UNL     1       1.040  10.104  19.327  0.00  0.00    +0.000 A 
ATOM     17  C   UNL     1       1.617   8.932  18.868  0.00  0.00    +0.000 A 
ATOM     18  C   UNL     1       1.828   7.901  19.789  0.00  0.00    +0.000 A 
ATOM     19  C   UNL     1       1.488   8.105  21.124  0.00  0.00    +0.000 A 
ATOM     20  C   UNL     1       0.908   9.308  21.479  0.00  0.00    +0.000 A 
ATOM     21  N   UNL     1       0.671  10.304  20.609  0.00  0.00    +0.000 NA
BRANCH  16  23
ATOM     22  C   UNL     1       1.633  12.271  18.689  0.00  0.00    +0.000 C 
ATOM     23  O   UNL     1       0.845  11.115  18.407  0.00  0.00    +0.000 OA
ENDBRANCH  16  23
ENDBRANCH   1  18
BRANCH  11  24
ATOM     24  C   UNL     1       4.997   5.346  16.721  0.00  0.00    +0.000 C 
ATOM     25  C   UNL     1       6.432   5.253  17.255  0.00  0.00    +0.000 C 
ATOM     26  C   UNL     1       4.713   4.208  15.734  0.00  0.00    +0.000 C 
ENDBRANCH  11  24
TORSDOF 3
ENDMDL
MODEL 9
REMARK VINA RESULT:      -6.9      1.757      3.570
REMARK  Name = 
REMARK  7 active torsions:
REMARK  status: ('A' for Active; 'I' for Inactive)
REMARK    1  A    between atoms: C_1  and  O_2
REMARK    2  A    between atoms: O_2  and  C_3
REMARK    3  A    between atoms: C_5  and  C_6
REMARK    4  A    between atoms: C_9  and  C_10
REMARK    5  A    between atoms: N_16  and  C_17
REMARK    6  A    between atoms: C_17  and  C_18
REMARK    7  A    between atoms: C_17  and  C_19
REMARK                            x       y       z     vdW  Elec       q    Type
REMARK                         _______ _______ _______ _____ _____    ______ ____
ROOT
ATOM      1  C   UNL     1       2.390   6.918  19.143  0.00  0.00    +0.000 A 
ATOM      2  N   UNL     1       3.238   7.046  18.164  0.00  0.00    +0.000 NA
ATOM      3  C   UNL     1       3.839   5.887  17.640  0.00  0.00    +0.000 A 
ATOM      4  C   UNL     1       4.763   5.957  16.604  0.00  0.00    +0.000 A 
ATOM      5  C   UNL     1       5.194   7.265  16.007  0.00  0.00    +0.000 C 
ATOM      6  N   UNL     1       5.348   4.860  16.066  0.00  0.00    +0.000 NA
ATOM      7  C   UNL     1       4.998   3.675  16.562  0.00  0.00    +0.000 A 
ATOM      8  N   UNL     1       5.552   2.555  15.985  0.00  0.00    +0.000 N 
ATOM      9  N   UNL     1       4.166   3.499  17.586  0.00  0.00    +0.000 NA
ATOM     10  C   UNL     1       3.587   4.600  18.112  0.00  0.00    +0.000 A 
ATOM     11  N   UNL     1       2.675   4.439  19.192  0.00  0.00    +0.000 N 
ATOM     12  C   UNL     1       2.009   5.543  19.711  0.00  0.00    +0.000 A 
ATOM     13  O   UNL     1       1.143   5.481  20.577  0.00  0.00    +0.000 OA
ATOM     14  H   UNL     1       6.417   2.785  15.518  0.00  0.00    +0.000 HD
ATOM     15  H   UNL     1       5.552   1.774  16.625  0.00  0.00    +0.000 HD
ENDROOT
BRANCH   1  18
ATOM     16  C   UNL     1       1.025   9.393  21.620  0.00  0.00    +0.000 A 
ATOM     17  C   UNL     1       1.586   8.232  21.116  0.00  0.00    +0.000 A 
ATOM     18  C   UNL     1       1.784   8.147  19.734  0.00  0.00    +0.000 A 
ATOM     19  C   UNL     1       1.379   9.206  18.925  0.00  0.00    +0.000 A 
ATOM     20  C   UNL     1       0.840  10.326  19.528  0.00  0.00    +0.000 A 
ATOM     21  N   UNL     1       0.662  10.443  20.855  0.00  0.00    +0.000 NA
BRANCH  16  23
ATOM     22  C   UNL     1      -0.496   9.863  23.329  0.00  0.00    +0.000 C 
ATOM     23  O   UNL     1       0.829   9.459  22.986  0.00  0.00    +0.000 OA
ENDBRANCH  16  23
ENDBRANCH   1  18
BRANCH  11  24
ATOM     24  C   UNL     1       2.433   3.091  19.745  0.00  0.00    +0.000 C 
ATOM     25  C   UNL     1       2.590   3.065  21.271  0.00  0.00    +0.000 C 
ATOM     26  C   UNL     1       1.074   2.516  19.333  0.00  0.00    +0.000 C 
ENDBRANCH  11  24
TORSDOF 3
ENDMDL
