MODEL 1
REMARK VINA RESULT:      -7.5      0.000      0.000
REMARK  Name = 
REMARK  6 active torsions:
REMARK  status: ('A' for Active; 'I' for Inactive)
REMARK    1  A    between atoms: C_1  and  C_2
REMARK    2  A    between atoms: C_2  and  C_3
REMARK    3  A    between atoms: C_3  and  C_4
REMARK    4  A    between atoms: N_6  and  C_7
REMARK    5  A    between atoms: N_6  and  C_16
REMARK    6  A    between atoms: C_7  and  C_8
REMARK                            x       y       z     vdW  Elec       q    Type
REMARK                         _______ _______ _______ _____ _____    ______ ____
ROOT
ATOM      1  C   UNL     1       7.203   4.940  17.136  0.00  0.00    +0.000 C 
ATOM      2  O   UNL     1       8.178   4.187  17.059  0.00  0.00    +0.000 OA
ATOM      3  N   UNL     1       6.312   5.084  16.070  0.00  0.00    +0.000 N 
ENDROOT
BRANCH   3   4
ATOM      4  C   UNL     1       6.600   4.280  14.867  0.00  0.00    +0.000 C 
ATOM      5  C   UNL     1       5.438   3.859  13.969  0.00  0.00    +0.000 C 
ATOM      6  C   UNL     1       6.133   3.524  12.664  0.00  0.00    +0.000 C 
ATOM      7  N   UNL     1       7.112   4.600  12.497  0.00  0.00    +0.000 NA
ATOM      8  C   UNL     1       7.565   4.952  13.860  0.00  0.00    +0.000 C 
ATOM      9  H   UNL     1       6.643   5.415  12.101  0.00  0.00    +0.000 HD
ENDBRANCH   3   4
BRANCH   1  10
ATOM     10  C   UNL     1       6.937   5.722  18.414  0.00  0.00    +0.000 C 
BRANCH  10  12
ATOM     11  C   UNL     1       7.782   7.966  17.648  0.00  0.00    +0.000 C 
ATOM     12  C   UNL     1       7.980   6.821  18.625  0.00  0.00    +0.000 C 
ENDBRANCH  10  12
ENDBRANCH   1  10
BRANCH   3  13
ATOM     13  C   UNL     1       5.071   5.876  16.140  0.00  0.00    +0.000 C 
BRANCH  13  14
ATOM     14  C   UNL     1       4.031   5.286  17.076  0.00  0.00    +0.000 A 
ATOM     15  C   UNL     1       3.840   3.891  17.144  0.00  0.00    +0.000 A 
ATOM     16  C   UNL     1       2.936   3.327  18.046  0.00  0.00    +0.000 A 
ATOM     17  C   UNL     1       2.202   4.148  18.892  0.00  0.00    +0.000 A 
ATOM     18 CL   UNL     1       1.150   3.448  20.060  0.00  0.00    +0.000 Cl
ATOM     19  C   UNL     1       2.320   5.530  18.804  0.00  0.00    +0.000 A 
ATOM     20  C   UNL     1       3.213   6.096  17.887  0.00  0.00    +0.000 A 
ATOM     21 CL   UNL     1       3.264   7.822  17.805  0.00  0.00    +0.000 Cl
ENDBRANCH  13  14
ENDBRANCH   3  13
TORSDOF 5
ENDMDL
MODEL 2
REMARK VINA RESULT:      -7.5      1.323      3.962
REMARK  Name = 
REMARK  6 active torsions:
REMARK  status: ('A' for Active; 'I' for Inactive)
REMARK    1  A    between atoms: C_1  and  C_2
REMARK    2  A    between atoms: C_2  and  C_3
REMARK    3  A    between atoms: C_3  and  C_4
REMARK    4  A    between atoms: N_6  and  C_7
REMARK    5  A    between atoms: N_6  and  C_16
REMARK    6  A    between atoms: C_7  and  C_8
REMARK                            x       y       z     vdW  Elec       q    Type
REMARK                         _______ _______ _______ _____ _____    ______ ____
ROOT
ATOM      1  C   UNL     1       6.525   4.816  14.985  0.00  0.00    +0.000 C 
ATOM      2  O   UNL     1       7.703   4.556  14.728  0.00  0.00    +0.000 OA
ATOM      3  N   UNL     1       6.179   5.603  16.085  0.00  0.00    +0.000 N 
ENDROOT
BRANCH   3   4
ATOM      4  C   UNL     1       7.299   6.108  16.903  0.00  0.00    +0.000 C 
ATOM      5  C   UNL     1       7.204   7.516  17.489  0.00  0.00    +0.000 C 
ATOM      6  C   UNL     1       8.225   7.477  18.609  0.00  0.00    +0.000 C 
ATOM      7  N   UNL     1       8.007   6.175  19.243  0.00  0.00    +0.000 NA
ATOM      8  C   UNL     1       7.617   5.254  18.154  0.00  0.00    +0.000 C 
ATOM      9  H   UNL     1       7.221   6.250  19.889  0.00  0.00    +0.000 HD
ENDBRANCH   3   4
BRANCH   1  10
ATOM     10  C   UNL     1       5.412   4.295  14.088  0.00  0.00    +0.000 C 
BRANCH  10  12
ATOM     11  C   UNL     1       4.869   3.259  11.859  0.00  0.00    +0.000 C 
ATOM     12  C   UNL     1       5.972   3.603  12.844  0.00  0.00    +0.000 C 
ENDBRANCH  10  12
ENDBRANCH   1  10
BRANCH   3  13
ATOM     13  C   UNL     1       4.802   6.043  16.379  0.00  0.00    +0.000 C 
BRANCH  13  14
ATOM     14  C   UNL     1       4.146   5.262  17.503  0.00  0.00    +0.000 A 
ATOM     15  C   UNL     1       4.380   3.880  17.645  0.00  0.00    +0.000 A 
ATOM     16  C   UNL     1       3.839   3.159  18.711  0.00  0.00    +0.000 A 
ATOM     17  C   UNL     1       3.049   3.807  19.653  0.00  0.00    +0.000 A 
ATOM     18 CL   UNL     1       2.451   2.937  21.010  0.00  0.00    +0.000 Cl
ATOM     19  C   UNL     1       2.747   5.156  19.505  0.00  0.00    +0.000 A 
ATOM     20  C   UNL     1       3.275   5.874  18.425  0.00  0.00    +0.000 A 
ATOM     21 CL   UNL     1       2.812   7.534  18.286  0.00  0.00    +0.000 Cl
ENDBRANCH  13  14
ENDBRANCH   3  13
TORSDOF 5
ENDMDL
MODEL 3
REMARK VINA RESULT:      -7.3      1.790      4.424
REMARK  Name = 
REMARK  6 active torsions:
REMARK  status: ('A' for Active; 'I' for Inactive)
REMARK    1  A    between atoms: C_1  and  C_2
REMARK    2  A    between atoms: C_2  and  C_3
REMARK    3  A    between atoms: C_3  and  C_4
REMARK    4  A    between atoms: N_6  and  C_7
REMARK    5  A    between atoms: N_6  and  C_16
REMARK    6  A    between atoms: C_7  and  C_8
REMARK                            x       y       z     vdW  Elec       q    Type
REMARK                         _______ _______ _______ _____ _____    ______ ____
ROOT
ATOM      1  C   UNL     1       6.559   4.775  14.863  0.00  0.00    +0.000 C 
ATOM      2  O   UNL     1       7.509   5.398  14.383  0.00  0.00    +0.000 OA
ATOM      3  N   UNL     1       6.399   4.646  16.244  0.00  0.00    +0.000 N 
ENDROOT
BRANCH   3   4
ATOM      4  C   UNL     1       7.419   5.307  17.082  0.00  0.00    +0.000 C 
ATOM      5  C   UNL     1       7.190   6.755  17.512  0.00  0.00    +0.000 C 
ATOM      6  C   UNL     1       8.123   6.899  18.698  0.00  0.00    +0.000 C 
ATOM      7  N   UNL     1       7.941   5.653  19.446  0.00  0.00    +0.000 NA
ATOM      8  C   UNL     1       7.694   4.604  18.433  0.00  0.00    +0.000 C 
ATOM      9  H   UNL     1       7.104   5.734  20.025  0.00  0.00    +0.000 HD
ENDBRANCH   3   4
BRANCH   1  10
ATOM     10  C   UNL     1       5.519   4.140  13.951  0.00  0.00    +0.000 C 
BRANCH  10  12
ATOM     11  C   UNL     1       5.101   3.097  11.698  0.00  0.00    +0.000 C 
ATOM     12  C   UNL     1       6.155   3.581  12.678  0.00  0.00    +0.000 C 
ENDBRANCH  10  12
ENDBRANCH   1  10
BRANCH   3  13
ATOM     13  C   UNL     1       5.228   4.015  16.880  0.00  0.00    +0.000 C 
BRANCH  13  14
ATOM     14  C   UNL     1       4.406   4.976  17.720  0.00  0.00    +0.000 A 
ATOM     15  C   UNL     1       4.027   6.231  17.205  0.00  0.00    +0.000 A 
ATOM     16  C   UNL     1       3.216   7.101  17.938  0.00  0.00    +0.000 A 
ATOM     17  C   UNL     1       2.773   6.730  19.202  0.00  0.00    +0.000 A 
ATOM     18 CL   UNL     1       1.706   7.764  20.069  0.00  0.00    +0.000 Cl
ATOM     19  C   UNL     1       3.182   5.526  19.763  0.00  0.00    +0.000 A 
ATOM     20  C   UNL     1       4.011   4.664  19.036  0.00  0.00    +0.000 A 
ATOM     21 CL   UNL     1       4.514   3.210  19.823  0.00  0.00    +0.000 Cl
ENDBRANCH  13  14
ENDBRANCH   3  13
TORSDOF 5
ENDMDL
MODEL 4
REMARK VINA RESULT:      -6.8      1.484      3.798
REMARK  Name = 
REMARK  6 active torsions:
REMARK  status: ('A' for Active; 'I' for Inactive)
REMARK    1  A    between atoms: C_1  and  C_2
REMARK    2  A    between atoms: C_2  and  C_3
REMARK    3  A    between atoms: C_3  and  C_4
REMARK    4  A    between atoms: N_6  and  C_7
REMARK    5  A    between atoms: N_6  and  C_16
REMARK    6  A    between atoms: C_7  and  C_8
REMARK                            x       y       z     vdW  Elec       q    Type
REMARK                         _______ _______ _______ _____ _____    ______ ____
ROOT
ATOM      1  C   UNL     1       6.554   4.441  15.796  0.00  0.00    +0.000 C 
ATOM      2  O   UNL     1       7.774   4.606  15.878  0.00  0.00    +0.000 OA
ATOM      3  N   UNL     1       5.681   5.008  16.728  0.00  0.00    +0.000 N 
ENDROOT
BRANCH   3   4
ATOM      4  C   UNL     1       6.303   5.816  17.795  0.00  0.00    +0.000 C 
ATOM      5  C   UNL     1       7.557   5.282  18.484  0.00  0.00    +0.000 C 
ATOM      6  C   UNL     1       8.151   6.532  19.103  0.00  0.00    +0.000 C 
ATOM      7  N   UNL     1       8.010   7.547  18.057  0.00  0.00    +0.000 NA
ATOM      8  C   UNL     1       6.749   7.230  17.352  0.00  0.00    +0.000 C 
ATOM      9  H   UNL     1       8.777   7.447  17.392  0.00  0.00    +0.000 HD
ENDBRANCH   3   4
BRANCH   1  10
ATOM     10  C   UNL     1       5.966   3.624  14.656  0.00  0.00    +0.000 C 
BRANCH  10  12
ATOM     11  C   UNL     1       5.916   3.264  12.164  0.00  0.00    +0.000 C 
ATOM     12  C   UNL     1       6.515   4.074  13.301  0.00  0.00    +0.000 C 
ENDBRANCH  10  12
ENDBRANCH   1  10
BRANCH   3  13
ATOM     13  C   UNL     1       4.212   4.945  16.619  0.00  0.00    +0.000 C 
BRANCH  13  14
ATOM     14  C   UNL     1       3.538   4.407  17.870  0.00  0.00    +0.000 A 
ATOM     15  C   UNL     1       3.667   3.050  18.224  0.00  0.00    +0.000 A 
ATOM     16  C   UNL     1       3.110   2.553  19.405  0.00  0.00    +0.000 A 
ATOM     17  C   UNL     1       2.409   3.405  20.249  0.00  0.00    +0.000 A 
ATOM     18 CL   UNL     1       1.795   2.812  21.742  0.00  0.00    +0.000 Cl
ATOM     19  C   UNL     1       2.209   4.734  19.895  0.00  0.00    +0.000 A 
ATOM     20  C   UNL     1       2.752   5.227  18.703  0.00  0.00    +0.000 A 
ATOM     21 CL   UNL     1       2.416   6.877  18.311  0.00  0.00    +0.000 Cl
ENDBRANCH  13  14
ENDBRANCH   3  13
TORSDOF 5
ENDMDL
MODEL 5
REMARK VINA RESULT:      -6.7      1.504      1.931
REMARK  Name = 
REMARK  6 active torsions:
REMARK  status: ('A' for Active; 'I' for Inactive)
REMARK    1  A    between atoms: C_1  and  C_2
REMARK    2  A    between atoms: C_2  and  C_3
REMARK    3  A    between atoms: C_3  and  C_4
REMARK    4  A    between atoms: N_6  and  C_7
REMARK    5  A    between atoms: N_6  and  C_16
REMARK    6  A    between atoms: C_7  and  C_8
REMARK                            x       y       z     vdW  Elec       q    Type
REMARK                         _______ _______ _______ _____ _____    ______ ____
ROOT
ATOM      1  C   UNL     1       7.406   6.561  17.277  0.00  0.00    +0.000 C 
ATOM      2  O   UNL     1       7.872   6.601  16.135  0.00  0.00    +0.000 OA
ATOM      3  N   UNL     1       6.357   5.698  17.603  0.00  0.00    +0.000 N 
ENDROOT
BRANCH   3   4
ATOM      4  C   UNL     1       5.858   4.839  16.512  0.00  0.00    +0.000 C 
ATOM      5  C   UNL     1       5.224   5.499  15.289  0.00  0.00    +0.000 C 
ATOM      6  C   UNL     1       5.307   4.405  14.242  0.00  0.00    +0.000 C 
ATOM      7  N   UNL     1       6.648   3.844  14.422  0.00  0.00    +0.000 NA
ATOM      8  C   UNL     1       6.931   3.925  15.871  0.00  0.00    +0.000 C 
ATOM      9  H   UNL     1       7.322   4.436  13.935  0.00  0.00    +0.000 HD
ENDBRANCH   3   4
BRANCH   1  10
ATOM     10  C   UNL     1       7.981   7.448  18.371  0.00  0.00    +0.000 C 
BRANCH  10  12
ATOM     11  C   UNL     1       8.965   9.711  18.870  0.00  0.00    +0.000 C 
ATOM     12  C   UNL     1       8.129   8.896  17.899  0.00  0.00    +0.000 C 
ENDBRANCH  10  12
ENDBRANCH   1  10
BRANCH   3  13
ATOM     13  C   UNL     1       5.835   5.522  18.970  0.00  0.00    +0.000 C 
BRANCH  13  14
ATOM     14  C   UNL     1       4.502   4.797  19.018  0.00  0.00    +0.000 A 
ATOM     15  C   UNL     1       4.437   3.445  19.408  0.00  0.00    +0.000 A 
ATOM     16  C   UNL     1       3.213   2.781  19.522  0.00  0.00    +0.000 A 
ATOM     17  C   UNL     1       2.033   3.458  19.243  0.00  0.00    +0.000 A 
ATOM     18 CL   UNL     1       0.522   2.666  19.463  0.00  0.00    +0.000 Cl
ATOM     19  C   UNL     1       2.068   4.773  18.793  0.00  0.00    +0.000 A 
ATOM     20  C   UNL     1       3.296   5.432  18.661  0.00  0.00    +0.000 A 
ATOM     21 CL   UNL     1       3.257   7.048  18.050  0.00  0.00    +0.000 Cl
ENDBRANCH  13  14
ENDBRANCH   3  13
TORSDOF 5
ENDMDL
MODEL 6
REMARK VINA RESULT:      -6.5      2.513      4.739
REMARK  Name = 
REMARK  6 active torsions:
REMARK  status: ('A' for Active; 'I' for Inactive)
REMARK    1  A    between atoms: C_1  and  C_2
REMARK    2  A    between atoms: C_2  and  C_3
REMARK    3  A    between atoms: C_3  and  C_4
REMARK    4  A    between atoms: N_6  and  C_7
REMARK    5  A    between atoms: N_6  and  C_16
REMARK    6  A    between atoms: C_7  and  C_8
REMARK                            x       y       z     vdW  Elec       q    Type
REMARK                         _______ _______ _______ _____ _____    ______ ____
ROOT
ATOM      1  C   UNL     1       2.692   3.663  17.413  0.00  0.00    +0.000 C 
ATOM      2  O   UNL     1       2.638   3.015  16.364  0.00  0.00    +0.000 OA
ATOM      3  N   UNL     1       3.889   4.231  17.855  0.00  0.00    +0.000 N 
ENDROOT
BRANCH   3   4
ATOM      4  C   UNL     1       5.067   4.019  16.992  0.00  0.00    +0.000 C 
ATOM      5  C   UNL     1       5.176   4.812  15.691  0.00  0.00    +0.000 C 
ATOM      6  C   UNL     1       6.654   4.717  15.369  0.00  0.00    +0.000 C 
ATOM      7  N   UNL     1       7.313   4.929  16.659  0.00  0.00    +0.000 NA
ATOM      8  C   UNL     1       6.424   4.320  17.673  0.00  0.00    +0.000 C 
ATOM      9  H   UNL     1       7.361   5.932  16.845  0.00  0.00    +0.000 HD
ENDBRANCH   3   4
BRANCH   1  10
ATOM     10  C   UNL     1       1.437   3.876  18.247  0.00  0.00    +0.000 C 
BRANCH  10  12
ATOM     11  C   UNL     1       1.629   2.472  20.328  0.00  0.00    +0.000 C 
ATOM     12  C   UNL     1       1.005   2.588  18.948  0.00  0.00    +0.000 C 
ENDBRANCH  10  12
ENDBRANCH   1  10
BRANCH   3  13
ATOM     13  C   UNL     1       3.994   5.109  19.034  0.00  0.00    +0.000 C 
BRANCH  13  14
ATOM     14  C   UNL     1       3.265   6.431  18.869  0.00  0.00    +0.000 A 
ATOM     15  C   UNL     1       3.575   7.289  17.795  0.00  0.00    +0.000 A 
ATOM     16  C   UNL     1       2.870   8.477  17.589  0.00  0.00    +0.000 A 
ATOM     17  C   UNL     1       1.844   8.829  18.457  0.00  0.00    +0.000 A 
ATOM     18 CL   UNL     1       0.921  10.248  18.156  0.00  0.00    +0.000 Cl
ATOM     19  C   UNL     1       1.557   8.036  19.562  0.00  0.00    +0.000 A 
ATOM     20  C   UNL     1       2.277   6.855  19.779  0.00  0.00    +0.000 A 
ATOM     21 CL   UNL     1       1.892   5.951  21.201  0.00  0.00    +0.000 Cl
ENDBRANCH  13  14
ENDBRANCH   3  13
TORSDOF 5
ENDMDL
MODEL 7
REMARK VINA RESULT:      -6.5      2.269      4.302
REMARK  Name = 
REMARK  6 active torsions:
REMARK  status: ('A' for Active; 'I' for Inactive)
REMARK    1  A    between atoms: C_1  and  C_2
REMARK    2  A    between atoms: C_2  and  C_3
REMARK    3  A    between atoms: C_3  and  C_4
REMARK    4  A    between atoms: N_6  and  C_7
REMARK    5  A    between atoms: N_6  and  C_16
REMARK    6  A    between atoms: C_7  and  C_8
REMARK                            x       y       z     vdW  Elec       q    Type
REMARK                         _______ _______ _______ _____ _____    ______ ____
ROOT
ATOM      1  C   UNL     1       3.865   2.648  18.215  0.00  0.00    +0.000 C 
ATOM      2  O   UNL     1       3.800   1.841  17.285  0.00  0.00    +0.000 OA
ATOM      3  N   UNL     1       4.799   3.687  18.210  0.00  0.00    +0.000 N 
ENDROOT
BRANCH   3   4
ATOM      4  C   UNL     1       5.682   3.762  17.030  0.00  0.00    +0.000 C 
ATOM      5  C   UNL     1       5.162   4.448  15.767  0.00  0.00    +0.000 C 
ATOM      6  C   UNL     1       6.440   4.765  15.014  0.00  0.00    +0.000 C 
ATOM      7  N   UNL     1       7.348   5.261  16.050  0.00  0.00    +0.000 NA
ATOM      8  C   UNL     1       7.020   4.500  17.275  0.00  0.00    +0.000 C 
ATOM      9  H   UNL     1       7.143   6.245  16.227  0.00  0.00    +0.000 HD
ENDBRANCH   3   4
BRANCH   1  10
ATOM     10  C   UNL     1       2.907   2.541  19.393  0.00  0.00    +0.000 C 
BRANCH  10  12
ATOM     11  C   UNL     1       1.085   3.670  18.073  0.00  0.00    +0.000 C 
ATOM     12  C   UNL     1       1.452   2.470  18.927  0.00  0.00    +0.000 C 
ENDBRANCH  10  12
ENDBRANCH   1  10
BRANCH   3  13
ATOM     13  C   UNL     1       4.851   4.748  19.232  0.00  0.00    +0.000 C 
BRANCH  13  14
ATOM     14  C   UNL     1       3.947   5.928  18.923  0.00  0.00    +0.000 A 
ATOM     15  C   UNL     1       4.245   6.796  17.853  0.00  0.00    +0.000 A 
ATOM     16  C   UNL     1       3.390   7.847  17.512  0.00  0.00    +0.000 A 
ATOM     17  C   UNL     1       2.224   8.051  18.239  0.00  0.00    +0.000 A 
ATOM     18 CL   UNL     1       1.131   9.292  17.768  0.00  0.00    +0.000 Cl
ATOM     19  C   UNL     1       1.935   7.252  19.340  0.00  0.00    +0.000 A 
ATOM     20  C   UNL     1       2.802   6.211  19.692  0.00  0.00    +0.000 A 
ATOM     21 CL   UNL     1       2.396   5.296  21.102  0.00  0.00    +0.000 Cl
ENDBRANCH  13  14
ENDBRANCH   3  13
TORSDOF 5
ENDMDL
MODEL 8
REMARK VINA RESULT:      -6.4      1.845      4.281
REMARK  Name = 
REMARK  6 active torsions:
REMARK  status: ('A' for Active; 'I' for Inactive)
REMARK    1  A    between atoms: C_1  and  C_2
REMARK    2  A    between atoms: C_2  and  C_3
REMARK    3  A    between atoms: C_3  and  C_4
REMARK    4  A    between atoms: N_6  and  C_7
REMARK    5  A    between atoms: N_6  and  C_16
REMARK    6  A    between atoms: C_7  and  C_8
REMARK                            x       y       z     vdW  Elec       q    Type
REMARK                         _______ _______ _______ _____ _____    ______ ____
ROOT
ATOM      1  C   UNL     1       6.290   4.713  15.641  0.00  0.00    +0.000 C 
ATOM      2  O   UNL     1       7.463   5.077  15.523  0.00  0.00    +0.000 OA
ATOM      3  N   UNL     1       5.547   5.020  16.783  0.00  0.00    +0.000 N 
ENDROOT
BRANCH   3   4
ATOM      4  C   UNL     1       6.242   5.808  17.820  0.00  0.00    +0.000 C 
ATOM      5  C   UNL     1       7.528   5.250  18.427  0.00  0.00    +0.000 C 
ATOM      6  C   UNL     1       8.175   6.485  19.023  0.00  0.00    +0.000 C 
ATOM      7  N   UNL     1       7.985   7.514  17.999  0.00  0.00    +0.000 NA
ATOM      8  C   UNL     1       6.680   7.221  17.367  0.00  0.00    +0.000 C 
ATOM      9  H   UNL     1       8.710   7.411  17.288  0.00  0.00    +0.000 HD
ENDBRANCH   3   4
BRANCH   1  10
ATOM     10  C   UNL     1       5.614   3.930  14.525  0.00  0.00    +0.000 C 
BRANCH  10  12
ATOM     11  C   UNL     1       5.758   3.185  12.125  0.00  0.00    +0.000 C 
ATOM     12  C   UNL     1       6.440   3.961  13.238  0.00  0.00    +0.000 C 
ENDBRANCH  10  12
ENDBRANCH   1  10
BRANCH   3  13
ATOM     13  C   UNL     1       4.113   4.715  16.935  0.00  0.00    +0.000 C 
BRANCH  13  14
ATOM     14  C   UNL     1       3.432   5.539  18.014  0.00  0.00    +0.000 A 
ATOM     15  C   UNL     1       3.087   6.884  17.776  0.00  0.00    +0.000 A 
ATOM     16  C   UNL     1       2.401   7.636  18.732  0.00  0.00    +0.000 A 
ATOM     17  C   UNL     1       2.052   7.057  19.946  0.00  0.00    +0.000 A 
ATOM     18 CL   UNL     1       1.135   7.957  21.089  0.00  0.00    +0.000 Cl
ATOM     19  C   UNL     1       2.436   5.753  20.235  0.00  0.00    +0.000 A 
ATOM     20  C   UNL     1       3.139   5.005  19.284  0.00  0.00    +0.000 A 
ATOM     21 CL   UNL     1       3.622   3.409  19.741  0.00  0.00    +0.000 Cl
ENDBRANCH  13  14
ENDBRANCH   3  13
TORSDOF 5
ENDMDL
MODEL 9
REMARK VINA RESULT:      -6.4      3.601      5.656
REMARK  Name = 
REMARK  6 active torsions:
REMARK  status: ('A' for Active; 'I' for Inactive)
REMARK    1  A    between atoms: C_1  and  C_2
REMARK    2  A    between atoms: C_2  and  C_3
REMARK    3  A    between atoms: C_3  and  C_4
REMARK    4  A    between atoms: N_6  and  C_7
REMARK    5  A    between atoms: N_6  and  C_16
REMARK    6  A    between atoms: C_7  and  C_8
REMARK                            x       y       z     vdW  Elec       q    Type
REMARK                         _______ _______ _______ _____ _____    ______ ____
ROOT
ATOM      1  C   UNL     1       2.388   5.630  19.445  0.00  0.00    +0.000 C 
ATOM      2  O   UNL     1       1.284   5.080  19.481  0.00  0.00    +0.000 OA
ATOM      3  N   UNL     1       3.570   4.885  19.463  0.00  0.00    +0.000 N 
ENDROOT
BRANCH   3   4
ATOM      4  C   UNL     1       3.415   3.419  19.515  0.00  0.00    +0.000 C 
ATOM      5  C   UNL     1       3.352   2.640  18.202  0.00  0.00    +0.000 C 
ATOM      6  C   UNL     1       3.692   1.229  18.638  0.00  0.00    +0.000 C 
ATOM      7  N   UNL     1       4.802   1.406  19.577  0.00  0.00    +0.000 NA
ATOM      8  C   UNL     1       4.540   2.680  20.280  0.00  0.00    +0.000 C 
ATOM      9  H   UNL     1       5.669   1.510  19.048  0.00  0.00    +0.000 HD
ENDBRANCH   3   4
BRANCH   1  10
ATOM     10  C   UNL     1       2.488   7.146  19.360  0.00  0.00    +0.000 C 
BRANCH  10  12
ATOM     11  C   UNL     1       1.798   9.110  17.945  0.00  0.00    +0.000 C 
ATOM     12  C   UNL     1       2.206   7.648  17.942  0.00  0.00    +0.000 C 
ENDBRANCH  10  12
ENDBRANCH   1  10
BRANCH   3  13
ATOM     13  C   UNL     1       4.912   5.474  19.307  0.00  0.00    +0.000 C 
BRANCH  13  14
ATOM     14  C   UNL     1       5.502   5.273  17.922  0.00  0.00    +0.000 A 
ATOM     15  C   UNL     1       4.661   5.149  16.798  0.00  0.00    +0.000 A 
ATOM     16  C   UNL     1       5.186   5.030  15.510  0.00  0.00    +0.000 A 
ATOM     17  C   UNL     1       6.562   5.028  15.323  0.00  0.00    +0.000 A 
ATOM     18 CL   UNL     1       7.207   4.965  13.730  0.00  0.00    +0.000 Cl
ATOM     19  C   UNL     1       7.418   5.084  16.417  0.00  0.00    +0.000 A 
ATOM     20  C   UNL     1       6.891   5.184  17.710  0.00  0.00    +0.000 A 
ATOM     21 CL   UNL     1       8.021   5.199  19.018  0.00  0.00    +0.000 Cl
ENDBRANCH  13  14
ENDBRANCH   3  13
TORSDOF 5
ENDMDL
