MODEL 1
REMARK VINA RESULT:      -6.4      0.000      0.000
REMARK  Name = 
REMARK  10 active torsions:
REMARK  status: ('A' for Active; 'I' for Inactive)
REMARK    1  A    between atoms: C_1  and  N_2
REMARK    2  A    between atoms: N_2  and  C_3
REMARK    3  A    between atoms: C_3  and  C_4
REMARK    4  A    between atoms: C_4  and  C_5
REMARK    5  A    between atoms: C_5  and  C_6
REMARK    6  A    between atoms: C_6  and  N_7
REMARK    7  A    between atoms: C_8  and  C_9
REMARK    8  A    between atoms: C_12  and  O_13
REMARK    9  A    between atoms: C_16  and  C_17
REMARK   10  A    between atoms: C_20  and  O_21
REMARK                            x       y       z     vdW  Elec       q    Type
REMARK                         _______ _______ _______ _____ _____    ______ ____
ROOT
ATOM      1  N   UNL     1       2.030   6.374  20.207  0.00  0.00    +0.000 N 
ATOM      2  C   UNL     1       2.661   6.648  18.988  0.00  0.00    +0.000 A 
ATOM      3  C   UNL     1       2.348   7.979  18.684  0.00  0.00    +0.000 A 
ATOM      4  C   UNL     1       2.803   8.817  17.532  0.00  0.00    +0.000 C 
ATOM      5  C   UNL     1       1.471   8.479  19.698  0.00  0.00    +0.000 A 
ATOM      6  C   UNL     1       0.851   9.732  19.909  0.00  0.00    +0.000 A 
ATOM      7  C   UNL     1       0.018   9.904  21.015  0.00  0.00    +0.000 A 
ATOM      8  C   UNL     1      -0.214   8.872  21.905  0.00  0.00    +0.000 A 
ATOM      9  C   UNL     1       0.399   7.629  21.721  0.00  0.00    +0.000 A 
ATOM     10  C   UNL     1       1.252   7.452  20.610  0.00  0.00    +0.000 A 
ENDROOT
BRANCH   2  11
ATOM     11  C   UNL     1       3.570   5.716  18.266  0.00  0.00    +0.000 A 
ATOM     12  C   UNL     1       4.963   5.735  18.450  0.00  0.00    +0.000 A 
ATOM     13  C   UNL     1       5.814   4.945  17.663  0.00  0.00    +0.000 A 
ATOM     14  C   UNL     1       5.270   4.056  16.749  0.00  0.00    +0.000 A 
ATOM     15  C   UNL     1       3.895   3.946  16.608  0.00  0.00    +0.000 A 
ATOM     16  C   UNL     1       3.056   4.796  17.339  0.00  0.00    +0.000 A 
BRANCH  14  17
ATOM     17  O   UNL     1       6.055   3.274  15.954  0.00  0.00    +0.000 OA
ATOM     18  H   UNL     1       5.912   3.531  15.028  0.00  0.00    +0.000 HD
ENDBRANCH  14  17
ENDBRANCH   2  11
BRANCH   7  19
ATOM     19  O   UNL     1      -0.597  11.097  21.257  0.00  0.00    +0.000 OA
ATOM     20  H   UNL     1      -1.527  10.926  21.474  0.00  0.00    +0.000 HD
ENDBRANCH   7  19
BRANCH   1  21
ATOM     21  C   UNL     1       2.174   5.177  21.025  0.00  0.00    +0.000 C 
BRANCH  21  22
ATOM     22  C   UNL     1       1.274   3.999  20.649  0.00  0.00    +0.000 C 
BRANCH  22  23
ATOM     23  C   UNL     1       2.052   2.751  20.222  0.00  0.00    +0.000 C 
BRANCH  23  24
ATOM     24  C   UNL     1       3.540   2.834  20.581  0.00  0.00    +0.000 C 
BRANCH  24  26
ATOM     25  C   UNL     1       3.545   1.318  18.703  0.00  0.00    +0.000 C 
ATOM     26  N   UNL     1       4.363   2.066  19.645  0.00  0.00    +0.000 NA
ATOM     27  H   UNL     1       4.990   2.679  19.126  0.00  0.00    +0.000 HD
ENDBRANCH  24  26
ENDBRANCH  23  24
ENDBRANCH  22  23
ENDBRANCH  21  22
ENDBRANCH   1  21
TORSDOF 8
ENDMDL
MODEL 2
REMARK VINA RESULT:      -6.2      1.433      5.930
REMARK  Name = 
REMARK  10 active torsions:
REMARK  status: ('A' for Active; 'I' for Inactive)
REMARK    1  A    between atoms: C_1  and  N_2
REMARK    2  A    between atoms: N_2  and  C_3
REMARK    3  A    between atoms: C_3  and  C_4
REMARK    4  A    between atoms: C_4  and  C_5
REMARK    5  A    between atoms: C_5  and  C_6
REMARK    6  A    between atoms: C_6  and  N_7
REMARK    7  A    between atoms: C_8  and  C_9
REMARK    8  A    between atoms: C_12  and  O_13
REMARK    9  A    between atoms: C_16  and  C_17
REMARK   10  A    between atoms: C_20  and  O_21
REMARK                            x       y       z     vdW  Elec       q    Type
REMARK                         _______ _______ _______ _____ _____    ______ ____
ROOT
ATOM      1  N   UNL     1       2.469   6.636  19.727  0.00  0.00    +0.000 N 
ATOM      2  C   UNL     1       2.038   7.962  19.610  0.00  0.00    +0.000 A 
ATOM      3  C   UNL     1       2.559   8.429  18.397  0.00  0.00    +0.000 A 
ATOM      4  C   UNL     1       2.368   9.756  17.734  0.00  0.00    +0.000 C 
ATOM      5  C   UNL     1       3.360   7.392  17.821  0.00  0.00    +0.000 A 
ATOM      6  C   UNL     1       4.109   7.299  16.625  0.00  0.00    +0.000 A 
ATOM      7  C   UNL     1       4.811   6.126  16.348  0.00  0.00    +0.000 A 
ATOM      8  C   UNL     1       4.791   5.055  17.223  0.00  0.00    +0.000 A 
ATOM      9  C   UNL     1       4.047   5.123  18.406  0.00  0.00    +0.000 A 
ATOM     10  C   UNL     1       3.325   6.304  18.685  0.00  0.00    +0.000 A 
ENDROOT
BRANCH   2  11
ATOM     11  C   UNL     1       1.112   8.649  20.552  0.00  0.00    +0.000 A 
ATOM     12  C   UNL     1      -0.018   9.355  20.110  0.00  0.00    +0.000 A 
ATOM     13  C   UNL     1      -0.802  10.109  20.997  0.00  0.00    +0.000 A 
ATOM     14  C   UNL     1      -0.514  10.082  22.354  0.00  0.00    +0.000 A 
ATOM     15  C   UNL     1       0.540   9.322  22.834  0.00  0.00    +0.000 A 
ATOM     16  C   UNL     1       1.366   8.638  21.933  0.00  0.00    +0.000 A 
BRANCH  14  17
ATOM     17  O   UNL     1      -1.239  10.805  23.254  0.00  0.00    +0.000 OA
ATOM     18  H   UNL     1      -0.633  11.377  23.754  0.00  0.00    +0.000 HD
ENDBRANCH  14  17
ENDBRANCH   2  11
BRANCH   7  19
ATOM     19  O   UNL     1       5.542   5.994  15.206  0.00  0.00    +0.000 OA
ATOM     20  H   UNL     1       6.049   6.810  15.068  0.00  0.00    +0.000 HD
ENDBRANCH   7  19
BRANCH   1  21
ATOM     21  C   UNL     1       2.066   5.664  20.736  0.00  0.00    +0.000 C 
BRANCH  21  22
ATOM     22  C   UNL     1       0.880   4.772  20.367  0.00  0.00    +0.000 C 
BRANCH  22  23
ATOM     23  C   UNL     1       1.244   3.287  20.267  0.00  0.00    +0.000 C 
BRANCH  23  24
ATOM     24  C   UNL     1       1.112   2.744  18.840  0.00  0.00    +0.000 C 
BRANCH  24  26
ATOM     25  C   UNL     1       3.253   1.665  18.567  0.00  0.00    +0.000 C 
ATOM     26  N   UNL     1       1.816   1.470  18.681  0.00  0.00    +0.000 NA
ATOM     27  H   UNL     1       1.627   0.850  19.467  0.00  0.00    +0.000 HD
ENDBRANCH  24  26
ENDBRANCH  23  24
ENDBRANCH  22  23
ENDBRANCH  21  22
ENDBRANCH   1  21
TORSDOF 8
ENDMDL
MODEL 3
REMARK VINA RESULT:      -6.2      0.327      1.019
REMARK  Name = 
REMARK  10 active torsions:
REMARK  status: ('A' for Active; 'I' for Inactive)
REMARK    1  A    between atoms: C_1  and  N_2
REMARK    2  A    between atoms: N_2  and  C_3
REMARK    3  A    between atoms: C_3  and  C_4
REMARK    4  A    between atoms: C_4  and  C_5
REMARK    5  A    between atoms: C_5  and  C_6
REMARK    6  A    between atoms: C_6  and  N_7
REMARK    7  A    between atoms: C_8  and  C_9
REMARK    8  A    between atoms: C_12  and  O_13
REMARK    9  A    between atoms: C_16  and  C_17
REMARK   10  A    between atoms: C_20  and  O_21
REMARK                            x       y       z     vdW  Elec       q    Type
REMARK                         _______ _______ _______ _____ _____    ______ ____
ROOT
ATOM      1  N   UNL     1       1.910   6.553  20.160  0.00  0.00    +0.000 N 
ATOM      2  C   UNL     1       2.492   6.866  18.926  0.00  0.00    +0.000 A 
ATOM      3  C   UNL     1       2.196   8.215  18.693  0.00  0.00    +0.000 A 
ATOM      4  C   UNL     1       2.617   9.093  17.559  0.00  0.00    +0.000 C 
ATOM      5  C   UNL     1       1.377   8.688  19.767  0.00  0.00    +0.000 A 
ATOM      6  C   UNL     1       0.795   9.944  20.060  0.00  0.00    +0.000 A 
ATOM      7  C   UNL     1       0.017  10.085  21.209  0.00  0.00    +0.000 A 
ATOM      8  C   UNL     1      -0.198   9.021  22.064  0.00  0.00    +0.000 A 
ATOM      9  C   UNL     1       0.378   7.774  21.799  0.00  0.00    +0.000 A 
ATOM     10  C   UNL     1       1.176   7.628  20.644  0.00  0.00    +0.000 A 
ENDROOT
BRANCH   2  11
ATOM     11  C   UNL     1       3.346   5.948  18.124  0.00  0.00    +0.000 A 
ATOM     12  C   UNL     1       2.817   4.843  17.436  0.00  0.00    +0.000 A 
ATOM     13  C   UNL     1       3.650   3.912  16.799  0.00  0.00    +0.000 A 
ATOM     14  C   UNL     1       5.019   4.132  16.765  0.00  0.00    +0.000 A 
ATOM     15  C   UNL     1       5.565   5.260  17.355  0.00  0.00    +0.000 A 
ATOM     16  C   UNL     1       4.734   6.142  18.059  0.00  0.00    +0.000 A 
BRANCH  14  17
ATOM     17  O   UNL     1       5.872   3.252  16.167  0.00  0.00    +0.000 OA
ATOM     18  H   UNL     1       5.794   3.349  15.204  0.00  0.00    +0.000 HD
ENDBRANCH  14  17
ENDBRANCH   2  11
BRANCH   7  19
ATOM     19  O   UNL     1      -0.559  11.279  21.529  0.00  0.00    +0.000 OA
ATOM     20  H   UNL     1      -0.359  11.478  22.458  0.00  0.00    +0.000 HD
ENDBRANCH   7  19
BRANCH   1  21
ATOM     21  C   UNL     1       2.064   5.318  20.919  0.00  0.00    +0.000 C 
BRANCH  21  22
ATOM     22  C   UNL     1       1.080   4.198  20.578  0.00  0.00    +0.000 C 
BRANCH  22  23
ATOM     23  C   UNL     1       1.757   2.844  20.345  0.00  0.00    +0.000 C 
BRANCH  23  24
ATOM     24  C   UNL     1       3.172   2.785  20.931  0.00  0.00    +0.000 C 
BRANCH  24  26
ATOM     25  C   UNL     1       3.487   1.447  18.948  0.00  0.00    +0.000 C 
ATOM     26  N   UNL     1       4.136   2.266  19.960  0.00  0.00    +0.000 NA
ATOM     27  H   UNL     1       4.634   3.027  19.501  0.00  0.00    +0.000 HD
ENDBRANCH  24  26
ENDBRANCH  23  24
ENDBRANCH  22  23
ENDBRANCH  21  22
ENDBRANCH   1  21
TORSDOF 8
ENDMDL
MODEL 4
REMARK VINA RESULT:      -6.1      2.647      5.513
REMARK  Name = 
REMARK  10 active torsions:
REMARK  status: ('A' for Active; 'I' for Inactive)
REMARK    1  A    between atoms: C_1  and  N_2
REMARK    2  A    between atoms: N_2  and  C_3
REMARK    3  A    between atoms: C_3  and  C_4
REMARK    4  A    between atoms: C_4  and  C_5
REMARK    5  A    between atoms: C_5  and  C_6
REMARK    6  A    between atoms: C_6  and  N_7
REMARK    7  A    between atoms: C_8  and  C_9
REMARK    8  A    between atoms: C_12  and  O_13
REMARK    9  A    between atoms: C_16  and  C_17
REMARK   10  A    between atoms: C_20  and  O_21
REMARK                            x       y       z     vdW  Elec       q    Type
REMARK                         _______ _______ _______ _____ _____    ______ ____
ROOT
ATOM      1  N   UNL     1       3.905   5.189  18.450  0.00  0.00    +0.000 N 
ATOM      2  C   UNL     1       4.493   4.156  17.710  0.00  0.00    +0.000 A 
ATOM      3  C   UNL     1       3.989   2.965  18.247  0.00  0.00    +0.000 A 
ATOM      4  C   UNL     1       4.227   1.556  17.807  0.00  0.00    +0.000 C 
ATOM      5  C   UNL     1       3.145   3.291  19.355  0.00  0.00    +0.000 A 
ATOM      6  C   UNL     1       2.380   2.509  20.252  0.00  0.00    +0.000 A 
ATOM      7  C   UNL     1       1.657   3.142  21.264  0.00  0.00    +0.000 A 
ATOM      8  C   UNL     1       1.676   4.517  21.407  0.00  0.00    +0.000 A 
ATOM      9  C   UNL     1       2.418   5.309  20.523  0.00  0.00    +0.000 A 
ATOM     10  C   UNL     1       3.143   4.675  19.491  0.00  0.00    +0.000 A 
ENDROOT
BRANCH   2  11
ATOM     11  C   UNL     1       5.373   4.346  16.524  0.00  0.00    +0.000 A 
ATOM     12  C   UNL     1       6.738   4.655  16.646  0.00  0.00    +0.000 A 
ATOM     13  C   UNL     1       7.520   4.965  15.524  0.00  0.00    +0.000 A 
ATOM     14  C   UNL     1       6.962   4.873  14.257  0.00  0.00    +0.000 A 
ATOM     15  C   UNL     1       5.643   4.481  14.096  0.00  0.00    +0.000 A 
ATOM     16  C   UNL     1       4.847   4.254  15.226  0.00  0.00    +0.000 A 
BRANCH  14  17
ATOM     17  O   UNL     1       7.678   5.172  13.135  0.00  0.00    +0.000 OA
ATOM     18  H   UNL     1       8.584   4.841  13.248  0.00  0.00    +0.000 HD
ENDBRANCH  14  17
ENDBRANCH   2  11
BRANCH   7  19
ATOM     19  O   UNL     1       0.904   2.426  22.146  0.00  0.00    +0.000 OA
ATOM     20  H   UNL     1       0.527   1.662  21.681  0.00  0.00    +0.000 HD
ENDBRANCH   7  19
BRANCH   1  21
ATOM     21  C   UNL     1       3.985   6.620  18.184  0.00  0.00    +0.000 C 
BRANCH  21  22
ATOM     22  C   UNL     1       2.698   7.277  17.682  0.00  0.00    +0.000 C 
BRANCH  22  23
ATOM     23  C   UNL     1       2.126   8.315  18.654  0.00  0.00    +0.000 C 
BRANCH  23  24
ATOM     24  C   UNL     1       1.823   9.654  17.974  0.00  0.00    +0.000 C 
BRANCH  24  26
ATOM     25  C   UNL     1      -0.216  10.622  18.826  0.00  0.00    +0.000 C 
ATOM     26  N   UNL     1       0.386   9.837  17.760  0.00  0.00    +0.000 NA
ATOM     27  H   UNL     1       0.208  10.297  16.869  0.00  0.00    +0.000 HD
ENDBRANCH  24  26
ENDBRANCH  23  24
ENDBRANCH  22  23
ENDBRANCH  21  22
ENDBRANCH   1  21
TORSDOF 8
ENDMDL
MODEL 5
REMARK VINA RESULT:      -6.0      1.958      3.785
REMARK  Name = 
REMARK  10 active torsions:
REMARK  status: ('A' for Active; 'I' for Inactive)
REMARK    1  A    between atoms: C_1  and  N_2
REMARK    2  A    between atoms: N_2  and  C_3
REMARK    3  A    between atoms: C_3  and  C_4
REMARK    4  A    between atoms: C_4  and  C_5
REMARK    5  A    between atoms: C_5  and  C_6
REMARK    6  A    between atoms: C_6  and  N_7
REMARK    7  A    between atoms: C_8  and  C_9
REMARK    8  A    between atoms: C_12  and  O_13
REMARK    9  A    between atoms: C_16  and  C_17
REMARK   10  A    between atoms: C_20  and  O_21
REMARK                            x       y       z     vdW  Elec       q    Type
REMARK                         _______ _______ _______ _____ _____    ______ ____
ROOT
ATOM      1  N   UNL     1       2.908   7.245  17.955  0.00  0.00    +0.000 N 
ATOM      2  C   UNL     1       2.672   6.208  18.864  0.00  0.00    +0.000 A 
ATOM      3  C   UNL     1       1.858   6.752  19.865  0.00  0.00    +0.000 A 
ATOM      4  C   UNL     1       1.249   6.083  21.055  0.00  0.00    +0.000 C 
ATOM      5  C   UNL     1       1.663   8.141  19.581  0.00  0.00    +0.000 A 
ATOM      6  C   UNL     1       0.941   9.169  20.231  0.00  0.00    +0.000 A 
ATOM      7  C   UNL     1       0.959  10.458  19.699  0.00  0.00    +0.000 A 
ATOM      8  C   UNL     1       1.673  10.750  18.551  0.00  0.00    +0.000 A 
ATOM      9  C   UNL     1       2.385   9.745  17.887  0.00  0.00    +0.000 A 
ATOM     10  C   UNL     1       2.360   8.435  18.415  0.00  0.00    +0.000 A 
ENDROOT
BRANCH   2  11
ATOM     11  C   UNL     1       3.117   4.798  18.688  0.00  0.00    +0.000 A 
ATOM     12  C   UNL     1       2.505   3.927  17.772  0.00  0.00    +0.000 A 
ATOM     13  C   UNL     1       2.846   2.568  17.716  0.00  0.00    +0.000 A 
ATOM     14  C   UNL     1       3.874   2.088  18.514  0.00  0.00    +0.000 A 
ATOM     15  C   UNL     1       4.560   2.941  19.364  0.00  0.00    +0.000 A 
ATOM     16  C   UNL     1       4.159   4.278  19.472  0.00  0.00    +0.000 A 
BRANCH  14  17
ATOM     17  O   UNL     1       4.236   0.774  18.504  0.00  0.00    +0.000 OA
ATOM     18  H   UNL     1       3.795   0.324  19.244  0.00  0.00    +0.000 HD
ENDBRANCH  14  17
ENDBRANCH   2  11
BRANCH   7  19
ATOM     19  O   UNL     1       0.274  11.477  20.292  0.00  0.00    +0.000 OA
ATOM     20  H   UNL     1      -0.023  12.090  19.602  0.00  0.00    +0.000 HD
ENDBRANCH   7  19
BRANCH   1  21
ATOM     21  C   UNL     1       3.570   7.150  16.659  0.00  0.00    +0.000 C 
BRANCH  21  22
ATOM     22  C   UNL     1       5.061   6.814  16.696  0.00  0.00    +0.000 C 
BRANCH  22  23
ATOM     23  C   UNL     1       5.412   5.524  15.947  0.00  0.00    +0.000 C 
BRANCH  23  24
ATOM     24  C   UNL     1       6.924   5.294  15.846  0.00  0.00    +0.000 C 
BRANCH  24  26
ATOM     25  C   UNL     1       7.665   4.901  18.109  0.00  0.00    +0.000 C 
ATOM     26  N   UNL     1       7.384   4.298  16.815  0.00  0.00    +0.000 NA
ATOM     27  H   UNL     1       6.689   3.562  16.936  0.00  0.00    +0.000 HD
ENDBRANCH  24  26
ENDBRANCH  23  24
ENDBRANCH  22  23
ENDBRANCH  21  22
ENDBRANCH   1  21
TORSDOF 8
ENDMDL
MODEL 6
REMARK VINA RESULT:      -5.9      1.410      5.792
REMARK  Name = 
REMARK  10 active torsions:
REMARK  status: ('A' for Active; 'I' for Inactive)
REMARK    1  A    between atoms: C_1  and  N_2
REMARK    2  A    between atoms: N_2  and  C_3
REMARK    3  A    between atoms: C_3  and  C_4
REMARK    4  A    between atoms: C_4  and  C_5
REMARK    5  A    between atoms: C_5  and  C_6
REMARK    6  A    between atoms: C_6  and  N_7
REMARK    7  A    between atoms: C_8  and  C_9
REMARK    8  A    between atoms: C_12  and  O_13
REMARK    9  A    between atoms: C_16  and  C_17
REMARK   10  A    between atoms: C_20  and  O_21
REMARK                            x       y       z     vdW  Elec       q    Type
REMARK                         _______ _______ _______ _____ _____    ______ ____
ROOT
ATOM      1  N   UNL     1       2.747   6.089  19.819  0.00  0.00    +0.000 N 
ATOM      2  C   UNL     1       2.288   7.406  19.704  0.00  0.00    +0.000 A 
ATOM      3  C   UNL     1       2.740   7.863  18.460  0.00  0.00    +0.000 A 
ATOM      4  C   UNL     1       2.494   9.176  17.789  0.00  0.00    +0.000 C 
ATOM      5  C   UNL     1       3.528   6.830  17.859  0.00  0.00    +0.000 A 
ATOM      6  C   UNL     1       4.217   6.731  16.628  0.00  0.00    +0.000 A 
ATOM      7  C   UNL     1       4.924   5.565  16.333  0.00  0.00    +0.000 A 
ATOM      8  C   UNL     1       4.965   4.507  17.223  0.00  0.00    +0.000 A 
ATOM      9  C   UNL     1       4.281   4.581  18.441  0.00  0.00    +0.000 A 
ATOM     10  C   UNL     1       3.555   5.755  18.739  0.00  0.00    +0.000 A 
ENDROOT
BRANCH   2  11
ATOM     11  C   UNL     1       1.400   8.092  20.682  0.00  0.00    +0.000 A 
ATOM     12  C   UNL     1       1.899   8.966  21.663  0.00  0.00    +0.000 A 
ATOM     13  C   UNL     1       1.068   9.496  22.660  0.00  0.00    +0.000 A 
ATOM     14  C   UNL     1      -0.293   9.230  22.627  0.00  0.00    +0.000 A 
ATOM     15  C   UNL     1      -0.832   8.446  21.620  0.00  0.00    +0.000 A 
ATOM     16  C   UNL     1       0.017   7.855  20.676  0.00  0.00    +0.000 A 
BRANCH  14  17
ATOM     17  O   UNL     1      -1.141   9.714  23.579  0.00  0.00    +0.000 OA
ATOM     18  H   UNL     1      -1.684   8.980  23.913  0.00  0.00    +0.000 HD
ENDBRANCH  14  17
ENDBRANCH   2  11
BRANCH   7  19
ATOM     19  O   UNL     1       5.598   5.427  15.157  0.00  0.00    +0.000 OA
ATOM     20  H   UNL     1       4.952   5.285  14.446  0.00  0.00    +0.000 HD
ENDBRANCH   7  19
BRANCH   1  21
ATOM     21  C   UNL     1       2.411   5.126  20.860  0.00  0.00    +0.000 C 
BRANCH  21  22
ATOM     22  C   UNL     1       1.169   4.271  20.603  0.00  0.00    +0.000 C 
BRANCH  22  23
ATOM     23  C   UNL     1       1.496   2.846  20.144  0.00  0.00    +0.000 C 
BRANCH  23  24
ATOM     24  C   UNL     1       1.084   2.587  18.692  0.00  0.00    +0.000 C 
BRANCH  24  26
ATOM     25  C   UNL     1       3.235   1.500  18.819  0.00  0.00    +0.000 C 
ATOM     26  N   UNL     1       2.062   1.748  17.995  0.00  0.00    +0.000 NA
ATOM     27  H   UNL     1       1.649   0.856  17.728  0.00  0.00    +0.000 HD
ENDBRANCH  24  26
ENDBRANCH  23  24
ENDBRANCH  22  23
ENDBRANCH  21  22
ENDBRANCH   1  21
TORSDOF 8
ENDMDL
MODEL 7
REMARK VINA RESULT:      -5.9      1.418      5.934
REMARK  Name = 
REMARK  10 active torsions:
REMARK  status: ('A' for Active; 'I' for Inactive)
REMARK    1  A    between atoms: C_1  and  N_2
REMARK    2  A    between atoms: N_2  and  C_3
REMARK    3  A    between atoms: C_3  and  C_4
REMARK    4  A    between atoms: C_4  and  C_5
REMARK    5  A    between atoms: C_5  and  C_6
REMARK    6  A    between atoms: C_6  and  N_7
REMARK    7  A    between atoms: C_8  and  C_9
REMARK    8  A    between atoms: C_12  and  O_13
REMARK    9  A    between atoms: C_16  and  C_17
REMARK   10  A    between atoms: C_20  and  O_21
REMARK                            x       y       z     vdW  Elec       q    Type
REMARK                         _______ _______ _______ _____ _____    ______ ____
ROOT
ATOM      1  N   UNL     1       2.362   6.705  19.677  0.00  0.00    +0.000 N 
ATOM      2  C   UNL     1       1.981   8.049  19.588  0.00  0.00    +0.000 A 
ATOM      3  C   UNL     1       2.546   8.530  18.400  0.00  0.00    +0.000 A 
ATOM      4  C   UNL     1       2.417   9.880  17.771  0.00  0.00    +0.000 C 
ATOM      5  C   UNL     1       3.321   7.480  17.812  0.00  0.00    +0.000 A 
ATOM      6  C   UNL     1       4.093   7.393  16.630  0.00  0.00    +0.000 A 
ATOM      7  C   UNL     1       4.759   6.203  16.336  0.00  0.00    +0.000 A 
ATOM      8  C   UNL     1       4.681   5.110  17.179  0.00  0.00    +0.000 A 
ATOM      9  C   UNL     1       3.914   5.173  18.348  0.00  0.00    +0.000 A 
ATOM     10  C   UNL     1       3.229   6.371  18.644  0.00  0.00    +0.000 A 
ENDROOT
BRANCH   2  11
ATOM     11  C   UNL     1       1.060   8.742  20.529  0.00  0.00    +0.000 A 
ATOM     12  C   UNL     1      -0.035   9.501  20.084  0.00  0.00    +0.000 A 
ATOM     13  C   UNL     1      -0.811  10.257  20.974  0.00  0.00    +0.000 A 
ATOM     14  C   UNL     1      -0.554  10.184  22.335  0.00  0.00    +0.000 A 
ATOM     15  C   UNL     1       0.461   9.373  22.817  0.00  0.00    +0.000 A 
ATOM     16  C   UNL     1       1.282   8.685  21.914  0.00  0.00    +0.000 A 
BRANCH  14  17
ATOM     17  O   UNL     1      -1.273  10.907  23.240  0.00  0.00    +0.000 OA
ATOM     18  H   UNL     1      -0.796  11.732  23.428  0.00  0.00    +0.000 HD
ENDBRANCH  14  17
ENDBRANCH   2  11
BRANCH   7  19
ATOM     19  O   UNL     1       5.510   6.075  15.205  0.00  0.00    +0.000 OA
ATOM     20  H   UNL     1       5.155   5.340  14.681  0.00  0.00    +0.000 HD
ENDBRANCH   7  19
BRANCH   1  21
ATOM     21  C   UNL     1       1.902   5.721  20.649  0.00  0.00    +0.000 C 
BRANCH  21  22
ATOM     22  C   UNL     1       0.913   4.678  20.126  0.00  0.00    +0.000 C 
BRANCH  22  23
ATOM     23  C   UNL     1       1.130   3.283  20.719  0.00  0.00    +0.000 C 
BRANCH  23  24
ATOM     24  C   UNL     1       2.127   3.286  21.883  0.00  0.00    +0.000 C 
BRANCH  24  26
ATOM     25  C   UNL     1       3.850   2.367  20.466  0.00  0.00    +0.000 C 
ATOM     26  N   UNL     1       3.140   2.241  21.729  0.00  0.00    +0.000 NA
ATOM     27  H   UNL     1       3.814   2.273  22.493  0.00  0.00    +0.000 HD
ENDBRANCH  24  26
ENDBRANCH  23  24
ENDBRANCH  22  23
ENDBRANCH  21  22
ENDBRANCH   1  21
TORSDOF 8
ENDMDL
MODEL 8
REMARK VINA RESULT:      -5.9      1.977      3.672
REMARK  Name = 
REMARK  10 active torsions:
REMARK  status: ('A' for Active; 'I' for Inactive)
REMARK    1  A    between atoms: C_1  and  N_2
REMARK    2  A    between atoms: N_2  and  C_3
REMARK    3  A    between atoms: C_3  and  C_4
REMARK    4  A    between atoms: C_4  and  C_5
REMARK    5  A    between atoms: C_5  and  C_6
REMARK    6  A    between atoms: C_6  and  N_7
REMARK    7  A    between atoms: C_8  and  C_9
REMARK    8  A    between atoms: C_12  and  O_13
REMARK    9  A    between atoms: C_16  and  C_17
REMARK   10  A    between atoms: C_20  and  O_21
REMARK                            x       y       z     vdW  Elec       q    Type
REMARK                         _______ _______ _______ _____ _____    ______ ____
ROOT
ATOM      1  N   UNL     1       2.930   7.216  17.993  0.00  0.00    +0.000 N 
ATOM      2  C   UNL     1       2.628   6.248  18.957  0.00  0.00    +0.000 A 
ATOM      3  C   UNL     1       1.809   6.884  19.898  0.00  0.00    +0.000 A 
ATOM      4  C   UNL     1       1.141   6.315  21.108  0.00  0.00    +0.000 C 
ATOM      5  C   UNL     1       1.676   8.259  19.523  0.00  0.00    +0.000 A 
ATOM      6  C   UNL     1       0.977   9.353  20.085  0.00  0.00    +0.000 A 
ATOM      7  C   UNL     1       1.061  10.604  19.475  0.00  0.00    +0.000 A 
ATOM      8  C   UNL     1       1.817  10.795  18.333  0.00  0.00    +0.000 A 
ATOM      9  C   UNL     1       2.506   9.724  17.754  0.00  0.00    +0.000 A 
ATOM     10  C   UNL     1       2.416   8.453  18.362  0.00  0.00    +0.000 A 
ENDROOT
BRANCH   2  11
ATOM     11  C   UNL     1       3.023   4.814  18.883  0.00  0.00    +0.000 A 
ATOM     12  C   UNL     1       4.117   4.301  19.599  0.00  0.00    +0.000 A 
ATOM     13  C   UNL     1       4.558   2.982  19.413  0.00  0.00    +0.000 A 
ATOM     14  C   UNL     1       3.845   2.135  18.578  0.00  0.00    +0.000 A 
ATOM     15  C   UNL     1       2.706   2.584  17.928  0.00  0.00    +0.000 A 
ATOM     16  C   UNL     1       2.321   3.924  18.055  0.00  0.00    +0.000 A 
BRANCH  14  17
ATOM     17  O   UNL     1       4.238   0.848  18.357  0.00  0.00    +0.000 OA
ATOM     18  H   UNL     1       4.080   0.632  17.423  0.00  0.00    +0.000 HD
ENDBRANCH  14  17
ENDBRANCH   2  11
BRANCH   7  19
ATOM     19  O   UNL     1       0.400  11.682  19.982  0.00  0.00    +0.000 OA
ATOM     20  H   UNL     1       1.051  12.287  20.373  0.00  0.00    +0.000 HD
ENDBRANCH   7  19
BRANCH   1  21
ATOM     21  C   UNL     1       3.622   7.014  16.727  0.00  0.00    +0.000 C 
BRANCH  21  22
ATOM     22  C   UNL     1       5.113   6.688  16.827  0.00  0.00    +0.000 C 
BRANCH  22  23
ATOM     23  C   UNL     1       5.468   5.296  16.294  0.00  0.00    +0.000 C 
BRANCH  23  24
ATOM     24  C   UNL     1       6.926   5.196  15.832  0.00  0.00    +0.000 C 
BRANCH  24  26
ATOM     25  C   UNL     1       7.728   4.641  18.039  0.00  0.00    +0.000 C 
ATOM     26  N   UNL     1       7.684   4.240  16.641  0.00  0.00    +0.000 NA
ATOM     27  H   UNL     1       7.277   3.308  16.577  0.00  0.00    +0.000 HD
ENDBRANCH  24  26
ENDBRANCH  23  24
ENDBRANCH  22  23
ENDBRANCH  21  22
ENDBRANCH   1  21
TORSDOF 8
ENDMDL
MODEL 9
REMARK VINA RESULT:      -5.9      2.675      5.646
REMARK  Name = 
REMARK  10 active torsions:
REMARK  status: ('A' for Active; 'I' for Inactive)
REMARK    1  A    between atoms: C_1  and  N_2
REMARK    2  A    between atoms: N_2  and  C_3
REMARK    3  A    between atoms: C_3  and  C_4
REMARK    4  A    between atoms: C_4  and  C_5
REMARK    5  A    between atoms: C_5  and  C_6
REMARK    6  A    between atoms: C_6  and  N_7
REMARK    7  A    between atoms: C_8  and  C_9
REMARK    8  A    between atoms: C_12  and  O_13
REMARK    9  A    between atoms: C_16  and  C_17
REMARK   10  A    between atoms: C_20  and  O_21
REMARK                            x       y       z     vdW  Elec       q    Type
REMARK                         _______ _______ _______ _____ _____    ______ ____
ROOT
ATOM      1  N   UNL     1       3.796   5.150  18.518  0.00  0.00    +0.000 N 
ATOM      2  C   UNL     1       4.382   4.155  17.727  0.00  0.00    +0.000 A 
ATOM      3  C   UNL     1       3.960   2.935  18.270  0.00  0.00    +0.000 A 
ATOM      4  C   UNL     1       4.231   1.545  17.792  0.00  0.00    +0.000 C 
ATOM      5  C   UNL     1       3.171   3.207  19.431  0.00  0.00    +0.000 A 
ATOM      6  C   UNL     1       2.493   2.379  20.357  0.00  0.00    +0.000 A 
ATOM      7  C   UNL     1       1.804   2.964  21.420  0.00  0.00    +0.000 A 
ATOM      8  C   UNL     1       1.775   4.336  21.587  0.00  0.00    +0.000 A 
ATOM      9  C   UNL     1       2.429   5.173  20.676  0.00  0.00    +0.000 A 
ATOM     10  C   UNL     1       3.118   4.587  19.592  0.00  0.00    +0.000 A 
ENDROOT
BRANCH   2  11
ATOM     11  C   UNL     1       5.181   4.401  16.495  0.00  0.00    +0.000 A 
ATOM     12  C   UNL     1       4.646   4.229  15.208  0.00  0.00    +0.000 A 
ATOM     13  C   UNL     1       5.450   4.332  14.063  0.00  0.00    +0.000 A 
ATOM     14  C   UNL     1       6.779   4.705  14.193  0.00  0.00    +0.000 A 
ATOM     15  C   UNL     1       7.315   4.972  15.443  0.00  0.00    +0.000 A 
ATOM     16  C   UNL     1       6.528   4.787  16.587  0.00  0.00    +0.000 A 
BRANCH  14  17
ATOM     17  O   UNL     1       7.604   4.810  13.113  0.00  0.00    +0.000 OA
ATOM     18  H   UNL     1       8.037   3.953  12.968  0.00  0.00    +0.000 HD
ENDBRANCH  14  17
ENDBRANCH   2  11
BRANCH   7  19
ATOM     19  O   UNL     1       1.136   2.203  22.331  0.00  0.00    +0.000 OA
ATOM     20  H   UNL     1       0.826   1.396  21.890  0.00  0.00    +0.000 HD
ENDBRANCH   7  19
BRANCH   1  21
ATOM     21  C   UNL     1       3.799   6.587  18.274  0.00  0.00    +0.000 C 
BRANCH  21  22
ATOM     22  C   UNL     1       2.486   7.180  17.761  0.00  0.00    +0.000 C 
BRANCH  22  23
ATOM     23  C   UNL     1       2.462   8.711  17.781  0.00  0.00    +0.000 C 
BRANCH  23  24
ATOM     24  C   UNL     1       1.351   9.271  18.676  0.00  0.00    +0.000 C 
BRANCH  24  26
ATOM     25  C   UNL     1      -0.634  10.641  18.757  0.00  0.00    +0.000 C 
ATOM     26  N   UNL     1       0.336   9.981  17.897  0.00  0.00    +0.000 NA
ATOM     27  H   UNL     1       0.766  10.676  17.288  0.00  0.00    +0.000 HD
ENDBRANCH  24  26
ENDBRANCH  23  24
ENDBRANCH  22  23
ENDBRANCH  21  22
ENDBRANCH   1  21
TORSDOF 8
ENDMDL
