MODEL 1
REMARK VINA RESULT:      -9.3      0.000      0.000
REMARK  Name = 
REMARK  4 active torsions:
REMARK  status: ('A' for Active; 'I' for Inactive)
REMARK    1  A    between atoms: C_5  and  C_6
REMARK    2  A    between atoms: C_9  and  C_10
REMARK    3  A    between atoms: N_16  and  C_17
REMARK    4  A    between atoms: C_17  and  C_18
REMARK                            x       y       z     vdW  Elec       q    Type
REMARK                         _______ _______ _______ _____ _____    ______ ____
ROOT
ATOM      1  C   UNL     1       7.886   8.279  18.031  0.00  0.00    +0.000 C 
ATOM      2  N   UNL     1       8.196   7.266  18.794  0.00  0.00    +0.000 NA
ATOM      3  O   UNL     1       7.401   6.169  18.351  0.00  0.00    +0.000 OA
ATOM      4  C   UNL     1       6.504   6.653  17.332  0.00  0.00    +0.000 C 
ATOM      5  C   UNL     1       6.610   5.770  16.103  0.00  0.00    +0.000 C 
ATOM      6  C   UNL     1       6.072   4.368  16.413  0.00  0.00    +0.000 C 
ATOM      7  N   UNL     1       4.698   4.404  16.951  0.00  0.00    +0.000 NA
ATOM      8  C   UNL     1       4.621   5.250  18.156  0.00  0.00    +0.000 C 
ATOM      9  C   UNL     1       5.084   6.668  17.877  0.00  0.00    +0.000 C 
ATOM     10  N   UNL     1       6.924   8.018  17.092  0.00  0.00    +0.000 N 
ATOM     11  H   UNL     1       7.150   8.261  16.138  0.00  0.00    +0.000 HD
ENDROOT
BRANCH   1  15
ATOM     12  C   UNL     1       9.635  12.169  18.608  0.00  0.00    +0.000 A 
ATOM     13  C   UNL     1      10.025  11.064  19.386  0.00  0.00    +0.000 A 
ATOM     14  C   UNL     1       9.474   9.797  19.183  0.00  0.00    +0.000 A 
ATOM     15  C   UNL     1       8.500   9.610  18.202  0.00  0.00    +0.000 A 
ATOM     16  C   UNL     1       8.076  10.692  17.433  0.00  0.00    +0.000 A 
ATOM     17  C   UNL     1       8.646  11.954  17.630  0.00  0.00    +0.000 A 
BRANCH  12  22
ATOM     18  F   UNL     1      12.046  17.215  19.291  0.00  0.00    +0.000 F 
ATOM     19  C   UNL     1      11.466  16.022  19.134  0.00  0.00    +0.000 A 
ATOM     20  C   UNL     1      12.040  14.899  19.714  0.00  0.00    +0.000 A 
ATOM     21  C   UNL     1      11.441  13.651  19.541  0.00  0.00    +0.000 A 
ATOM     22  C   UNL     1      10.253  13.500  18.797  0.00  0.00    +0.000 A 
ATOM     23  C   UNL     1       9.695  14.665  18.232  0.00  0.00    +0.000 A 
ATOM     24  C   UNL     1      10.299  15.913  18.392  0.00  0.00    +0.000 A 
ENDBRANCH  12  22
ENDBRANCH   1  15
BRANCH   7  25
ATOM     25  C   UNL     1       4.225   3.051  17.323  0.00  0.00    +0.000 C 
BRANCH  25  26
ATOM     26  C   UNL     1       3.215   3.000  18.448  0.00  0.00    +0.000 A 
ATOM     27  C   UNL     1       1.841   3.041  18.164  0.00  0.00    +0.000 A 
ATOM     28  C   UNL     1       0.901   2.928  19.188  0.00  0.00    +0.000 A 
ATOM     29  C   UNL     1       1.322   2.759  20.505  0.00  0.00    +0.000 A 
ATOM     30  C   UNL     1       2.684   2.723  20.801  0.00  0.00    +0.000 A 
ATOM     31  C   UNL     1       3.627   2.853  19.780  0.00  0.00    +0.000 A 
ENDBRANCH  25  26
ENDBRANCH   7  25
TORSDOF 4
ENDMDL
MODEL 2
REMARK VINA RESULT:      -9.2      0.751      1.387
REMARK  Name = 
REMARK  4 active torsions:
REMARK  status: ('A' for Active; 'I' for Inactive)
REMARK    1  A    between atoms: C_5  and  C_6
REMARK    2  A    between atoms: C_9  and  C_10
REMARK    3  A    between atoms: N_16  and  C_17
REMARK    4  A    between atoms: C_17  and  C_18
REMARK                            x       y       z     vdW  Elec       q    Type
REMARK                         _______ _______ _______ _____ _____    ______ ____
ROOT
ATOM      1  C   UNL     1       8.084   8.418  18.127  0.00  0.00    +0.000 C 
ATOM      2  N   UNL     1       8.399   7.388  18.866  0.00  0.00    +0.000 NA
ATOM      3  O   UNL     1       7.679   6.277  18.337  0.00  0.00    +0.000 OA
ATOM      4  C   UNL     1       6.815   6.765  17.290  0.00  0.00    +0.000 C 
ATOM      5  C   UNL     1       7.026   5.939  16.034  0.00  0.00    +0.000 C 
ATOM      6  C   UNL     1       6.536   4.504  16.258  0.00  0.00    +0.000 C 
ATOM      7  N   UNL     1       5.136   4.459  16.721  0.00  0.00    +0.000 NA
ATOM      8  C   UNL     1       4.957   5.249  17.953  0.00  0.00    +0.000 C 
ATOM      9  C   UNL     1       5.370   6.696  17.757  0.00  0.00    +0.000 C 
ATOM     10  N   UNL     1       7.186   8.155  17.128  0.00  0.00    +0.000 N 
ATOM     11  H   UNL     1       7.451   8.448  16.198  0.00  0.00    +0.000 HD
ENDROOT
BRANCH   1  15
ATOM     12  C   UNL     1       9.721  12.340  18.808  0.00  0.00    +0.000 A 
ATOM     13  C   UNL     1       8.831  12.088  17.749  0.00  0.00    +0.000 A 
ATOM     14  C   UNL     1       8.281  10.821  17.542  0.00  0.00    +0.000 A 
ATOM     15  C   UNL     1       8.628   9.765  18.385  0.00  0.00    +0.000 A 
ATOM     16  C   UNL     1       9.529   9.979  19.427  0.00  0.00    +0.000 A 
ATOM     17  C   UNL     1      10.060  11.255  19.639  0.00  0.00    +0.000 A 
BRANCH  12  22
ATOM     18  F   UNL     1      11.862  17.466  19.749  0.00  0.00    +0.000 F 
ATOM     19  C   UNL     1      11.345  16.254  19.522  0.00  0.00    +0.000 A 
ATOM     20  C   UNL     1      11.165  15.377  20.583  0.00  0.00    +0.000 A 
ATOM     21  C   UNL     1      10.637  14.108  20.346  0.00  0.00    +0.000 A 
ATOM     22  C   UNL     1      10.267  13.694  19.050  0.00  0.00    +0.000 A 
ATOM     23  C   UNL     1      10.455  14.616  18.001  0.00  0.00    +0.000 A 
ATOM     24  C   UNL     1      10.997  15.882  18.233  0.00  0.00    +0.000 A 
ENDBRANCH  12  22
ENDBRANCH   1  15
BRANCH   7  25
ATOM     25  C   UNL     1       4.705   3.072  17.013  0.00  0.00    +0.000 C 
BRANCH  25  26
ATOM     26  C   UNL     1       3.359   2.936  17.690  0.00  0.00    +0.000 A 
ATOM     27  C   UNL     1       3.155   1.943  18.659  0.00  0.00    +0.000 A 
ATOM     28  C   UNL     1       1.939   1.852  19.337  0.00  0.00    +0.000 A 
ATOM     29  C   UNL     1       0.920   2.761  19.064  0.00  0.00    +0.000 A 
ATOM     30  C   UNL     1       1.108   3.750  18.100  0.00  0.00    +0.000 A 
ATOM     31  C   UNL     1       2.318   3.832  17.408  0.00  0.00    +0.000 A 
ENDBRANCH  25  26
ENDBRANCH   7  25
TORSDOF 4
ENDMDL
MODEL 3
REMARK VINA RESULT:      -9.1      0.431      1.291
REMARK  Name = 
REMARK  4 active torsions:
REMARK  status: ('A' for Active; 'I' for Inactive)
REMARK    1  A    between atoms: C_5  and  C_6
REMARK    2  A    between atoms: C_9  and  C_10
REMARK    3  A    between atoms: N_16  and  C_17
REMARK    4  A    between atoms: C_17  and  C_18
REMARK                            x       y       z     vdW  Elec       q    Type
REMARK                         _______ _______ _______ _____ _____    ______ ____
ROOT
ATOM      1  C   UNL     1       8.074   8.437  18.105  0.00  0.00    +0.000 C 
ATOM      2  N   UNL     1       8.345   7.433  18.896  0.00  0.00    +0.000 NA
ATOM      3  O   UNL     1       7.610   6.318  18.400  0.00  0.00    +0.000 OA
ATOM      4  C   UNL     1       6.783   6.780  17.312  0.00  0.00    +0.000 C 
ATOM      5  C   UNL     1       7.001   5.893  16.099  0.00  0.00    +0.000 C 
ATOM      6  C   UNL     1       6.470   4.482  16.375  0.00  0.00    +0.000 C 
ATOM      7  N   UNL     1       5.058   4.492  16.806  0.00  0.00    +0.000 NA
ATOM      8  C   UNL     1       4.871   5.341  17.997  0.00  0.00    +0.000 C 
ATOM      9  C   UNL     1       5.326   6.767  17.746  0.00  0.00    +0.000 C 
ATOM     10  N   UNL     1       7.192   8.151  17.097  0.00  0.00    +0.000 N 
ATOM     11  H   UNL     1       7.486   8.396  16.162  0.00  0.00    +0.000 HD
ENDROOT
BRANCH   1  15
ATOM     12  C   UNL     1       9.786  12.348  18.645  0.00  0.00    +0.000 A 
ATOM     13  C   UNL     1       8.797  12.105  17.675  0.00  0.00    +0.000 A 
ATOM     14  C   UNL     1       8.225  10.842  17.516  0.00  0.00    +0.000 A 
ATOM     15  C   UNL     1       8.646   9.780  18.316  0.00  0.00    +0.000 A 
ATOM     16  C   UNL     1       9.645   9.985  19.267  0.00  0.00    +0.000 A 
ATOM     17  C   UNL     1      10.199  11.258  19.433  0.00  0.00    +0.000 A 
BRANCH  12  22
ATOM     18  F   UNL     1      11.897  17.518  19.394  0.00  0.00    +0.000 F 
ATOM     19  C   UNL     1      11.406  16.288  19.216  0.00  0.00    +0.000 A 
ATOM     20  C   UNL     1      10.620  16.018  18.103  0.00  0.00    +0.000 A 
ATOM     21  C   UNL     1      10.098  14.738  17.923  0.00  0.00    +0.000 A 
ATOM     22  C   UNL     1      10.359  13.699  18.839  0.00  0.00    +0.000 A 
ATOM     23  C   UNL     1      11.169  14.009  19.950  0.00  0.00    +0.000 A 
ATOM     24  C   UNL     1      11.682  15.293  20.142  0.00  0.00    +0.000 A 
ENDBRANCH  12  22
ENDBRANCH   1  15
BRANCH   7  25
ATOM     25  C   UNL     1       4.585   3.131  17.148  0.00  0.00    +0.000 C 
BRANCH  25  26
ATOM     26  C   UNL     1       3.406   3.069  18.093  0.00  0.00    +0.000 A 
ATOM     27  C   UNL     1       2.128   3.442  17.650  0.00  0.00    +0.000 A 
ATOM     28  C   UNL     1       1.022   3.325  18.492  0.00  0.00    +0.000 A 
ATOM     29  C   UNL     1       1.179   2.822  19.781  0.00  0.00    +0.000 A 
ATOM     30  C   UNL     1       2.444   2.454  20.236  0.00  0.00    +0.000 A 
ATOM     31  C   UNL     1       3.555   2.585  19.400  0.00  0.00    +0.000 A 
ENDBRANCH  25  26
ENDBRANCH   7  25
TORSDOF 4
ENDMDL
MODEL 4
REMARK VINA RESULT:      -9.1      8.881     11.396
REMARK  Name = 
REMARK  4 active torsions:
REMARK  status: ('A' for Active; 'I' for Inactive)
REMARK    1  A    between atoms: C_5  and  C_6
REMARK    2  A    between atoms: C_9  and  C_10
REMARK    3  A    between atoms: N_16  and  C_17
REMARK    4  A    between atoms: C_17  and  C_18
REMARK                            x       y       z     vdW  Elec       q    Type
REMARK                         _______ _______ _______ _____ _____    ______ ____
ROOT
ATOM      1  C   UNL     1       0.283  10.249  20.207  0.00  0.00    +0.000 C 
ATOM      2  N   UNL     1      -0.873  10.589  19.703  0.00  0.00    +0.000 NA
ATOM      3  O   UNL     1      -1.431  11.558  20.587  0.00  0.00    +0.000 OA
ATOM      4  C   UNL     1      -0.555  11.674  21.727  0.00  0.00    +0.000 C 
ATOM      5  C   UNL     1      -0.216  13.135  21.957  0.00  0.00    +0.000 C 
ATOM      6  C   UNL     1      -1.469  13.905  22.392  0.00  0.00    +0.000 C 
ATOM      7  N   UNL     1      -2.117  13.296  23.569  0.00  0.00    +0.000 NA
ATOM      8  C   UNL     1      -2.457  11.883  23.318  0.00  0.00    +0.000 C 
ATOM      9  C   UNL     1      -1.232  11.068  22.947  0.00  0.00    +0.000 C 
ATOM     10  N   UNL     1       0.598  10.867  21.387  0.00  0.00    +0.000 N 
ATOM     11  H   UNL     1       1.498  11.324  21.427  0.00  0.00    +0.000 HD
ENDROOT
BRANCH   1  15
ATOM     12  C   UNL     1       2.755   7.290  18.295  0.00  0.00    +0.000 A 
ATOM     13  C   UNL     1       2.329   8.445  17.614  0.00  0.00    +0.000 A 
ATOM     14  C   UNL     1       1.547   9.416  18.241  0.00  0.00    +0.000 A 
ATOM     15  C   UNL     1       1.153   9.243  19.568  0.00  0.00    +0.000 A 
ATOM     16  C   UNL     1       1.537   8.096  20.260  0.00  0.00    +0.000 A 
ATOM     17  C   UNL     1       2.337   7.137  19.630  0.00  0.00    +0.000 A 
BRANCH  12  22
ATOM     18  F   UNL     1       6.106   3.484  15.840  0.00  0.00    +0.000 F 
ATOM     19  C   UNL     1       5.303   4.383  16.417  0.00  0.00    +0.000 A 
ATOM     20  C   UNL     1       5.542   5.738  16.226  0.00  0.00    +0.000 A 
ATOM     21  C   UNL     1       4.712   6.677  16.838  0.00  0.00    +0.000 A 
ATOM     22  C   UNL     1       3.620   6.284  17.639  0.00  0.00    +0.000 A 
ATOM     23  C   UNL     1       3.403   4.901  17.800  0.00  0.00    +0.000 A 
ATOM     24  C   UNL     1       4.242   3.958  17.201  0.00  0.00    +0.000 A 
ENDBRANCH  12  22
ENDBRANCH   1  15
BRANCH   7  25
ATOM     25  C   UNL     1      -3.370  14.001  23.925  0.00  0.00    +0.000 C 
BRANCH  25  26
ATOM     26  C   UNL     1      -4.633  13.434  23.315  0.00  0.00    +0.000 A 
ATOM     27  C   UNL     1      -5.651  12.934  24.140  0.00  0.00    +0.000 A 
ATOM     28  C   UNL     1      -6.847  12.471  23.591  0.00  0.00    +0.000 A 
ATOM     29  C   UNL     1      -7.044  12.514  22.213  0.00  0.00    +0.000 A 
ATOM     30  C   UNL     1      -6.037  13.002  21.381  0.00  0.00    +0.000 A 
ATOM     31  C   UNL     1      -4.833  13.452  21.927  0.00  0.00    +0.000 A 
ENDBRANCH  25  26
ENDBRANCH   7  25
TORSDOF 4
ENDMDL
MODEL 5
REMARK VINA RESULT:      -9.1      8.919     11.393
REMARK  Name = 
REMARK  4 active torsions:
REMARK  status: ('A' for Active; 'I' for Inactive)
REMARK    1  A    between atoms: C_5  and  C_6
REMARK    2  A    between atoms: C_9  and  C_10
REMARK    3  A    between atoms: N_16  and  C_17
REMARK    4  A    between atoms: C_17  and  C_18
REMARK                            x       y       z     vdW  Elec       q    Type
REMARK                         _______ _______ _______ _____ _____    ______ ____
ROOT
ATOM      1  C   UNL     1       0.235  10.274  20.160  0.00  0.00    +0.000 C 
ATOM      2  N   UNL     1      -0.923  10.633  19.674  0.00  0.00    +0.000 NA
ATOM      3  O   UNL     1      -1.455  11.605  20.571  0.00  0.00    +0.000 OA
ATOM      4  C   UNL     1      -0.561  11.703  21.699  0.00  0.00    +0.000 C 
ATOM      5  C   UNL     1      -0.198  13.159  21.931  0.00  0.00    +0.000 C 
ATOM      6  C   UNL     1      -1.434  13.943  22.388  0.00  0.00    +0.000 C 
ATOM      7  N   UNL     1      -2.074  13.337  23.571  0.00  0.00    +0.000 NA
ATOM      8  C   UNL     1      -2.437  11.930  23.317  0.00  0.00    +0.000 C 
ATOM      9  C   UNL     1      -1.229  11.100  22.925  0.00  0.00    +0.000 C 
ATOM     10  N   UNL     1       0.576  10.882  21.339  0.00  0.00    +0.000 N 
ATOM     11  H   UNL     1       1.483  11.326  21.368  0.00  0.00    +0.000 HD
ENDROOT
BRANCH   1  15
ATOM     12  C   UNL     1       2.774   7.341  18.297  0.00  0.00    +0.000 A 
ATOM     13  C   UNL     1       2.332   7.195  19.625  0.00  0.00    +0.000 A 
ATOM     14  C   UNL     1       1.489   8.134  20.221  0.00  0.00    +0.000 A 
ATOM     15  C   UNL     1       1.082   9.260  19.504  0.00  0.00    +0.000 A 
ATOM     16  C   UNL     1       1.526   9.445  18.196  0.00  0.00    +0.000 A 
ATOM     17  C   UNL     1       2.355   8.489  17.599  0.00  0.00    +0.000 A 
BRANCH  12  22
ATOM     18  F   UNL     1       5.982   3.432  15.812  0.00  0.00    +0.000 F 
ATOM     19  C   UNL     1       5.229   4.363  16.407  0.00  0.00    +0.000 A 
ATOM     20  C   UNL     1       4.178   3.973  17.226  0.00  0.00    +0.000 A 
ATOM     21  C   UNL     1       3.385   4.944  17.837  0.00  0.00    +0.000 A 
ATOM     22  C   UNL     1       3.632   6.320  17.655  0.00  0.00    +0.000 A 
ATOM     23  C   UNL     1       4.714   6.676  16.825  0.00  0.00    +0.000 A 
ATOM     24  C   UNL     1       5.502   5.707  16.200  0.00  0.00    +0.000 A 
ENDBRANCH  12  22
ENDBRANCH   1  15
BRANCH   7  25
ATOM     25  C   UNL     1      -3.312  14.058  23.948  0.00  0.00    +0.000 C 
BRANCH  25  26
ATOM     26  C   UNL     1      -4.591  13.513  23.350  0.00  0.00    +0.000 A 
ATOM     27  C   UNL     1      -5.561  12.928  24.177  0.00  0.00    +0.000 A 
ATOM     28  C   UNL     1      -6.772  12.483  23.645  0.00  0.00    +0.000 A 
ATOM     29  C   UNL     1      -7.032  12.631  22.285  0.00  0.00    +0.000 A 
ATOM     30  C   UNL     1      -6.073  13.206  21.452  0.00  0.00    +0.000 A 
ATOM     31  C   UNL     1      -4.854  13.637  21.979  0.00  0.00    +0.000 A 
ENDBRANCH  25  26
ENDBRANCH   7  25
TORSDOF 4
ENDMDL
MODEL 6
REMARK VINA RESULT:      -9.0      9.240     11.888
REMARK  Name = 
REMARK  4 active torsions:
REMARK  status: ('A' for Active; 'I' for Inactive)
REMARK    1  A    between atoms: C_5  and  C_6
REMARK    2  A    between atoms: C_9  and  C_10
REMARK    3  A    between atoms: N_16  and  C_17
REMARK    4  A    between atoms: C_17  and  C_18
REMARK                            x       y       z     vdW  Elec       q    Type
REMARK                         _______ _______ _______ _____ _____    ______ ____
ROOT
ATOM      1  C   UNL     1       0.394  10.146  20.056  0.00  0.00    +0.000 C 
ATOM      2  N   UNL     1      -0.803  10.452  19.632  0.00  0.00    +0.000 NA
ATOM      3  O   UNL     1      -1.304  11.448  20.520  0.00  0.00    +0.000 OA
ATOM      4  C   UNL     1      -0.342  11.620  21.582  0.00  0.00    +0.000 C 
ATOM      5  C   UNL     1      -0.009  13.093  21.727  0.00  0.00    +0.000 C 
ATOM      6  C   UNL     1      -1.235  13.865  22.230  0.00  0.00    +0.000 C 
ATOM      7  N   UNL     1      -1.779  13.295  23.478  0.00  0.00    +0.000 NA
ATOM      8  C   UNL     1      -2.116  11.869  23.309  0.00  0.00    +0.000 C 
ATOM      9  C   UNL     1      -0.911  11.055  22.874  0.00  0.00    +0.000 C 
ATOM     10  N   UNL     1       0.792  10.815  21.182  0.00  0.00    +0.000 N 
ATOM     11  H   UNL     1       1.686  11.284  21.133  0.00  0.00    +0.000 HD
ENDROOT
BRANCH   1  15
ATOM     12  C   UNL     1       2.891   7.196  18.163  0.00  0.00    +0.000 A 
ATOM     13  C   UNL     1       2.442   7.040  19.487  0.00  0.00    +0.000 A 
ATOM     14  C   UNL     1       1.613   7.985  20.093  0.00  0.00    +0.000 A 
ATOM     15  C   UNL     1       1.227   9.126  19.390  0.00  0.00    +0.000 A 
ATOM     16  C   UNL     1       1.678   9.321  18.085  0.00  0.00    +0.000 A 
ATOM     17  C   UNL     1       2.493   8.359  17.479  0.00  0.00    +0.000 A 
BRANCH  12  22
ATOM     18  F   UNL     1       6.041   3.263  15.642  0.00  0.00    +0.000 F 
ATOM     19  C   UNL     1       5.302   4.200  16.244  0.00  0.00    +0.000 A 
ATOM     20  C   UNL     1       4.316   3.820  17.146  0.00  0.00    +0.000 A 
ATOM     21  C   UNL     1       3.538   4.797  17.766  0.00  0.00    +0.000 A 
ATOM     22  C   UNL     1       3.734   6.169  17.510  0.00  0.00    +0.000 A 
ATOM     23  C   UNL     1       4.751   6.515  16.597  0.00  0.00    +0.000 A 
ATOM     24  C   UNL     1       5.523   5.539  15.964  0.00  0.00    +0.000 A 
ENDBRANCH  12  22
ENDBRANCH   1  15
BRANCH   7  25
ATOM     25  C   UNL     1      -3.011  13.998  23.905  0.00  0.00    +0.000 C 
BRANCH  25  26
ATOM     26  C   UNL     1      -2.797  15.333  24.583  0.00  0.00    +0.000 A 
ATOM     27  C   UNL     1      -1.769  15.488  25.525  0.00  0.00    +0.000 A 
ATOM     28  C   UNL     1      -1.521  16.732  26.107  0.00  0.00    +0.000 A 
ATOM     29  C   UNL     1      -2.287  17.836  25.743  0.00  0.00    +0.000 A 
ATOM     30  C   UNL     1      -3.315  17.694  24.812  0.00  0.00    +0.000 A 
ATOM     31  C   UNL     1      -3.576  16.447  24.241  0.00  0.00    +0.000 A 
ENDBRANCH  25  26
ENDBRANCH   7  25
TORSDOF 4
ENDMDL
MODEL 7
REMARK VINA RESULT:      -9.0      9.200     11.849
REMARK  Name = 
REMARK  4 active torsions:
REMARK  status: ('A' for Active; 'I' for Inactive)
REMARK    1  A    between atoms: C_5  and  C_6
REMARK    2  A    between atoms: C_9  and  C_10
REMARK    3  A    between atoms: N_16  and  C_17
REMARK    4  A    between atoms: C_17  and  C_18
REMARK                            x       y       z     vdW  Elec       q    Type
REMARK                         _______ _______ _______ _____ _____    ______ ____
ROOT
ATOM      1  C   UNL     1       0.496  10.084  20.081  0.00  0.00    +0.000 C 
ATOM      2  N   UNL     1      -0.698  10.374  19.637  0.00  0.00    +0.000 NA
ATOM      3  O   UNL     1      -1.229  11.359  20.519  0.00  0.00    +0.000 OA
ATOM      4  C   UNL     1      -0.289  11.542  21.598  0.00  0.00    +0.000 C 
ATOM      5  C   UNL     1       0.019  13.019  21.755  0.00  0.00    +0.000 C 
ATOM      6  C   UNL     1      -1.227  13.770  22.238  0.00  0.00    +0.000 C 
ATOM      7  N   UNL     1      -1.785  13.188  23.474  0.00  0.00    +0.000 NA
ATOM      8  C   UNL     1      -2.098  11.758  23.294  0.00  0.00    +0.000 C 
ATOM      9  C   UNL     1      -0.874  10.963  22.878  0.00  0.00    +0.000 C 
ATOM     10  N   UNL     1       0.864  10.754  21.217  0.00  0.00    +0.000 N 
ATOM     11  H   UNL     1       1.751  11.237  21.185  0.00  0.00    +0.000 HD
ENDROOT
BRANCH   1  15
ATOM     12  C   UNL     1       2.937   7.132  18.120  0.00  0.00    +0.000 A 
ATOM     13  C   UNL     1       2.570   8.328  17.477  0.00  0.00    +0.000 A 
ATOM     14  C   UNL     1       1.798   9.296  18.122  0.00  0.00    +0.000 A 
ATOM     15  C   UNL     1       1.356   9.079  19.427  0.00  0.00    +0.000 A 
ATOM     16  C   UNL     1       1.682   7.892  20.080  0.00  0.00    +0.000 A 
ATOM     17  C   UNL     1       2.472   6.935  19.433  0.00  0.00    +0.000 A 
BRANCH  12  22
ATOM     18  F   UNL     1       6.250   3.335  15.600  0.00  0.00    +0.000 F 
ATOM     19  C   UNL     1       5.456   4.232  16.193  0.00  0.00    +0.000 A 
ATOM     20  C   UNL     1       5.667   5.586  15.971  0.00  0.00    +0.000 A 
ATOM     21  C   UNL     1       4.846   6.523  16.598  0.00  0.00    +0.000 A 
ATOM     22  C   UNL     1       3.792   6.128  17.448  0.00  0.00    +0.000 A 
ATOM     23  C   UNL     1       3.604   4.745  17.640  0.00  0.00    +0.000 A 
ATOM     24  C   UNL     1       4.433   3.805  17.025  0.00  0.00    +0.000 A 
ENDBRANCH  12  22
ENDBRANCH   1  15
BRANCH   7  25
ATOM     25  C   UNL     1      -3.035  13.871  23.881  0.00  0.00    +0.000 C 
BRANCH  25  26
ATOM     26  C   UNL     1      -2.852  15.199  24.582  0.00  0.00    +0.000 A 
ATOM     27  C   UNL     1      -1.710  15.433  25.361  0.00  0.00    +0.000 A 
ATOM     28  C   UNL     1      -1.500  16.677  25.958  0.00  0.00    +0.000 A 
ATOM     29  C   UNL     1      -2.421  17.704  25.770  0.00  0.00    +0.000 A 
ATOM     30  C   UNL     1      -3.564  17.482  25.003  0.00  0.00    +0.000 A 
ATOM     31  C   UNL     1      -3.785  16.233  24.418  0.00  0.00    +0.000 A 
ENDBRANCH  25  26
ENDBRANCH   7  25
TORSDOF 4
ENDMDL
MODEL 8
REMARK VINA RESULT:      -8.9      9.109     11.538
REMARK  Name = 
REMARK  4 active torsions:
REMARK  status: ('A' for Active; 'I' for Inactive)
REMARK    1  A    between atoms: C_5  and  C_6
REMARK    2  A    between atoms: C_9  and  C_10
REMARK    3  A    between atoms: N_16  and  C_17
REMARK    4  A    between atoms: C_17  and  C_18
REMARK                            x       y       z     vdW  Elec       q    Type
REMARK                         _______ _______ _______ _____ _____    ______ ____
ROOT
ATOM      1  C   UNL     1       0.042  10.458  20.282  0.00  0.00    +0.000 C 
ATOM      2  N   UNL     1      -1.072  10.883  19.750  0.00  0.00    +0.000 NA
ATOM      3  O   UNL     1      -1.613  11.842  20.657  0.00  0.00    +0.000 OA
ATOM      4  C   UNL     1      -0.779  11.859  21.833  0.00  0.00    +0.000 C 
ATOM      5  C   UNL     1      -0.371  13.288  22.143  0.00  0.00    +0.000 C 
ATOM      6  C   UNL     1      -1.597  14.107  22.564  0.00  0.00    +0.000 C 
ATOM      7  N   UNL     1      -2.325  13.483  23.686  0.00  0.00    +0.000 NA
ATOM      8  C   UNL     1      -2.730  12.104  23.358  0.00  0.00    +0.000 C 
ATOM      9  C   UNL     1      -1.537  11.239  22.997  0.00  0.00    +0.000 C 
ATOM     10  N   UNL     1       0.342  11.005  21.501  0.00  0.00    +0.000 N 
ATOM     11  H   UNL     1       1.263  11.409  21.596  0.00  0.00    +0.000 HD
ENDROOT
BRANCH   1  15
ATOM     12  C   UNL     1       2.563   7.501  18.431  0.00  0.00    +0.000 A 
ATOM     13  C   UNL     1       2.201   7.414  19.787  0.00  0.00    +0.000 A 
ATOM     14  C   UNL     1       1.364   8.360  20.382  0.00  0.00    +0.000 A 
ATOM     15  C   UNL     1       0.882   9.434  19.632  0.00  0.00    +0.000 A 
ATOM     16  C   UNL     1       1.246   9.561  18.293  0.00  0.00    +0.000 A 
ATOM     17  C   UNL     1       2.069   8.598  17.699  0.00  0.00    +0.000 A 
BRANCH  12  22
ATOM     18  F   UNL     1       5.858   3.598  16.055  0.00  0.00    +0.000 F 
ATOM     19  C   UNL     1       5.069   4.521  16.612  0.00  0.00    +0.000 A 
ATOM     20  C   UNL     1       5.449   5.856  16.581  0.00  0.00    +0.000 A 
ATOM     21  C   UNL     1       4.632   6.819  17.172  0.00  0.00    +0.000 A 
ATOM     22  C   UNL     1       3.415   6.472  17.794  0.00  0.00    +0.000 A 
ATOM     23  C   UNL     1       3.058   5.109  17.795  0.00  0.00    +0.000 A 
ATOM     24  C   UNL     1       3.881   4.140  17.217  0.00  0.00    +0.000 A 
ENDBRANCH  12  22
ENDBRANCH   1  15
BRANCH   7  25
ATOM     25  C   UNL     1      -3.552  14.241  24.026  0.00  0.00    +0.000 C 
BRANCH  25  26
ATOM     26  C   UNL     1      -4.820  13.762  23.354  0.00  0.00    +0.000 A 
ATOM     27  C   UNL     1      -5.016  13.979  21.982  0.00  0.00    +0.000 A 
ATOM     28  C   UNL     1      -6.151  13.483  21.340  0.00  0.00    +0.000 A 
ATOM     29  C   UNL     1      -7.095  12.754  22.058  0.00  0.00    +0.000 A 
ATOM     30  C   UNL     1      -6.915  12.537  23.424  0.00  0.00    +0.000 A 
ATOM     31  C   UNL     1      -5.788  13.046  24.072  0.00  0.00    +0.000 A 
ENDBRANCH  25  26
ENDBRANCH   7  25
TORSDOF 4
ENDMDL
MODEL 9
REMARK VINA RESULT:      -8.8      9.270     11.665
REMARK  Name = 
REMARK  4 active torsions:
REMARK  status: ('A' for Active; 'I' for Inactive)
REMARK    1  A    between atoms: C_5  and  C_6
REMARK    2  A    between atoms: C_9  and  C_10
REMARK    3  A    between atoms: N_16  and  C_17
REMARK    4  A    between atoms: C_17  and  C_18
REMARK                            x       y       z     vdW  Elec       q    Type
REMARK                         _______ _______ _______ _____ _____    ______ ____
ROOT
ATOM      1  C   UNL     1       0.718  10.106  20.243  0.00  0.00    +0.000 C 
ATOM      2  N   UNL     1       1.125  11.345  20.327  0.00  0.00    +0.000 NA
ATOM      3  O   UNL     1       0.140  12.043  21.084  0.00  0.00    +0.000 OA
ATOM      4  C   UNL     1      -0.950  11.134  21.340  0.00  0.00    +0.000 C 
ATOM      5  C   UNL     1      -1.265  11.128  22.825  0.00  0.00    +0.000 C 
ATOM      6  C   UNL     1      -1.830  12.489  23.249  0.00  0.00    +0.000 C 
ATOM      7  N   UNL     1      -2.997  12.886  22.438  0.00  0.00    +0.000 NA
ATOM      8  C   UNL     1      -2.664  12.906  21.001  0.00  0.00    +0.000 C 
ATOM      9  C   UNL     1      -2.161  11.556  20.523  0.00  0.00    +0.000 C 
ATOM     10  N   UNL     1      -0.483   9.854  20.850  0.00  0.00    +0.000 N 
ATOM     11  H   UNL     1      -0.501   9.085  21.505  0.00  0.00    +0.000 HD
ENDROOT
BRANCH   1  15
ATOM     12  C   UNL     1       3.009   7.120  18.156  0.00  0.00    +0.000 A 
ATOM     13  C   UNL     1       2.573   6.922  19.478  0.00  0.00    +0.000 A 
ATOM     14  C   UNL     1       1.810   7.881  20.147  0.00  0.00    +0.000 A 
ATOM     15  C   UNL     1       1.480   9.077  19.510  0.00  0.00    +0.000 A 
ATOM     16  C   UNL     1       1.921   9.312  18.209  0.00  0.00    +0.000 A 
ATOM     17  C   UNL     1       2.669   8.339  17.539  0.00  0.00    +0.000 A 
BRANCH  12  22
ATOM     18  F   UNL     1       6.007   3.190  15.453  0.00  0.00    +0.000 F 
ATOM     19  C   UNL     1       5.288   4.119  16.089  0.00  0.00    +0.000 A 
ATOM     20  C   UNL     1       5.587   5.462  15.905  0.00  0.00    +0.000 A 
ATOM     21  C   UNL     1       4.844   6.432  16.578  0.00  0.00    +0.000 A 
ATOM     22  C   UNL     1       3.781   6.083  17.436  0.00  0.00    +0.000 A 
ATOM     23  C   UNL     1       3.501   4.710  17.588  0.00  0.00    +0.000 A 
ATOM     24  C   UNL     1       4.252   3.736  16.927  0.00  0.00    +0.000 A 
ENDBRANCH  12  22
ENDBRANCH   1  15
BRANCH   7  25
ATOM     25  C   UNL     1      -3.479  14.238  22.804  0.00  0.00    +0.000 C 
BRANCH  25  26
ATOM     26  C   UNL     1      -4.910  14.311  23.288  0.00  0.00    +0.000 A 
ATOM     27  C   UNL     1      -5.537  15.555  23.447  0.00  0.00    +0.000 A 
ATOM     28  C   UNL     1      -6.877  15.632  23.828  0.00  0.00    +0.000 A 
ATOM     29  C   UNL     1      -7.608  14.466  24.041  0.00  0.00    +0.000 A 
ATOM     30  C   UNL     1      -6.995  13.222  23.892  0.00  0.00    +0.000 A 
ATOM     31  C   UNL     1      -5.649  13.144  23.526  0.00  0.00    +0.000 A 
ENDBRANCH  25  26
ENDBRANCH   7  25
TORSDOF 4
ENDMDL
