MODEL 1
REMARK VINA RESULT:      -6.7      0.000      0.000
REMARK  Name = 
REMARK  15 active torsions:
REMARK  status: ('A' for Active; 'I' for Inactive)
REMARK    1  A    between atoms: NE_4  and  CD_5
REMARK    2  A    between atoms: CD_5  and  CG_6
REMARK    3  A    between atoms: CG_6  and  CB_7
REMARK    4  A    between atoms: CB_7  and  CA_8
REMARK    5  A    between atoms: CA_8  and  N_9
REMARK    6  A    between atoms: CA_8  and  C_24
REMARK    7  A    between atoms: C_10  and  C_12
REMARK    8  A    between atoms: C_12  and  C_13
REMARK    9  A    between atoms: N_15  and  CA_16
REMARK   10  A    between atoms: CA_16  and  CB_17
REMARK   11  A    between atoms: CA_16  and  C_21
REMARK   12  A    between atoms: CB_17  and  CG_18
REMARK   13  A    between atoms: CG_18  and  OD2_20
REMARK   14  A    between atoms: C_21  and  OXT_23
REMARK   15  A    between atoms: C_24  and  OXT_26
REMARK                            x       y       z     vdW  Elec       q    Type
REMARK                         _______ _______ _______ _____ _____    ______ ____
ROOT
ATOM      1  N   ASP A   1       7.479   5.380  15.543  0.00  0.00    +0.000 N 
ATOM      2  C   UNK A   0       6.832   6.122  16.500  0.00  0.00    +0.000 C 
ATOM      3  O   UNK A   0       5.792   6.725  16.224  0.00  0.00    +0.000 OA
ATOM      4  H   ASP A   1       8.363   4.933  15.764  0.00  0.00    +0.000 HD
ENDROOT
BRANCH   1   5
ATOM      5  CA  ASP A   1       6.887   5.124  14.220  0.00  0.00    +0.000 C 
BRANCH   5   6
ATOM      6  C   ASP A   1       7.929   5.320  13.106  0.00  0.00    +0.000 C 
ATOM      7  O   ASP A   1       7.816   4.901  11.959  0.00  0.00    +0.000 OA
BRANCH   6   8
ATOM      8  OXT ASP A   1       8.992   6.081  13.480  0.00  0.00    +0.000 OA
ATOM      9  HXT ASP A   1       9.165   6.026  14.452  0.00  0.00    +0.000 HD
ENDBRANCH   6   8
ENDBRANCH   5   6
BRANCH   5  10
ATOM     10  CB  ASP A   1       6.263   3.723  14.132  0.00  0.00    +0.000 C 
BRANCH  10  11
ATOM     11  CG  ASP A   1       4.958   3.712  13.334  0.00  0.00    +0.000 C 
BRANCH  11  12
ATOM     12  CD  ASP A   1       5.195   3.342  11.872  0.00  0.00    +0.000 C 
BRANCH  12  16
ATOM     13  NH1 ASP A   1       7.553   1.837  11.168  0.00  0.00    +0.000 NA
ATOM     14  CZ  ASP A   1       6.419   1.269  11.368  0.00  0.00    +0.000 C 
ATOM     15  NH2 ASP A   1       6.228  -0.056  11.230  0.00  0.00    +0.000 N 
ATOM     16  NE  ASP A   1       5.293   1.899  11.762  0.00  0.00    +0.000 N 
ATOM     17  HH1 ASP A   1       8.226   1.144  10.850  0.00  0.00    +0.000 HD
ATOM     18 HH21 ASP A   1       7.073  -0.609  11.189  0.00  0.00    +0.000 HD
ATOM     19 HH22 ASP A   1       5.584  -0.436  11.912  0.00  0.00    +0.000 HD
ATOM     20  HE  ASP A   1       4.426   1.432  11.534  0.00  0.00    +0.000 HD
ENDBRANCH  12  16
ENDBRANCH  11  12
ENDBRANCH  10  11
ENDBRANCH   5  10
ENDBRANCH   1   5
BRANCH   2  21
ATOM     21  C   UNK A   0       7.526   6.260  17.832  0.00  0.00    +0.000 C 
BRANCH  21  22
ATOM     22  C   UNK A   0       6.832   5.547  18.962  0.00  0.00    +0.000 C 
ATOM     23  O   UNK A   0       7.366   5.295  20.036  0.00  0.00    +0.000 OA
ATOM     24  N   ASP A   1       5.508   5.250  18.719  0.00  0.00    +0.000 N 
ATOM     25  H   ASP A   1       5.095   5.399  17.800  0.00  0.00    +0.000 HD
BRANCH  24  26
ATOM     26  CA  ASP A   1       4.682   4.571  19.727  0.00  0.00    +0.000 C 
BRANCH  26  27
ATOM     27  C   ASP A   1       4.662   3.073  19.404  0.00  0.00    +0.000 C 
ATOM     28  O   ASP A   1       4.870   2.209  20.247  0.00  0.00    +0.000 OA
BRANCH  27  29
ATOM     29  OXT ASP A   1       4.443   2.779  18.104  0.00  0.00    +0.000 OA
ATOM     30  HXT ASP A   1       3.777   2.064  17.945  0.00  0.00    +0.000 HD
ENDBRANCH  27  29
ENDBRANCH  26  27
BRANCH  26  31
ATOM     31  CB  ASP A   1       3.254   5.116  19.722  0.00  0.00    +0.000 C 
BRANCH  31  32
ATOM     32  CG  ASP A   1       3.024   5.893  18.455  0.00  0.00    +0.000 C 
ATOM     33  OD1 ASP A   1       3.029   7.117  18.413  0.00  0.00    +0.000 OA
BRANCH  32  34
ATOM     34  OD2 ASP A   1       2.774   5.128  17.378  0.00  0.00    +0.000 OA
ATOM     35  HD2 ASP A   1       3.381   4.374  17.248  0.00  0.00    +0.000 HD
ENDBRANCH  32  34
ENDBRANCH  31  32
ENDBRANCH  26  31
ENDBRANCH  24  26
ENDBRANCH  21  22
ENDBRANCH   2  21
TORSDOF 15
ENDMDL
MODEL 2
REMARK VINA RESULT:      -6.6      2.328      6.909
REMARK  Name = 
REMARK  15 active torsions:
REMARK  status: ('A' for Active; 'I' for Inactive)
REMARK    1  A    between atoms: NE_4  and  CD_5
REMARK    2  A    between atoms: CD_5  and  CG_6
REMARK    3  A    between atoms: CG_6  and  CB_7
REMARK    4  A    between atoms: CB_7  and  CA_8
REMARK    5  A    between atoms: CA_8  and  N_9
REMARK    6  A    between atoms: CA_8  and  C_24
REMARK    7  A    between atoms: C_10  and  C_12
REMARK    8  A    between atoms: C_12  and  C_13
REMARK    9  A    between atoms: N_15  and  CA_16
REMARK   10  A    between atoms: CA_16  and  CB_17
REMARK   11  A    between atoms: CA_16  and  C_21
REMARK   12  A    between atoms: CB_17  and  CG_18
REMARK   13  A    between atoms: CG_18  and  OD2_20
REMARK   14  A    between atoms: C_21  and  OXT_23
REMARK   15  A    between atoms: C_24  and  OXT_26
REMARK                            x       y       z     vdW  Elec       q    Type
REMARK                         _______ _______ _______ _____ _____    ______ ____
ROOT
ATOM      1  N   ASP A   1       4.252   4.791  17.241  0.00  0.00    +0.000 N 
ATOM      2  C   UNK A   0       5.511   4.421  17.648  0.00  0.00    +0.000 C 
ATOM      3  O   UNK A   0       5.845   4.542  18.828  0.00  0.00    +0.000 OA
ATOM      4  H   ASP A   1       4.005   4.739  16.259  0.00  0.00    +0.000 HD
ENDROOT
BRANCH   1   5
ATOM      5  CA  ASP A   1       3.203   5.174  18.200  0.00  0.00    +0.000 C 
BRANCH   5   6
ATOM      6  C   ASP A   1       3.029   6.701  18.241  0.00  0.00    +0.000 C 
ATOM      7  O   ASP A   1       2.382   7.310  19.086  0.00  0.00    +0.000 OA
BRANCH   6   8
ATOM      8  OXT ASP A   1       3.731   7.357  17.279  0.00  0.00    +0.000 OA
ATOM      9  HXT ASP A   1       3.285   7.314  16.398  0.00  0.00    +0.000 HD
ENDBRANCH   6   8
ENDBRANCH   5   6
BRANCH   5  10
ATOM     10  CB  ASP A   1       1.863   4.489  17.887  0.00  0.00    +0.000 C 
BRANCH  10  11
ATOM     11  CG  ASP A   1       1.221   3.865  19.127  0.00  0.00    +0.000 C 
BRANCH  11  12
ATOM     12  CD  ASP A   1       1.665   2.419  19.324  0.00  0.00    +0.000 C 
BRANCH  12  16
ATOM     13  NH1 ASP A   1       3.923   0.950  18.290  0.00  0.00    +0.000 NA
ATOM     14  CZ  ASP A   1       4.002   1.648  19.365  0.00  0.00    +0.000 C 
ATOM     15  NH2 ASP A   1       5.117   1.722  20.113  0.00  0.00    +0.000 N 
ATOM     16  NE  ASP A   1       3.009   2.410  19.872  0.00  0.00    +0.000 N 
ATOM     17  HH1 ASP A   1       4.797   0.450  18.150  0.00  0.00    +0.000 HD
ATOM     18 HH21 ASP A   1       5.959   1.389  19.662  0.00  0.00    +0.000 HD
ATOM     19 HH22 ASP A   1       5.266   2.639  20.515  0.00  0.00    +0.000 HD
ATOM     20  HE  ASP A   1       3.063   2.599  20.863  0.00  0.00    +0.000 HD
ENDBRANCH  12  16
ENDBRANCH  11  12
ENDBRANCH  10  11
ENDBRANCH   5  10
ENDBRANCH   1   5
BRANCH   2  21
ATOM     21  C   UNK A   0       6.473   3.999  16.566  0.00  0.00    +0.000 C 
BRANCH  21  22
ATOM     22  C   UNK A   0       6.169   4.583  15.212  0.00  0.00    +0.000 C 
ATOM     23  O   UNK A   0       5.769   5.728  15.040  0.00  0.00    +0.000 OA
ATOM     24  N   ASP A   1       6.438   3.739  14.156  0.00  0.00    +0.000 N 
ATOM     25  H   ASP A   1       6.702   2.768  14.311  0.00  0.00    +0.000 HD
BRANCH  24  26
ATOM     26  CA  ASP A   1       6.215   4.162  12.766  0.00  0.00    +0.000 C 
BRANCH  26  27
ATOM     27  C   ASP A   1       5.386   3.082  12.062  0.00  0.00    +0.000 C 
ATOM     28  O   ASP A   1       4.234   3.265  11.691  0.00  0.00    +0.000 OA
BRANCH  27  29
ATOM     29  OXT ASP A   1       6.012   1.893  11.922  0.00  0.00    +0.000 OA
ATOM     30  HXT ASP A   1       6.441   1.549  12.745  0.00  0.00    +0.000 HD
ENDBRANCH  27  29
ENDBRANCH  26  27
BRANCH  26  31
ATOM     31  CB  ASP A   1       7.540   4.353  12.031  0.00  0.00    +0.000 C 
BRANCH  31  32
ATOM     32  CG  ASP A   1       8.148   5.668  12.436  0.00  0.00    +0.000 C 
ATOM     33  OD1 ASP A   1       8.723   5.836  13.504  0.00  0.00    +0.000 OA
BRANCH  32  34
ATOM     34  OD2 ASP A   1       7.972   6.655  11.539  0.00  0.00    +0.000 OA
ATOM     35  HD2 ASP A   1       8.774   7.165  11.313  0.00  0.00    +0.000 HD
ENDBRANCH  32  34
ENDBRANCH  31  32
ENDBRANCH  26  31
ENDBRANCH  24  26
ENDBRANCH  21  22
ENDBRANCH   2  21
TORSDOF 15
ENDMDL
MODEL 3
REMARK VINA RESULT:      -6.5      2.397      3.628
REMARK  Name = 
REMARK  15 active torsions:
REMARK  status: ('A' for Active; 'I' for Inactive)
REMARK    1  A    between atoms: NE_4  and  CD_5
REMARK    2  A    between atoms: CD_5  and  CG_6
REMARK    3  A    between atoms: CG_6  and  CB_7
REMARK    4  A    between atoms: CB_7  and  CA_8
REMARK    5  A    between atoms: CA_8  and  N_9
REMARK    6  A    between atoms: CA_8  and  C_24
REMARK    7  A    between atoms: C_10  and  C_12
REMARK    8  A    between atoms: C_12  and  C_13
REMARK    9  A    between atoms: N_15  and  CA_16
REMARK   10  A    between atoms: CA_16  and  CB_17
REMARK   11  A    between atoms: CA_16  and  C_21
REMARK   12  A    between atoms: CB_17  and  CG_18
REMARK   13  A    between atoms: CG_18  and  OD2_20
REMARK   14  A    between atoms: C_21  and  OXT_23
REMARK   15  A    between atoms: C_24  and  OXT_26
REMARK                            x       y       z     vdW  Elec       q    Type
REMARK                         _______ _______ _______ _____ _____    ______ ____
ROOT
ATOM      1  N   ASP A   1       5.648   6.580  16.994  0.00  0.00    +0.000 N 
ATOM      2  C   UNK A   0       4.800   6.041  17.931  0.00  0.00    +0.000 C 
ATOM      3  O   UNK A   0       5.091   4.990  18.504  0.00  0.00    +0.000 OA
ATOM      4  H   ASP A   1       5.374   7.415  16.487  0.00  0.00    +0.000 HD
ENDROOT
BRANCH   1   5
ATOM      5  CA  ASP A   1       6.997   6.040  16.760  0.00  0.00    +0.000 C 
BRANCH   5   6
ATOM      6  C   ASP A   1       7.741   5.830  18.090  0.00  0.00    +0.000 C 
ATOM      7  O   ASP A   1       8.086   6.728  18.849  0.00  0.00    +0.000 OA
BRANCH   6   8
ATOM      8  OXT ASP A   1       7.932   4.522  18.408  0.00  0.00    +0.000 OA
ATOM      9  HXT ASP A   1       7.100   3.994  18.329  0.00  0.00    +0.000 HD
ENDBRANCH   6   8
ENDBRANCH   5   6
BRANCH   5  10
ATOM     10  CB  ASP A   1       6.961   4.733  15.953  0.00  0.00    +0.000 C 
BRANCH  10  11
ATOM     11  CG  ASP A   1       5.879   4.743  14.871  0.00  0.00    +0.000 C 
BRANCH  11  12
ATOM     12  CD  ASP A   1       6.298   3.933  13.648  0.00  0.00    +0.000 C 
BRANCH  12  16
ATOM     13  NH1 ASP A   1       5.918   1.878  11.660  0.00  0.00    +0.000 NA
ATOM     14  CZ  ASP A   1       5.077   2.836  11.815  0.00  0.00    +0.000 C 
ATOM     15  NH2 ASP A   1       3.982   2.984  11.048  0.00  0.00    +0.000 N 
ATOM     16  NE  ASP A   1       5.156   3.793  12.764  0.00  0.00    +0.000 N 
ATOM     17  HH1 ASP A   1       5.643   1.316  10.858  0.00  0.00    +0.000 HD
ATOM     18 HH21 ASP A   1       3.732   2.174  10.498  0.00  0.00    +0.000 HD
ATOM     19 HH22 ASP A   1       3.181   3.329  11.562  0.00  0.00    +0.000 HD
ATOM     20  HE  ASP A   1       4.672   4.656  12.558  0.00  0.00    +0.000 HD
ENDBRANCH  12  16
ENDBRANCH  11  12
ENDBRANCH  10  11
ENDBRANCH   5  10
ENDBRANCH   1   5
BRANCH   2  21
ATOM     21  C   UNK A   0       3.467   6.725  18.107  0.00  0.00    +0.000 C 
BRANCH  21  22
ATOM     22  C   UNK A   0       2.692   6.256  19.310  0.00  0.00    +0.000 C 
ATOM     23  O   UNK A   0       2.261   7.008  20.176  0.00  0.00    +0.000 OA
ATOM     24  N   ASP A   1       2.444   4.901  19.333  0.00  0.00    +0.000 N 
ATOM     25  H   ASP A   1       2.865   4.276  18.648  0.00  0.00    +0.000 HD
BRANCH  24  26
ATOM     26  CA  ASP A   1       1.683   4.284  20.428  0.00  0.00    +0.000 C 
BRANCH  26  27
ATOM     27  C   ASP A   1       2.631   3.379  21.223  0.00  0.00    +0.000 C 
ATOM     28  O   ASP A   1       2.408   3.035  22.377  0.00  0.00    +0.000 OA
BRANCH  27  29
ATOM     29  OXT ASP A   1       3.758   3.028  20.567  0.00  0.00    +0.000 OA
ATOM     30  HXT ASP A   1       3.963   2.060  20.579  0.00  0.00    +0.000 HD
ENDBRANCH  27  29
ENDBRANCH  26  27
BRANCH  26  31
ATOM     31  CB  ASP A   1       0.517   3.456  19.888  0.00  0.00    +0.000 C 
BRANCH  31  32
ATOM     32  CG  ASP A   1       0.933   2.794  18.603  0.00  0.00    +0.000 C 
ATOM     33  OD1 ASP A   1       1.001   3.391  17.537  0.00  0.00    +0.000 OA
BRANCH  32  34
ATOM     34  OD2 ASP A   1       1.188   1.478  18.719  0.00  0.00    +0.000 OA
ATOM     35  HD2 ASP A   1       1.151   1.122  19.628  0.00  0.00    +0.000 HD
ENDBRANCH  32  34
ENDBRANCH  31  32
ENDBRANCH  26  31
ENDBRANCH  24  26
ENDBRANCH  21  22
ENDBRANCH   2  21
TORSDOF 15
ENDMDL
MODEL 4
REMARK VINA RESULT:      -6.5      2.213      3.850
REMARK  Name = 
REMARK  15 active torsions:
REMARK  status: ('A' for Active; 'I' for Inactive)
REMARK    1  A    between atoms: NE_4  and  CD_5
REMARK    2  A    between atoms: CD_5  and  CG_6
REMARK    3  A    between atoms: CG_6  and  CB_7
REMARK    4  A    between atoms: CB_7  and  CA_8
REMARK    5  A    between atoms: CA_8  and  N_9
REMARK    6  A    between atoms: CA_8  and  C_24
REMARK    7  A    between atoms: C_10  and  C_12
REMARK    8  A    between atoms: C_12  and  C_13
REMARK    9  A    between atoms: N_15  and  CA_16
REMARK   10  A    between atoms: CA_16  and  CB_17
REMARK   11  A    between atoms: CA_16  and  C_21
REMARK   12  A    between atoms: CB_17  and  CG_18
REMARK   13  A    between atoms: CG_18  and  OD2_20
REMARK   14  A    between atoms: C_21  and  OXT_23
REMARK   15  A    between atoms: C_24  and  OXT_26
REMARK                            x       y       z     vdW  Elec       q    Type
REMARK                         _______ _______ _______ _____ _____    ______ ____
ROOT
ATOM      1  N   ASP A   1       5.632   5.940  16.928  0.00  0.00    +0.000 N 
ATOM      2  C   UNK A   0       4.564   5.083  17.036  0.00  0.00    +0.000 C 
ATOM      3  O   UNK A   0       4.683   3.896  16.728  0.00  0.00    +0.000 OA
ATOM      4  H   ASP A   1       5.509   6.926  17.132  0.00  0.00    +0.000 HD
ENDROOT
BRANCH   1   5
ATOM      5  CA  ASP A   1       6.988   5.462  16.617  0.00  0.00    +0.000 C 
BRANCH   5   6
ATOM      6  C   ASP A   1       7.726   5.033  17.897  0.00  0.00    +0.000 C 
ATOM      7  O   ASP A   1       8.507   4.092  17.973  0.00  0.00    +0.000 OA
BRANCH   6   8
ATOM      8  OXT ASP A   1       7.494   5.849  18.959  0.00  0.00    +0.000 OA
ATOM      9  HXT ASP A   1       7.589   6.805  18.723  0.00  0.00    +0.000 HD
ENDBRANCH   6   8
ENDBRANCH   5   6
BRANCH   5  10
ATOM     10  CB  ASP A   1       6.971   4.312  15.596  0.00  0.00    +0.000 C 
BRANCH  10  11
ATOM     11  CG  ASP A   1       6.921   4.813  14.152  0.00  0.00    +0.000 C 
BRANCH  11  12
ATOM     12  CD  ASP A   1       5.765   4.186  13.379  0.00  0.00    +0.000 C 
BRANCH  12  16
ATOM     13  NH1 ASP A   1       4.413   2.806  11.236  0.00  0.00    +0.000 NA
ATOM     14  CZ  ASP A   1       5.535   2.395  11.707  0.00  0.00    +0.000 C 
ATOM     15  NH2 ASP A   1       6.149   1.279  11.274  0.00  0.00    +0.000 N 
ATOM     16  NE  ASP A   1       6.254   3.024  12.661  0.00  0.00    +0.000 N 
ATOM     17  HH1 ASP A   1       4.070   2.136  10.552  0.00  0.00    +0.000 HD
ATOM     18 HH21 ASP A   1       5.799   0.910  10.401  0.00  0.00    +0.000 HD
ATOM     19 HH22 ASP A   1       7.157   1.366  11.248  0.00  0.00    +0.000 HD
ATOM     20  HE  ASP A   1       6.893   2.442  13.184  0.00  0.00    +0.000 HD
ENDBRANCH  12  16
ENDBRANCH  11  12
ENDBRANCH  10  11
ENDBRANCH   5  10
ENDBRANCH   1   5
BRANCH   2  21
ATOM     21  C   UNK A   0       3.240   5.699  17.414  0.00  0.00    +0.000 C 
BRANCH  21  22
ATOM     22  C   UNK A   0       2.250   4.720  17.988  0.00  0.00    +0.000 C 
ATOM     23  O   UNK A   0       1.181   4.443  17.457  0.00  0.00    +0.000 OA
ATOM     24  N   ASP A   1       2.670   4.099  19.145  0.00  0.00    +0.000 N 
ATOM     25  H   ASP A   1       3.525   4.386  19.617  0.00  0.00    +0.000 HD
BRANCH  24  26
ATOM     26  CA  ASP A   1       1.830   3.102  19.823  0.00  0.00    +0.000 C 
BRANCH  26  27
ATOM     27  C   ASP A   1       1.867   3.385  21.330  0.00  0.00    +0.000 C 
ATOM     28  O   ASP A   1       2.317   4.423  21.799  0.00  0.00    +0.000 OA
BRANCH  27  29
ATOM     29  OXT ASP A   1       1.408   2.378  22.104  0.00  0.00    +0.000 OA
ATOM     30  HXT ASP A   1       0.698   1.826  21.692  0.00  0.00    +0.000 HD
ENDBRANCH  27  29
ENDBRANCH  26  27
BRANCH  26  31
ATOM     31  CB  ASP A   1       2.336   1.685  19.555  0.00  0.00    +0.000 C 
BRANCH  31  32
ATOM     32  CG  ASP A   1       3.799   1.738  19.209  0.00  0.00    +0.000 C 
ATOM     33  OD1 ASP A   1       4.668   2.007  20.027  0.00  0.00    +0.000 OA
BRANCH  32  34
ATOM     34  OD2 ASP A   1       4.065   1.500  17.912  0.00  0.00    +0.000 OA
ATOM     35  HD2 ASP A   1       4.412   0.609  17.711  0.00  0.00    +0.000 HD
ENDBRANCH  32  34
ENDBRANCH  31  32
ENDBRANCH  26  31
ENDBRANCH  24  26
ENDBRANCH  21  22
ENDBRANCH   2  21
TORSDOF 15
ENDMDL
MODEL 5
REMARK VINA RESULT:      -6.4      3.472      8.636
REMARK  Name = 
REMARK  15 active torsions:
REMARK  status: ('A' for Active; 'I' for Inactive)
REMARK    1  A    between atoms: NE_4  and  CD_5
REMARK    2  A    between atoms: CD_5  and  CG_6
REMARK    3  A    between atoms: CG_6  and  CB_7
REMARK    4  A    between atoms: CB_7  and  CA_8
REMARK    5  A    between atoms: CA_8  and  N_9
REMARK    6  A    between atoms: CA_8  and  C_24
REMARK    7  A    between atoms: C_10  and  C_12
REMARK    8  A    between atoms: C_12  and  C_13
REMARK    9  A    between atoms: N_15  and  CA_16
REMARK   10  A    between atoms: CA_16  and  CB_17
REMARK   11  A    between atoms: CA_16  and  C_21
REMARK   12  A    between atoms: CB_17  and  CG_18
REMARK   13  A    between atoms: CG_18  and  OD2_20
REMARK   14  A    between atoms: C_21  and  OXT_23
REMARK   15  A    between atoms: C_24  and  OXT_26
REMARK                            x       y       z     vdW  Elec       q    Type
REMARK                         _______ _______ _______ _____ _____    ______ ____
ROOT
ATOM      1  N   ASP A   1       2.726   3.587  19.375  0.00  0.00    +0.000 N 
ATOM      2  C   UNK A   0       2.267   2.937  18.256  0.00  0.00    +0.000 C 
ATOM      3  O   UNK A   0       1.155   2.406  18.255  0.00  0.00    +0.000 OA
ATOM      4  H   ASP A   1       3.664   3.973  19.385  0.00  0.00    +0.000 HD
ENDROOT
BRANCH   1   5
ATOM      5  CA  ASP A   1       1.864   3.832  20.543  0.00  0.00    +0.000 C 
BRANCH   5   6
ATOM      6  C   ASP A   1       2.101   2.771  21.631  0.00  0.00    +0.000 C 
ATOM      7  O   ASP A   1       1.239   2.341  22.389  0.00  0.00    +0.000 OA
BRANCH   6   8
ATOM      8  OXT ASP A   1       3.367   2.276  21.645  0.00  0.00    +0.000 OA
ATOM      9  HXT ASP A   1       4.010   2.909  22.049  0.00  0.00    +0.000 HD
ENDBRANCH   6   8
ENDBRANCH   5   6
BRANCH   5  10
ATOM     10  CB  ASP A   1       2.064   5.244  21.117  0.00  0.00    +0.000 C 
BRANCH  10  11
ATOM     11  CG  ASP A   1       1.286   6.307  20.340  0.00  0.00    +0.000 C 
BRANCH  11  12
ATOM     12  CD  ASP A   1       1.898   7.694  20.514  0.00  0.00    +0.000 C 
BRANCH  12  16
ATOM     13  NH1 ASP A   1      -0.314   9.510  20.875  0.00  0.00    +0.000 NA
ATOM     14  CZ  ASP A   1       0.434   9.148  21.854  0.00  0.00    +0.000 C 
ATOM     15  NH2 ASP A   1       0.276   9.608  23.108  0.00  0.00    +0.000 N 
ATOM     16  NE  ASP A   1       1.442   8.255  21.773  0.00  0.00    +0.000 N 
ATOM     17  HH1 ASP A   1      -0.975  10.212  21.198  0.00  0.00    +0.000 HD
ATOM     18 HH21 ASP A   1      -0.604  10.072  23.287  0.00  0.00    +0.000 HD
ATOM     19 HH22 ASP A   1       0.460   8.907  23.815  0.00  0.00    +0.000 HD
ATOM     20  HE  ASP A   1       2.156   8.332  22.484  0.00  0.00    +0.000 HD
ENDBRANCH  12  16
ENDBRANCH  11  12
ENDBRANCH  10  11
ENDBRANCH   5  10
ENDBRANCH   1   5
BRANCH   2  21
ATOM     21  C   UNK A   0       3.238   2.801  17.109  0.00  0.00    +0.000 C 
BRANCH  21  22
ATOM     22  C   UNK A   0       4.131   3.998  16.917  0.00  0.00    +0.000 C 
ATOM     23  O   UNK A   0       3.769   5.153  17.101  0.00  0.00    +0.000 OA
ATOM     24  N   ASP A   1       5.430   3.688  16.572  0.00  0.00    +0.000 N 
ATOM     25  H   ASP A   1       5.703   2.732  16.353  0.00  0.00    +0.000 HD
BRANCH  24  26
ATOM     26  CA  ASP A   1       6.435   4.739  16.365  0.00  0.00    +0.000 C 
BRANCH  26  27
ATOM     27  C   ASP A   1       6.925   4.658  14.915  0.00  0.00    +0.000 C 
ATOM     28  O   ASP A   1       6.492   3.842  14.112  0.00  0.00    +0.000 OA
BRANCH  27  29
ATOM     29  OXT ASP A   1       7.909   5.529  14.603  0.00  0.00    +0.000 OA
ATOM     30  HXT ASP A   1       7.629   6.478  14.561  0.00  0.00    +0.000 HD
ENDBRANCH  27  29
ENDBRANCH  26  27
BRANCH  26  31
ATOM     31  CB  ASP A   1       7.618   4.562  17.317  0.00  0.00    +0.000 C 
BRANCH  31  32
ATOM     32  CG  ASP A   1       7.390   5.392  18.551  0.00  0.00    +0.000 C 
ATOM     33  OD1 ASP A   1       8.037   6.399  18.807  0.00  0.00    +0.000 OA
BRANCH  32  34
ATOM     34  OD2 ASP A   1       6.438   4.909  19.370  0.00  0.00    +0.000 OA
ATOM     35  HD2 ASP A   1       6.663   4.906  20.321  0.00  0.00    +0.000 HD
ENDBRANCH  32  34
ENDBRANCH  31  32
ENDBRANCH  26  31
ENDBRANCH  24  26
ENDBRANCH  21  22
ENDBRANCH   2  21
TORSDOF 15
ENDMDL
MODEL 6
REMARK VINA RESULT:      -6.4      3.608      5.845
REMARK  Name = 
REMARK  15 active torsions:
REMARK  status: ('A' for Active; 'I' for Inactive)
REMARK    1  A    between atoms: NE_4  and  CD_5
REMARK    2  A    between atoms: CD_5  and  CG_6
REMARK    3  A    between atoms: CG_6  and  CB_7
REMARK    4  A    between atoms: CB_7  and  CA_8
REMARK    5  A    between atoms: CA_8  and  N_9
REMARK    6  A    between atoms: CA_8  and  C_24
REMARK    7  A    between atoms: C_10  and  C_12
REMARK    8  A    between atoms: C_12  and  C_13
REMARK    9  A    between atoms: N_15  and  CA_16
REMARK   10  A    between atoms: CA_16  and  CB_17
REMARK   11  A    between atoms: CA_16  and  C_21
REMARK   12  A    between atoms: CB_17  and  CG_18
REMARK   13  A    between atoms: CG_18  and  OD2_20
REMARK   14  A    between atoms: C_21  and  OXT_23
REMARK   15  A    between atoms: C_24  and  OXT_26
REMARK                            x       y       z     vdW  Elec       q    Type
REMARK                         _______ _______ _______ _____ _____    ______ ____
ROOT
ATOM      1  N   ASP A   1       2.127   7.432  19.427  0.00  0.00    +0.000 N 
ATOM      2  C   UNK A   0       1.807   6.107  19.592  0.00  0.00    +0.000 C 
ATOM      3  O   UNK A   0       1.387   5.443  18.643  0.00  0.00    +0.000 OA
ATOM      4  H   ASP A   1       2.419   7.984  20.227  0.00  0.00    +0.000 HD
ENDROOT
BRANCH   1   5
ATOM      5  CA  ASP A   1       2.156   8.068  18.100  0.00  0.00    +0.000 C 
BRANCH   5   6
ATOM      6  C   ASP A   1       1.491   9.455  18.142  0.00  0.00    +0.000 C 
ATOM      7  O   ASP A   1       0.573   9.769  18.891  0.00  0.00    +0.000 OA
BRANCH   6   8
ATOM      8  OXT ASP A   1       2.066  10.361  17.307  0.00  0.00    +0.000 OA
ATOM      9  HXT ASP A   1       1.747  10.264  16.376  0.00  0.00    +0.000 HD
ENDBRANCH   6   8
ENDBRANCH   5   6
BRANCH   5  10
ATOM     10  CB  ASP A   1       3.585   8.174  17.545  0.00  0.00    +0.000 C 
BRANCH  10  11
ATOM     11  CG  ASP A   1       4.187   6.807  17.214  0.00  0.00    +0.000 C 
BRANCH  11  12
ATOM     12  CD  ASP A   1       5.707   6.814  17.347  0.00  0.00    +0.000 C 
BRANCH  12  16
ATOM     13  NH1 ASP A   1       7.110   4.296  17.230  0.00  0.00    +0.000 NA
ATOM     14  CZ  ASP A   1       6.981   5.050  16.198  0.00  0.00    +0.000 C 
ATOM     15  NH2 ASP A   1       7.515   4.752  15.000  0.00  0.00    +0.000 N 
ATOM     16  NE  ASP A   1       6.285   6.205  16.163  0.00  0.00    +0.000 N 
ATOM     17  HH1 ASP A   1       7.705   3.505  16.997  0.00  0.00    +0.000 HD
ATOM     18 HH21 ASP A   1       7.823   3.795  14.894  0.00  0.00    +0.000 HD
ATOM     19 HH22 ASP A   1       6.925   5.026  14.224  0.00  0.00    +0.000 HD
ATOM     20  HE  ASP A   1       6.555   6.859  15.441  0.00  0.00    +0.000 HD
ENDBRANCH  12  16
ENDBRANCH  11  12
ENDBRANCH  10  11
ENDBRANCH   5  10
ENDBRANCH   1   5
BRANCH   2  21
ATOM     21  C   UNK A   0       1.870   5.568  21.000  0.00  0.00    +0.000 C 
BRANCH  21  22
ATOM     22  C   UNK A   0       2.223   4.107  21.082  0.00  0.00    +0.000 C 
ATOM     23  O   UNK A   0       1.844   3.365  21.981  0.00  0.00    +0.000 OA
ATOM     24  N   ASP A   1       2.967   3.641  20.019  0.00  0.00    +0.000 N 
ATOM     25  H   ASP A   1       3.336   4.277  19.315  0.00  0.00    +0.000 HD
BRANCH  24  26
ATOM     26  CA  ASP A   1       3.379   2.233  19.936  0.00  0.00    +0.000 C 
BRANCH  26  27
ATOM     27  C   ASP A   1       4.880   2.152  20.237  0.00  0.00    +0.000 C 
ATOM     28  O   ASP A   1       5.341   1.458  21.134  0.00  0.00    +0.000 OA
BRANCH  27  29
ATOM     29  OXT ASP A   1       5.653   2.945  19.464  0.00  0.00    +0.000 OA
ATOM     30  HXT ASP A   1       6.382   2.477  18.985  0.00  0.00    +0.000 HD
ENDBRANCH  27  29
ENDBRANCH  26  27
BRANCH  26  31
ATOM     31  CB  ASP A   1       3.104   1.662  18.545  0.00  0.00    +0.000 C 
BRANCH  31  32
ATOM     32  CG  ASP A   1       3.066   2.786  17.546  0.00  0.00    +0.000 C 
ATOM     33  OD1 ASP A   1       4.075   3.337  17.124  0.00  0.00    +0.000 OA
BRANCH  32  34
ATOM     34  OD2 ASP A   1       1.826   3.158  17.184  0.00  0.00    +0.000 OA
ATOM     35  HD2 ASP A   1       1.458   2.695  16.406  0.00  0.00    +0.000 HD
ENDBRANCH  32  34
ENDBRANCH  31  32
ENDBRANCH  26  31
ENDBRANCH  24  26
ENDBRANCH  21  22
ENDBRANCH   2  21
TORSDOF 15
ENDMDL
MODEL 7
REMARK VINA RESULT:      -6.4      2.177      3.522
REMARK  Name = 
REMARK  15 active torsions:
REMARK  status: ('A' for Active; 'I' for Inactive)
REMARK    1  A    between atoms: NE_4  and  CD_5
REMARK    2  A    between atoms: CD_5  and  CG_6
REMARK    3  A    between atoms: CG_6  and  CB_7
REMARK    4  A    between atoms: CB_7  and  CA_8
REMARK    5  A    between atoms: CA_8  and  N_9
REMARK    6  A    between atoms: CA_8  and  C_24
REMARK    7  A    between atoms: C_10  and  C_12
REMARK    8  A    between atoms: C_12  and  C_13
REMARK    9  A    between atoms: N_15  and  CA_16
REMARK   10  A    between atoms: CA_16  and  CB_17
REMARK   11  A    between atoms: CA_16  and  C_21
REMARK   12  A    between atoms: CB_17  and  CG_18
REMARK   13  A    between atoms: CG_18  and  OD2_20
REMARK   14  A    between atoms: C_21  and  OXT_23
REMARK   15  A    between atoms: C_24  and  OXT_26
REMARK                            x       y       z     vdW  Elec       q    Type
REMARK                         _______ _______ _______ _____ _____    ______ ____
ROOT
ATOM      1  N   ASP A   1       5.227   5.140  17.551  0.00  0.00    +0.000 N 
ATOM      2  C   UNK A   0       4.348   6.196  17.541  0.00  0.00    +0.000 C 
ATOM      3  O   UNK A   0       4.737   7.327  17.246  0.00  0.00    +0.000 OA
ATOM      4  H   ASP A   1       4.909   4.223  17.849  0.00  0.00    +0.000 HD
ENDROOT
BRANCH   1   5
ATOM      5  CA  ASP A   1       6.605   5.266  17.049  0.00  0.00    +0.000 C 
BRANCH   5   6
ATOM      6  C   ASP A   1       7.623   4.983  18.166  0.00  0.00    +0.000 C 
ATOM      7  O   ASP A   1       7.618   5.516  19.270  0.00  0.00    +0.000 OA
BRANCH   6   8
ATOM      8  OXT ASP A   1       8.520   4.010  17.854  0.00  0.00    +0.000 OA
ATOM      9  HXT ASP A   1       9.415   4.193  18.231  0.00  0.00    +0.000 HD
ENDBRANCH   6   8
ENDBRANCH   5   6
BRANCH   5  10
ATOM     10  CB  ASP A   1       6.862   4.349  15.842  0.00  0.00    +0.000 C 
BRANCH  10  11
ATOM     11  CG  ASP A   1       5.782   4.480  14.767  0.00  0.00    +0.000 C 
BRANCH  11  12
ATOM     12  CD  ASP A   1       6.225   3.859  13.446  0.00  0.00    +0.000 C 
BRANCH  12  16
ATOM     13  NH1 ASP A   1       5.701   1.773  11.522  0.00  0.00    +0.000 NA
ATOM     14  CZ  ASP A   1       4.934   2.796  11.641  0.00  0.00    +0.000 C 
ATOM     15  NH2 ASP A   1       3.855   2.998  10.863  0.00  0.00    +0.000 N 
ATOM     16  NE  ASP A   1       5.079   3.774  12.559  0.00  0.00    +0.000 N 
ATOM     17  HH1 ASP A   1       5.389   1.207  10.737  0.00  0.00    +0.000 HD
ATOM     18 HH21 ASP A   1       3.548   2.191  10.338  0.00  0.00    +0.000 HD
ATOM     19 HH22 ASP A   1       3.080   3.418  11.360  0.00  0.00    +0.000 HD
ATOM     20  HE  ASP A   1       4.661   4.663  12.323  0.00  0.00    +0.000 HD
ENDBRANCH  12  16
ENDBRANCH  11  12
ENDBRANCH  10  11
ENDBRANCH   5  10
ENDBRANCH   1   5
BRANCH   2  21
ATOM     21  C   UNK A   0       2.950   5.915  18.033  0.00  0.00    +0.000 C 
BRANCH  21  22
ATOM     22  C   UNK A   0       2.897   5.181  19.346  0.00  0.00    +0.000 C 
ATOM     23  O   UNK A   0       2.544   5.698  20.400  0.00  0.00    +0.000 OA
ATOM     24  N   ASP A   1       3.221   3.844  19.263  0.00  0.00    +0.000 N 
ATOM     25  H   ASP A   1       3.581   3.442  18.400  0.00  0.00    +0.000 HD
BRANCH  24  26
ATOM     26  CA  ASP A   1       3.201   2.980  20.452  0.00  0.00    +0.000 C 
BRANCH  26  27
ATOM     27  C   ASP A   1       4.355   1.978  20.339  0.00  0.00    +0.000 C 
ATOM     28  O   ASP A   1       5.115   1.733  21.267  0.00  0.00    +0.000 OA
BRANCH  27  29
ATOM     29  OXT ASP A   1       4.499   1.419  19.118  0.00  0.00    +0.000 OA
ATOM     30  HXT ASP A   1       4.125   1.948  18.370  0.00  0.00    +0.000 HD
ENDBRANCH  27  29
ENDBRANCH  26  27
BRANCH  26  31
ATOM     31  CB  ASP A   1       1.876   2.225  20.558  0.00  0.00    +0.000 C 
BRANCH  31  32
ATOM     32  CG  ASP A   1       1.163   2.286  19.235  0.00  0.00    +0.000 C 
ATOM     33  OD1 ASP A   1       1.623   1.807  18.207  0.00  0.00    +0.000 OA
BRANCH  32  34
ATOM     34  OD2 ASP A   1      -0.009   2.945  19.272  0.00  0.00    +0.000 OA
ATOM     35  HD2 ASP A   1      -0.053   3.689  19.905  0.00  0.00    +0.000 HD
ENDBRANCH  32  34
ENDBRANCH  31  32
ENDBRANCH  26  31
ENDBRANCH  24  26
ENDBRANCH  21  22
ENDBRANCH   2  21
TORSDOF 15
ENDMDL
MODEL 8
REMARK VINA RESULT:      -6.4      2.217      3.682
REMARK  Name = 
REMARK  15 active torsions:
REMARK  status: ('A' for Active; 'I' for Inactive)
REMARK    1  A    between atoms: NE_4  and  CD_5
REMARK    2  A    between atoms: CD_5  and  CG_6
REMARK    3  A    between atoms: CG_6  and  CB_7
REMARK    4  A    between atoms: CB_7  and  CA_8
REMARK    5  A    between atoms: CA_8  and  N_9
REMARK    6  A    between atoms: CA_8  and  C_24
REMARK    7  A    between atoms: C_10  and  C_12
REMARK    8  A    between atoms: C_12  and  C_13
REMARK    9  A    between atoms: N_15  and  CA_16
REMARK   10  A    between atoms: CA_16  and  CB_17
REMARK   11  A    between atoms: CA_16  and  C_21
REMARK   12  A    between atoms: CB_17  and  CG_18
REMARK   13  A    between atoms: CG_18  and  OD2_20
REMARK   14  A    between atoms: C_21  and  OXT_23
REMARK   15  A    between atoms: C_24  and  OXT_26
REMARK                            x       y       z     vdW  Elec       q    Type
REMARK                         _______ _______ _______ _____ _____    ______ ____
ROOT
ATOM      1  N   ASP A   1       4.185   6.440  17.458  0.00  0.00    +0.000 N 
ATOM      2  C   UNK A   0       3.076   7.225  17.662  0.00  0.00    +0.000 C 
ATOM      3  O   UNK A   0       3.058   8.393  17.269  0.00  0.00    +0.000 OA
ATOM      4  H   ASP A   1       4.211   5.498  17.835  0.00  0.00    +0.000 HD
ENDROOT
BRANCH   1   5
ATOM      5  CA  ASP A   1       5.312   6.883  16.623  0.00  0.00    +0.000 C 
BRANCH   5   6
ATOM      6  C   ASP A   1       6.640   6.772  17.391  0.00  0.00    +0.000 C 
ATOM      7  O   ASP A   1       7.687   7.320  17.063  0.00  0.00    +0.000 OA
BRANCH   6   8
ATOM      8  OXT ASP A   1       6.547   6.054  18.541  0.00  0.00    +0.000 OA
ATOM      9  HXT ASP A   1       6.951   6.527  19.310  0.00  0.00    +0.000 HD
ENDBRANCH   6   8
ENDBRANCH   5   6
BRANCH   5  10
ATOM     10  CB  ASP A   1       5.389   6.103  15.301  0.00  0.00    +0.000 C 
BRANCH  10  11
ATOM     11  CG  ASP A   1       5.751   4.632  15.510  0.00  0.00    +0.000 C 
BRANCH  11  12
ATOM     12  CD  ASP A   1       6.336   4.011  14.245  0.00  0.00    +0.000 C 
BRANCH  12  16
ATOM     13  NH1 ASP A   1       6.446   2.375  11.871  0.00  0.00    +0.000 NA
ATOM     14  CZ  ASP A   1       5.422   3.097  12.152  0.00  0.00    +0.000 C 
ATOM     15  NH2 ASP A   1       4.342   3.181  11.354  0.00  0.00    +0.000 N 
ATOM     16  NE  ASP A   1       5.274   3.834  13.273  0.00  0.00    +0.000 N 
ATOM     17  HH1 ASP A   1       6.317   1.948  10.958  0.00  0.00    +0.000 HD
ATOM     18 HH21 ASP A   1       4.280   2.468  10.640  0.00  0.00    +0.000 HD
ATOM     19 HH22 ASP A   1       3.472   3.247  11.869  0.00  0.00    +0.000 HD
ATOM     20  HE  ASP A   1       4.627   4.608  13.207  0.00  0.00    +0.000 HD
ENDBRANCH  12  16
ENDBRANCH  11  12
ENDBRANCH  10  11
ENDBRANCH   5  10
ENDBRANCH   1   5
BRANCH   2  21
ATOM     21  C   UNK A   0       1.969   6.627  18.494  0.00  0.00    +0.000 C 
BRANCH  21  22
ATOM     22  C   UNK A   0       2.445   5.655  19.541  0.00  0.00    +0.000 C 
ATOM     23  O   UNK A   0       2.609   5.951  20.719  0.00  0.00    +0.000 OA
ATOM     24  N   ASP A   1       2.626   4.368  19.081  0.00  0.00    +0.000 N 
ATOM     25  H   ASP A   1       2.556   4.148  18.090  0.00  0.00    +0.000 HD
BRANCH  24  26
ATOM     26  CA  ASP A   1       3.069   3.293  19.980  0.00  0.00    +0.000 C 
BRANCH  26  27
ATOM     27  C   ASP A   1       4.484   2.873  19.566  0.00  0.00    +0.000 C 
ATOM     28  O   ASP A   1       5.390   3.677  19.386  0.00  0.00    +0.000 OA
BRANCH  27  29
ATOM     29  OXT ASP A   1       4.643   1.546  19.368  0.00  0.00    +0.000 OA
ATOM     30  HXT ASP A   1       4.375   1.223  18.472  0.00  0.00    +0.000 HD
ENDBRANCH  27  29
ENDBRANCH  26  27
BRANCH  26  31
ATOM     31  CB  ASP A   1       2.132   2.089  19.899  0.00  0.00    +0.000 C 
BRANCH  31  32
ATOM     32  CG  ASP A   1       1.371   2.139  18.602  0.00  0.00    +0.000 C 
ATOM     33  OD1 ASP A   1       0.181   2.418  18.538  0.00  0.00    +0.000 OA
BRANCH  32  34
ATOM     34  OD2 ASP A   1       2.103   1.813  17.522  0.00  0.00    +0.000 OA
ATOM     35  HD2 ASP A   1       2.109   0.864  17.288  0.00  0.00    +0.000 HD
ENDBRANCH  32  34
ENDBRANCH  31  32
ENDBRANCH  26  31
ENDBRANCH  24  26
ENDBRANCH  21  22
ENDBRANCH   2  21
TORSDOF 15
ENDMDL
MODEL 9
REMARK VINA RESULT:      -6.4      2.196      3.518
REMARK  Name = 
REMARK  15 active torsions:
REMARK  status: ('A' for Active; 'I' for Inactive)
REMARK    1  A    between atoms: NE_4  and  CD_5
REMARK    2  A    between atoms: CD_5  and  CG_6
REMARK    3  A    between atoms: CG_6  and  CB_7
REMARK    4  A    between atoms: CB_7  and  CA_8
REMARK    5  A    between atoms: CA_8  and  N_9
REMARK    6  A    between atoms: CA_8  and  C_24
REMARK    7  A    between atoms: C_10  and  C_12
REMARK    8  A    between atoms: C_12  and  C_13
REMARK    9  A    between atoms: N_15  and  CA_16
REMARK   10  A    between atoms: CA_16  and  CB_17
REMARK   11  A    between atoms: CA_16  and  C_21
REMARK   12  A    between atoms: CB_17  and  CG_18
REMARK   13  A    between atoms: CG_18  and  OD2_20
REMARK   14  A    between atoms: C_21  and  OXT_23
REMARK   15  A    between atoms: C_24  and  OXT_26
REMARK                            x       y       z     vdW  Elec       q    Type
REMARK                         _______ _______ _______ _____ _____    ______ ____
ROOT
ATOM      1  N   ASP A   1       5.289   5.780  17.667  0.00  0.00    +0.000 N 
ATOM      2  C   UNK A   0       4.137   6.434  17.303  0.00  0.00    +0.000 C 
ATOM      3  O   UNK A   0       4.167   7.321  16.448  0.00  0.00    +0.000 OA
ATOM      4  H   ASP A   1       5.263   5.090  18.410  0.00  0.00    +0.000 HD
ENDROOT
BRANCH   1   5
ATOM      5  CA  ASP A   1       6.558   5.975  16.947  0.00  0.00    +0.000 C 
BRANCH   5   6
ATOM      6  C   ASP A   1       7.508   6.882  17.747  0.00  0.00    +0.000 C 
ATOM      7  O   ASP A   1       8.047   6.572  18.804  0.00  0.00    +0.000 OA
BRANCH   6   8
ATOM      8  OXT ASP A   1       7.772   8.069  17.139  0.00  0.00    +0.000 OA
ATOM      9  HXT ASP A   1       7.653   8.836  17.751  0.00  0.00    +0.000 HD
ENDBRANCH   6   8
ENDBRANCH   5   6
BRANCH   5  10
ATOM     10  CB  ASP A   1       7.242   4.639  16.617  0.00  0.00    +0.000 C 
BRANCH  10  11
ATOM     11  CG  ASP A   1       6.501   3.854  15.533  0.00  0.00    +0.000 C 
BRANCH  11  12
ATOM     12  CD  ASP A   1       6.583   4.552  14.178  0.00  0.00    +0.000 C 
BRANCH  12  16
ATOM     13  NH1 ASP A   1       6.788   2.717  11.961  0.00  0.00    +0.000 NA
ATOM     14  CZ  ASP A   1       5.675   3.271  12.283  0.00  0.00    +0.000 C 
ATOM     15  NH2 ASP A   1       4.533   3.076  11.599  0.00  0.00    +0.000 N 
ATOM     16  NE  ASP A   1       5.491   4.086  13.343  0.00  0.00    +0.000 N 
ATOM     17  HH1 ASP A   1       6.662   2.178  11.108  0.00  0.00    +0.000 HD
ATOM     18 HH21 ASP A   1       4.544   2.292  10.962  0.00  0.00    +0.000 HD
ATOM     19 HH22 ASP A   1       3.715   3.043  12.195  0.00  0.00    +0.000 HD
ATOM     20  HE  ASP A   1       4.708   4.722  13.277  0.00  0.00    +0.000 HD
ENDBRANCH  12  16
ENDBRANCH  11  12
ENDBRANCH  10  11
ENDBRANCH   5  10
ENDBRANCH   1   5
BRANCH   2  21
ATOM     21  C   UNK A   0       2.894   6.100  18.089  0.00  0.00    +0.000 C 
BRANCH  21  22
ATOM     22  C   UNK A   0       3.143   5.220  19.286  0.00  0.00    +0.000 C 
ATOM     23  O   UNK A   0       3.334   5.650  20.417  0.00  0.00    +0.000 OA
ATOM     24  N   ASP A   1       3.076   3.869  19.021  0.00  0.00    +0.000 N 
ATOM     25  H   ASP A   1       2.988   3.523  18.068  0.00  0.00    +0.000 HD
BRANCH  24  26
ATOM     26  CA  ASP A   1       3.277   2.874  20.084  0.00  0.00    +0.000 C 
BRANCH  26  27
ATOM     27  C   ASP A   1       4.094   1.712  19.507  0.00  0.00    +0.000 C 
ATOM     28  O   ASP A   1       3.717   1.044  18.553  0.00  0.00    +0.000 OA
BRANCH  27  29
ATOM     29  OXT ASP A   1       5.245   1.451  20.164  0.00  0.00    +0.000 OA
ATOM     30  HXT ASP A   1       6.057   1.838  19.753  0.00  0.00    +0.000 HD
ENDBRANCH  27  29
ENDBRANCH  26  27
BRANCH  26  31
ATOM     31  CB  ASP A   1       1.939   2.350  20.604  0.00  0.00    +0.000 C 
BRANCH  31  32
ATOM     32  CG  ASP A   1       0.823   2.944  19.789  0.00  0.00    +0.000 C 
ATOM     33  OD1 ASP A   1       0.379   2.413  18.779  0.00  0.00    +0.000 OA
BRANCH  32  34
ATOM     34  OD2 ASP A   1       0.379   4.129  20.245  0.00  0.00    +0.000 OA
ATOM     35  HD2 ASP A   1      -0.581   4.178  20.423  0.00  0.00    +0.000 HD
ENDBRANCH  32  34
ENDBRANCH  31  32
ENDBRANCH  26  31
ENDBRANCH  24  26
ENDBRANCH  21  22
ENDBRANCH   2  21
TORSDOF 15
ENDMDL
