MODEL 1
REMARK VINA RESULT:      -7.5      0.000      0.000
REMARK  Name = 
REMARK  4 active torsions:
REMARK  status: ('A' for Active; 'I' for Inactive)
REMARK    1  A    between atoms: C_5  and  C_6
REMARK    2  A    between atoms: C_9  and  C_10
REMARK    3  A    between atoms: N_17  and  C_18
REMARK    4  A    between atoms: C_18  and  C_19
REMARK                            x       y       z     vdW  Elec       q    Type
REMARK                         _______ _______ _______ _____ _____    ______ ____
ROOT
ATOM      1  F   UNL     1       2.428   1.455  19.018  0.00  0.00    +0.000 F 
ATOM      2  C   UNL     1       3.149   2.450  18.461  0.00  0.00    +0.000 C 
ATOM      3  F   UNL     1       3.865   1.916  17.449  0.00  0.00    +0.000 F 
ATOM      4  C   UNL     1       4.049   3.100  19.475  0.00  0.00    +0.000 C 
ATOM      5  C   UNL     1       4.278   4.490  18.886  0.00  0.00    +0.000 C 
ATOM      6  N   UNL     1       3.035   4.847  18.150  0.00  0.00    +0.000 NA
ATOM      7  C   UNL     1       2.265   3.589  17.971  0.00  0.00    +0.000 C 
ENDROOT
BRANCH   5   8
ATOM      8  C   UNL     1       5.491   4.506  17.997  0.00  0.00    +0.000 A 
ATOM      9  N   UNL     1       6.762   4.410  18.331  0.00  0.00    +0.000 NA
ATOM     10  N   UNL     1       7.476   4.414  17.148  0.00  0.00    +0.000 NA
ATOM     11  C   UNL     1       6.592   4.506  16.174  0.00  0.00    +0.000 A 
ATOM     12  O   UNL     1       5.305   4.574  16.641  0.00  0.00    +0.000 OA
BRANCH  11  13
ATOM     13  C   UNL     1       6.776   4.503  14.729  0.00  0.00    +0.000 A 
ATOM     14  C   UNL     1       7.802   5.256  14.153  0.00  0.00    +0.000 A 
ATOM     15  C   UNL     1       7.978   5.201  12.780  0.00  0.00    +0.000 A 
ATOM     16  N   UNL     1       7.208   4.462  11.956  0.00  0.00    +0.000 NA
ATOM     17  C   UNL     1       6.216   3.747  12.527  0.00  0.00    +0.000 A 
ATOM     18  C   UNL     1       5.962   3.738  13.888  0.00  0.00    +0.000 A 
ENDBRANCH  11  13
ENDBRANCH   5   8
BRANCH   6  19
ATOM     19  C   UNL     1       2.223   5.875  18.801  0.00  0.00    +0.000 C 
BRANCH  19  20
ATOM     20  C   UNL     1       2.880   7.221  18.726  0.00  0.00    +0.000 C 
ATOM     21  C   UNL     1       3.577   7.642  17.453  0.00  0.00    +0.000 C 
ATOM     22  C   UNL     1       2.300   8.316  17.861  0.00  0.00    +0.000 C 
ENDBRANCH  19  20
ENDBRANCH   6  19
TORSDOF 4
ENDMDL
MODEL 2
REMARK VINA RESULT:      -7.3      2.135      3.266
REMARK  Name = 
REMARK  4 active torsions:
REMARK  status: ('A' for Active; 'I' for Inactive)
REMARK    1  A    between atoms: C_5  and  C_6
REMARK    2  A    between atoms: C_9  and  C_10
REMARK    3  A    between atoms: N_17  and  C_18
REMARK    4  A    between atoms: C_18  and  C_19
REMARK                            x       y       z     vdW  Elec       q    Type
REMARK                         _______ _______ _______ _____ _____    ______ ____
ROOT
ATOM      1  F   UNL     1       1.823   6.972  18.718  0.00  0.00    +0.000 F 
ATOM      2  C   UNL     1       2.952   6.243  18.612  0.00  0.00    +0.000 C 
ATOM      3  F   UNL     1       3.920   7.058  18.142  0.00  0.00    +0.000 F 
ATOM      4  C   UNL     1       2.751   5.062  17.704  0.00  0.00    +0.000 C 
ATOM      5  C   UNL     1       3.823   4.083  18.175  0.00  0.00    +0.000 C 
ATOM      6  N   UNL     1       3.993   4.312  19.635  0.00  0.00    +0.000 NA
ATOM      7  C   UNL     1       3.354   5.618  19.942  0.00  0.00    +0.000 C 
ENDROOT
BRANCH   5   8
ATOM      8  C   UNL     1       5.106   4.280  17.414  0.00  0.00    +0.000 A 
ATOM      9  N   UNL     1       6.332   4.412  17.879  0.00  0.00    +0.000 NA
ATOM     10  N   UNL     1       7.158   4.503  16.776  0.00  0.00    +0.000 NA
ATOM     11  C   UNL     1       6.382   4.414  15.714  0.00  0.00    +0.000 A 
ATOM     12  O   UNL     1       5.059   4.275  16.044  0.00  0.00    +0.000 OA
BRANCH  11  13
ATOM     13  C   UNL     1       6.719   4.400  14.297  0.00  0.00    +0.000 A 
ATOM     14  C   UNL     1       6.106   3.482  13.441  0.00  0.00    +0.000 A 
ATOM     15  C   UNL     1       6.417   3.519  12.092  0.00  0.00    +0.000 A 
ATOM     16  N   UNL     1       7.290   4.392  11.549  0.00  0.00    +0.000 NA
ATOM     17  C   UNL     1       7.881   5.266  12.390  0.00  0.00    +0.000 A 
ATOM     18  C   UNL     1       7.634   5.307  13.752  0.00  0.00    +0.000 A 
ENDBRANCH  11  13
ENDBRANCH   5   8
BRANCH   6  19
ATOM     19  C   UNL     1       3.451   3.248  20.480  0.00  0.00    +0.000 C 
BRANCH  19  20
ATOM     20  C   UNL     1       2.133   3.644  21.079  0.00  0.00    +0.000 C 
ATOM     21  C   UNL     1       0.850   3.166  20.440  0.00  0.00    +0.000 C 
ATOM     22  C   UNL     1       1.265   2.621  21.775  0.00  0.00    +0.000 C 
ENDBRANCH  19  20
ENDBRANCH   6  19
TORSDOF 4
ENDMDL
MODEL 3
REMARK VINA RESULT:      -7.3      3.607      7.554
REMARK  Name = 
REMARK  4 active torsions:
REMARK  status: ('A' for Active; 'I' for Inactive)
REMARK    1  A    between atoms: C_5  and  C_6
REMARK    2  A    between atoms: C_9  and  C_10
REMARK    3  A    between atoms: N_17  and  C_18
REMARK    4  A    between atoms: C_18  and  C_19
REMARK                            x       y       z     vdW  Elec       q    Type
REMARK                         _______ _______ _______ _____ _____    ______ ____
ROOT
ATOM      1  F   UNL     1       1.662   3.044  19.047  0.00  0.00    +0.000 F 
ATOM      2  C   UNL     1       2.025   4.335  19.193  0.00  0.00    +0.000 C 
ATOM      3  F   UNL     1       0.986   4.989  19.755  0.00  0.00    +0.000 F 
ATOM      4  C   UNL     1       2.396   4.947  17.871  0.00  0.00    +0.000 C 
ATOM      5  C   UNL     1       3.319   6.094  18.273  0.00  0.00    +0.000 C 
ATOM      6  N   UNL     1       4.031   5.654  19.503  0.00  0.00    +0.000 NA
ATOM      7  C   UNL     1       3.288   4.480  20.032  0.00  0.00    +0.000 C 
ENDROOT
BRANCH   5   8
ATOM      8  C   UNL     1       2.540   7.363  18.488  0.00  0.00    +0.000 A 
ATOM      9  N   UNL     1       2.097   8.223  17.595  0.00  0.00    +0.000 NA
ATOM     10  N   UNL     1       1.389   9.181  18.295  0.00  0.00    +0.000 NA
ATOM     11  C   UNL     1       1.444   8.837  19.566  0.00  0.00    +0.000 A 
ATOM     12  O   UNL     1       2.166   7.689  19.766  0.00  0.00    +0.000 OA
BRANCH  11  13
ATOM     13  C   UNL     1       0.836   9.453  20.738  0.00  0.00    +0.000 A 
ATOM     14  C   UNL     1       0.858   8.790  21.968  0.00  0.00    +0.000 A 
ATOM     15  C   UNL     1       0.306   9.419  23.072  0.00  0.00    +0.000 A 
ATOM     16  N   UNL     1      -0.262  10.641  23.031  0.00  0.00    +0.000 NA
ATOM     17  C   UNL     1      -0.284  11.264  21.835  0.00  0.00    +0.000 A 
ATOM     18  C   UNL     1       0.242  10.718  20.676  0.00  0.00    +0.000 A 
ENDBRANCH  11  13
ENDBRANCH   5   8
BRANCH   6  19
ATOM     19  C   UNL     1       5.444   5.336  19.301  0.00  0.00    +0.000 C 
BRANCH  19  20
ATOM     20  C   UNL     1       5.892   5.692  17.914  0.00  0.00    +0.000 C 
ATOM     21  C   UNL     1       7.095   6.587  17.726  0.00  0.00    +0.000 C 
ATOM     22  C   UNL     1       7.181   5.135  17.354  0.00  0.00    +0.000 C 
ENDBRANCH  19  20
ENDBRANCH   6  19
TORSDOF 4
ENDMDL
MODEL 4
REMARK VINA RESULT:      -7.2      3.546      7.481
REMARK  Name = 
REMARK  4 active torsions:
REMARK  status: ('A' for Active; 'I' for Inactive)
REMARK    1  A    between atoms: C_5  and  C_6
REMARK    2  A    between atoms: C_9  and  C_10
REMARK    3  A    between atoms: N_17  and  C_18
REMARK    4  A    between atoms: C_18  and  C_19
REMARK                            x       y       z     vdW  Elec       q    Type
REMARK                         _______ _______ _______ _____ _____    ______ ____
ROOT
ATOM      1  F   UNL     1       1.578   2.980  19.008  0.00  0.00    +0.000 F 
ATOM      2  C   UNL     1       2.001   4.248  19.181  0.00  0.00    +0.000 C 
ATOM      3  F   UNL     1       0.979   4.947  19.721  0.00  0.00    +0.000 F 
ATOM      4  C   UNL     1       2.442   4.856  17.879  0.00  0.00    +0.000 C 
ATOM      5  C   UNL     1       3.409   5.951  18.323  0.00  0.00    +0.000 C 
ATOM      6  N   UNL     1       4.059   5.461  19.568  0.00  0.00    +0.000 NA
ATOM      7  C   UNL     1       3.243   4.321  20.060  0.00  0.00    +0.000 C 
ENDROOT
BRANCH   5   8
ATOM      8  C   UNL     1       2.688   7.254  18.532  0.00  0.00    +0.000 A 
ATOM      9  N   UNL     1       2.346   8.163  17.641  0.00  0.00    +0.000 NA
ATOM     10  N   UNL     1       1.650   9.139  18.328  0.00  0.00    +0.000 NA
ATOM     11  C   UNL     1       1.610   8.757  19.589  0.00  0.00    +0.000 A 
ATOM     12  O   UNL     1       2.255   7.566  19.795  0.00  0.00    +0.000 OA
BRANCH  11  13
ATOM     13  C   UNL     1       0.966   9.373  20.741  0.00  0.00    +0.000 A 
ATOM     14  C   UNL     1       0.142  10.489  20.569  0.00  0.00    +0.000 A 
ATOM     15  C   UNL     1      -0.489  11.028  21.678  0.00  0.00    +0.000 A 
ATOM     16  N   UNL     1      -0.350  10.541  22.928  0.00  0.00    +0.000 NA
ATOM     17  C   UNL     1       0.456   9.470  23.079  0.00  0.00    +0.000 A 
ATOM     18  C   UNL     1       1.128   8.861  22.032  0.00  0.00    +0.000 A 
ENDBRANCH  11  13
ENDBRANCH   5   8
BRANCH   6  19
ATOM     19  C   UNL     1       5.460   5.075  19.405  0.00  0.00    +0.000 C 
BRANCH  19  20
ATOM     20  C   UNL     1       6.005   5.535  18.085  0.00  0.00    +0.000 C 
ATOM     21  C   UNL     1       7.241   6.403  18.049  0.00  0.00    +0.000 C 
ATOM     22  C   UNL     1       7.310   4.987  17.556  0.00  0.00    +0.000 C 
ENDBRANCH  19  20
ENDBRANCH   6  19
TORSDOF 4
ENDMDL
MODEL 5
REMARK VINA RESULT:      -7.2      3.802      7.787
REMARK  Name = 
REMARK  4 active torsions:
REMARK  status: ('A' for Active; 'I' for Inactive)
REMARK    1  A    between atoms: C_5  and  C_6
REMARK    2  A    between atoms: C_9  and  C_10
REMARK    3  A    between atoms: N_17  and  C_18
REMARK    4  A    between atoms: C_18  and  C_19
REMARK                            x       y       z     vdW  Elec       q    Type
REMARK                         _______ _______ _______ _____ _____    ______ ____
ROOT
ATOM      1  F   UNL     1       6.519   5.446  17.845  0.00  0.00    +0.000 F 
ATOM      2  C   UNL     1       5.248   5.896  17.866  0.00  0.00    +0.000 C 
ATOM      3  F   UNL     1       5.275   7.207  17.544  0.00  0.00    +0.000 F 
ATOM      4  C   UNL     1       4.620   5.685  19.216  0.00  0.00    +0.000 C 
ATOM      5  C   UNL     1       3.128   5.651  18.896  0.00  0.00    +0.000 C 
ATOM      6  N   UNL     1       2.999   5.064  17.536  0.00  0.00    +0.000 NA
ATOM      7  C   UNL     1       4.350   5.113  16.917  0.00  0.00    +0.000 C 
ENDROOT
BRANCH   5   8
ATOM      8  C   UNL     1       2.527   7.027  18.982  0.00  0.00    +0.000 A 
ATOM      9  N   UNL     1       2.332   7.906  18.019  0.00  0.00    +0.000 NA
ATOM     10  N   UNL     1       1.695   8.985  18.601  0.00  0.00    +0.000 NA
ATOM     11  C   UNL     1       1.539   8.689  19.876  0.00  0.00    +0.000 A 
ATOM     12  O   UNL     1       2.050   7.458  20.193  0.00  0.00    +0.000 OA
BRANCH  11  13
ATOM     13  C   UNL     1       0.889   9.435  20.945  0.00  0.00    +0.000 A 
ATOM     14  C   UNL     1       0.466  10.748  20.725  0.00  0.00    +0.000 A 
ATOM     15  C   UNL     1      -0.185  11.418  21.748  0.00  0.00    +0.000 A 
ATOM     16  N   UNL     1      -0.433  10.877  22.958  0.00  0.00    +0.000 NA
ATOM     17  C   UNL     1      -0.010   9.611  23.158  0.00  0.00    +0.000 A 
ATOM     18  C   UNL     1       0.649   8.861  22.198  0.00  0.00    +0.000 A 
ENDBRANCH  11  13
ENDBRANCH   5   8
BRANCH   6  19
ATOM     19  C   UNL     1       2.459   3.705  17.514  0.00  0.00    +0.000 C 
BRANCH  19  20
ATOM     20  C   UNL     1       1.634   3.424  18.735  0.00  0.00    +0.000 C 
ATOM     21  C   UNL     1       0.724   2.218  18.760  0.00  0.00    +0.000 C 
ATOM     22  C   UNL     1       1.950   2.244  19.625  0.00  0.00    +0.000 C 
ENDBRANCH  19  20
ENDBRANCH   6  19
TORSDOF 4
ENDMDL
MODEL 6
REMARK VINA RESULT:      -7.1      1.205      1.471
REMARK  Name = 
REMARK  4 active torsions:
REMARK  status: ('A' for Active; 'I' for Inactive)
REMARK    1  A    between atoms: C_5  and  C_6
REMARK    2  A    between atoms: C_9  and  C_10
REMARK    3  A    between atoms: N_17  and  C_18
REMARK    4  A    between atoms: C_18  and  C_19
REMARK                            x       y       z     vdW  Elec       q    Type
REMARK                         _______ _______ _______ _____ _____    ______ ____
ROOT
ATOM      1  F   UNL     1       3.094   0.741  18.862  0.00  0.00    +0.000 F 
ATOM      2  C   UNL     1       3.611   1.835  18.265  0.00  0.00    +0.000 C 
ATOM      3  F   UNL     1       4.430   1.412  17.279  0.00  0.00    +0.000 F 
ATOM      4  C   UNL     1       4.353   2.692  19.252  0.00  0.00    +0.000 C 
ATOM      5  C   UNL     1       4.310   4.074  18.605  0.00  0.00    +0.000 C 
ATOM      6  N   UNL     1       3.030   4.148  17.851  0.00  0.00    +0.000 NA
ATOM      7  C   UNL     1       2.525   2.756  17.724  0.00  0.00    +0.000 C 
ENDROOT
BRANCH   5   8
ATOM      8  C   UNL     1       5.507   4.292  17.720  0.00  0.00    +0.000 A 
ATOM      9  N   UNL     1       6.770   4.446  18.060  0.00  0.00    +0.000 NA
ATOM     10  N   UNL     1       7.481   4.550  16.880  0.00  0.00    +0.000 NA
ATOM     11  C   UNL     1       6.604   4.447  15.901  0.00  0.00    +0.000 A 
ATOM     12  O   UNL     1       5.323   4.285  16.362  0.00  0.00    +0.000 OA
BRANCH  11  13
ATOM     13  C   UNL     1       6.798   4.437  14.458  0.00  0.00    +0.000 A 
ATOM     14  C   UNL     1       7.674   5.349  13.863  0.00  0.00    +0.000 A 
ATOM     15  C   UNL     1       7.869   5.289  12.493  0.00  0.00    +0.000 A 
ATOM     16  N   UNL     1       7.253   4.399  11.688  0.00  0.00    +0.000 NA
ATOM     17  C   UNL     1       6.403   3.532  12.276  0.00  0.00    +0.000 A 
ATOM     18  C   UNL     1       6.144   3.513  13.636  0.00  0.00    +0.000 A 
ENDBRANCH  11  13
ENDBRANCH   5   8
BRANCH   6  19
ATOM     19  C   UNL     1       2.024   5.021  18.455  0.00  0.00    +0.000 C 
BRANCH  19  20
ATOM     20  C   UNL     1       2.478   5.540  19.787  0.00  0.00    +0.000 C 
ATOM     21  C   UNL     1       1.541   6.385  20.618  0.00  0.00    +0.000 C 
ATOM     22  C   UNL     1       1.890   4.996  21.068  0.00  0.00    +0.000 C 
ENDBRANCH  19  20
ENDBRANCH   6  19
TORSDOF 4
ENDMDL
MODEL 7
REMARK VINA RESULT:      -7.0      0.634      1.286
REMARK  Name = 
REMARK  4 active torsions:
REMARK  status: ('A' for Active; 'I' for Inactive)
REMARK    1  A    between atoms: C_5  and  C_6
REMARK    2  A    between atoms: C_9  and  C_10
REMARK    3  A    between atoms: N_17  and  C_18
REMARK    4  A    between atoms: C_18  and  C_19
REMARK                            x       y       z     vdW  Elec       q    Type
REMARK                         _______ _______ _______ _____ _____    ______ ____
ROOT
ATOM      1  F   UNL     1       2.652   2.263  19.730  0.00  0.00    +0.000 F 
ATOM      2  C   UNL     1       3.386   3.111  18.980  0.00  0.00    +0.000 C 
ATOM      3  F   UNL     1       3.991   2.384  18.018  0.00  0.00    +0.000 F 
ATOM      4  C   UNL     1       4.396   3.842  19.820  0.00  0.00    +0.000 C 
ATOM      5  C   UNL     1       4.660   5.109  19.011  0.00  0.00    +0.000 C 
ATOM      6  N   UNL     1       3.389   5.438  18.312  0.00  0.00    +0.000 NA
ATOM      7  C   UNL     1       2.535   4.223  18.379  0.00  0.00    +0.000 C 
ENDROOT
BRANCH   5   8
ATOM      8  C   UNL     1       5.802   4.908  18.053  0.00  0.00    +0.000 A 
ATOM      9  N   UNL     1       7.073   4.681  18.316  0.00  0.00    +0.000 NA
ATOM     10  N   UNL     1       7.698   4.507  17.097  0.00  0.00    +0.000 NA
ATOM     11  C   UNL     1       6.766   4.635  16.174  0.00  0.00    +0.000 A 
ATOM     12  O   UNL     1       5.532   4.896  16.709  0.00  0.00    +0.000 OA
BRANCH  11  13
ATOM     13  C   UNL     1       6.848   4.500  14.725  0.00  0.00    +0.000 A 
ATOM     14  C   UNL     1       6.006   3.607  14.057  0.00  0.00    +0.000 A 
ATOM     15  C   UNL     1       6.079   3.530  12.676  0.00  0.00    +0.000 A 
ATOM     16  N   UNL     1       6.926   4.268  11.929  0.00  0.00    +0.000 NA
ATOM     17  C   UNL     1       7.738   5.118  12.590  0.00  0.00    +0.000 A 
ATOM     18  C   UNL     1       7.739   5.266  13.967  0.00  0.00    +0.000 A 
ENDBRANCH  11  13
ENDBRANCH   5   8
BRANCH   6  19
ATOM     19  C   UNL     1       2.689   6.604  18.849  0.00  0.00    +0.000 C 
BRANCH  19  20
ATOM     20  C   UNL     1       2.640   7.721  17.848  0.00  0.00    +0.000 C 
ATOM     21  C   UNL     1       1.346   8.470  17.629  0.00  0.00    +0.000 C 
ATOM     22  C   UNL     1       2.500   9.156  18.300  0.00  0.00    +0.000 C 
ENDBRANCH  19  20
ENDBRANCH   6  19
TORSDOF 4
ENDMDL
MODEL 8
REMARK VINA RESULT:      -7.0      2.802      6.668
REMARK  Name = 
REMARK  4 active torsions:
REMARK  status: ('A' for Active; 'I' for Inactive)
REMARK    1  A    between atoms: C_5  and  C_6
REMARK    2  A    between atoms: C_9  and  C_10
REMARK    3  A    between atoms: N_17  and  C_18
REMARK    4  A    between atoms: C_18  and  C_19
REMARK                            x       y       z     vdW  Elec       q    Type
REMARK                         _______ _______ _______ _____ _____    ______ ____
ROOT
ATOM      1  F   UNL     1       8.249   6.565  18.303  0.00  0.00    +0.000 F 
ATOM      2  C   UNL     1       7.157   6.060  17.695  0.00  0.00    +0.000 C 
ATOM      3  F   UNL     1       6.078   6.443  18.410  0.00  0.00    +0.000 F 
ATOM      4  C   UNL     1       7.235   4.562  17.597  0.00  0.00    +0.000 C 
ATOM      5  C   UNL     1       6.323   4.248  16.414  0.00  0.00    +0.000 C 
ATOM      6  N   UNL     1       6.426   5.404  15.482  0.00  0.00    +0.000 NA
ATOM      7  C   UNL     1       7.049   6.517  16.246  0.00  0.00    +0.000 C 
ENDROOT
BRANCH   5   8
ATOM      8  C   UNL     1       4.910   4.010  16.871  0.00  0.00    +0.000 A 
ATOM      9  N   UNL     1       3.804   3.967  16.155  0.00  0.00    +0.000 NA
ATOM     10  N   UNL     1       2.784   3.657  17.033  0.00  0.00    +0.000 NA
ATOM     11  C   UNL     1       3.337   3.526  18.223  0.00  0.00    +0.000 A 
ATOM     12  O   UNL     1       4.690   3.742  18.198  0.00  0.00    +0.000 OA
BRANCH  11  13
ATOM     13  C   UNL     1       2.746   3.157  19.502  0.00  0.00    +0.000 A 
ATOM     14  C   UNL     1       3.531   2.553  20.488  0.00  0.00    +0.000 A 
ATOM     15  C   UNL     1       2.951   2.250  21.709  0.00  0.00    +0.000 A 
ATOM     16  N   UNL     1       1.659   2.499  22.005  0.00  0.00    +0.000 NA
ATOM     17  C   UNL     1       0.912   3.074  21.040  0.00  0.00    +0.000 A 
ATOM     18  C   UNL     1       1.402   3.414  19.790  0.00  0.00    +0.000 A 
ENDBRANCH  11  13
ENDBRANCH   5   8
BRANCH   6  19
ATOM     19  C   UNL     1       7.172   5.124  14.255  0.00  0.00    +0.000 C 
BRANCH  19  20
ATOM     20  C   UNL     1       6.716   3.844  13.618  0.00  0.00    +0.000 C 
ATOM     21  C   UNL     1       5.445   3.828  12.803  0.00  0.00    +0.000 C 
ATOM     22  C   UNL     1       6.771   3.668  12.118  0.00  0.00    +0.000 C 
ENDBRANCH  19  20
ENDBRANCH   6  19
TORSDOF 4
ENDMDL
MODEL 9
REMARK VINA RESULT:      -7.0      2.408      3.495
REMARK  Name = 
REMARK  4 active torsions:
REMARK  status: ('A' for Active; 'I' for Inactive)
REMARK    1  A    between atoms: C_5  and  C_6
REMARK    2  A    between atoms: C_9  and  C_10
REMARK    3  A    between atoms: N_17  and  C_18
REMARK    4  A    between atoms: C_18  and  C_19
REMARK                            x       y       z     vdW  Elec       q    Type
REMARK                         _______ _______ _______ _____ _____    ______ ____
ROOT
ATOM      1  F   UNL     1       1.392   8.356  17.941  0.00  0.00    +0.000 F 
ATOM      2  C   UNL     1       2.358   7.451  18.201  0.00  0.00    +0.000 C 
ATOM      3  F   UNL     1       3.508   7.922  17.674  0.00  0.00    +0.000 F 
ATOM      4  C   UNL     1       2.011   6.106  17.626  0.00  0.00    +0.000 C 
ATOM      5  C   UNL     1       2.818   5.145  18.495  0.00  0.00    +0.000 C 
ATOM      6  N   UNL     1       2.894   5.760  19.848  0.00  0.00    +0.000 NA
ATOM      7  C   UNL     1       2.503   7.185  19.694  0.00  0.00    +0.000 C 
ENDROOT
BRANCH   5   8
ATOM      8  C   UNL     1       4.179   4.897  17.905  0.00  0.00    +0.000 A 
ATOM      9  N   UNL     1       5.302   4.582  18.518  0.00  0.00    +0.000 NA
ATOM     10  N   UNL     1       6.248   4.401  17.528  0.00  0.00    +0.000 NA
ATOM     11  C   UNL     1       5.637   4.612  16.379  0.00  0.00    +0.000 A 
ATOM     12  O   UNL     1       4.316   4.937  16.541  0.00  0.00    +0.000 OA
BRANCH  11  13
ATOM     13  C   UNL     1       6.134   4.510  15.013  0.00  0.00    +0.000 A 
ATOM     14  C   UNL     1       7.269   5.226  14.626  0.00  0.00    +0.000 A 
ATOM     15  C   UNL     1       7.742   5.077  13.333  0.00  0.00    +0.000 A 
ATOM     16  N   UNL     1       7.163   4.280  12.412  0.00  0.00    +0.000 NA
ATOM     17  C   UNL     1       6.062   3.602  12.798  0.00  0.00    +0.000 A 
ATOM     18  C   UNL     1       5.516   3.685  14.068  0.00  0.00    +0.000 A 
ENDBRANCH  11  13
ENDBRANCH   5   8
BRANCH   6  19
ATOM     19  C   UNL     1       2.075   5.095  20.860  0.00  0.00    +0.000 C 
BRANCH  19  20
ATOM     20  C   UNL     1       1.893   3.638  20.547  0.00  0.00    +0.000 C 
ATOM     21  C   UNL     1       2.821   2.620  21.167  0.00  0.00    +0.000 C 
ATOM     22  C   UNL     1       1.385   2.681  21.599  0.00  0.00    +0.000 C 
ENDBRANCH  19  20
ENDBRANCH   6  19
TORSDOF 4
ENDMDL
