MODEL 1
REMARK VINA RESULT:      -7.2      0.000      0.000
REMARK  Name = 
REMARK  9 active torsions:
REMARK  status: ('A' for Active; 'I' for Inactive)
REMARK    1  A    between atoms: C_1  and  C_2
REMARK    2  A    between atoms: N_7  and  C_8
REMARK    3  A    between atoms: C_8  and  C_9
REMARK    4  A    between atoms: C_9  and  N_10
REMARK    5  A    between atoms: C_11  and  C_13
REMARK    6  A    between atoms: C_13  and  C_14
REMARK    7  A    between atoms: C_14  and  N_15
REMARK    8  A    between atoms: C_16  and  C_17
REMARK    9  A    between atoms: C_19  and  C_20
REMARK                            x       y       z     vdW  Elec       q    Type
REMARK                         _______ _______ _______ _____ _____    ______ ____
ROOT
ATOM      1  N   UNL     1       6.212   4.078  17.915  0.00  0.00    +0.000 N 
ATOM      2  C   UNL     1       5.737   4.086  19.206  0.00  0.00    +0.000 C 
ATOM      3  O   UNL     1       6.158   4.854  20.066  0.00  0.00    +0.000 OA
ATOM      4  H   UNL     1       5.973   3.353  17.264  0.00  0.00    +0.000 HD
ENDROOT
BRANCH   1   5
ATOM      5  C   UNL     1       7.334   4.896  17.474  0.00  0.00    +0.000 C 
BRANCH   5   6
ATOM      6  C   UNL     1       6.937   6.010  16.499  0.00  0.00    +0.000 C 
BRANCH   6  13
ATOM      7  C   UNL     1       4.515   3.134  11.541  0.00  0.00    +0.000 C 
ATOM      8  C   UNL     1       5.565   3.811  12.368  0.00  0.00    +0.000 A 
ATOM      9  C   UNL     1       6.874   3.937  11.912  0.00  0.00    +0.000 A 
ATOM     10  C   UNL     1       7.790   4.573  12.728  0.00  0.00    +0.000 A 
ATOM     11  N   UNL     1       7.495   5.081  13.944  0.00  0.00    +0.000 NA
ATOM     12  C   UNL     1       6.233   4.946  14.399  0.00  0.00    +0.000 A 
ATOM     13  N   UNL     1       5.885   5.522  15.608  0.00  0.00    +0.000 N 
ATOM     14  C   UNL     1       5.249   4.329  13.629  0.00  0.00    +0.000 A 
ATOM     15  H   UNL     1       5.019   5.237  16.045  0.00  0.00    +0.000 HD
ENDBRANCH   6  13
ENDBRANCH   5   6
ENDBRANCH   1   5
BRANCH   2  16
ATOM     16  C   UNL     1       4.615   3.094  19.526  0.00  0.00    +0.000 C 
BRANCH  16  17
ATOM     17  C   UNL     1       3.288   3.458  18.873  0.00  0.00    +0.000 C 
BRANCH  17  18
ATOM     18  N   UNL     1       2.681   4.695  19.335  0.00  0.00    +0.000 N 
ATOM     19  C   UNL     1       2.023   4.761  20.557  0.00  0.00    +0.000 A 
ATOM     20  C   UNL     1       1.793   3.556  21.428  0.00  0.00    +0.000 C 
ATOM     21  C   UNL     1       1.571   5.944  20.988  0.00  0.00    +0.000 A 
ATOM     22  C   UNL     1       1.841   7.109  20.133  0.00  0.00    +0.000 A 
ATOM     23  C   UNL     1       1.354   8.452  20.608  0.00  0.00    +0.000 C 
ATOM     24  N   UNL     1       2.441   7.049  18.991  0.00  0.00    +0.000 NA
ATOM     25  C   UNL     1       2.893   5.844  18.544  0.00  0.00    +0.000 A 
ATOM     26  O   UNL     1       3.494   5.756  17.468  0.00  0.00    +0.000 OA
ENDBRANCH  17  18
ENDBRANCH  16  17
ENDBRANCH   2  16
TORSDOF 6
ENDMDL
MODEL 2
REMARK VINA RESULT:      -7.0      4.765      6.859
REMARK  Name = 
REMARK  9 active torsions:
REMARK  status: ('A' for Active; 'I' for Inactive)
REMARK    1  A    between atoms: C_1  and  C_2
REMARK    2  A    between atoms: N_7  and  C_8
REMARK    3  A    between atoms: C_8  and  C_9
REMARK    4  A    between atoms: C_9  and  N_10
REMARK    5  A    between atoms: C_11  and  C_13
REMARK    6  A    between atoms: C_13  and  C_14
REMARK    7  A    between atoms: C_14  and  N_15
REMARK    8  A    between atoms: C_16  and  C_17
REMARK    9  A    between atoms: C_19  and  C_20
REMARK                            x       y       z     vdW  Elec       q    Type
REMARK                         _______ _______ _______ _____ _____    ______ ____
ROOT
ATOM      1  N   UNL     1       7.280   6.901  17.727  0.00  0.00    +0.000 N 
ATOM      2  C   UNL     1       7.104   5.748  16.997  0.00  0.00    +0.000 C 
ATOM      3  O   UNL     1       7.485   5.630  15.836  0.00  0.00    +0.000 OA
ATOM      4  H   UNL     1       6.835   7.041  18.616  0.00  0.00    +0.000 HD
ENDROOT
BRANCH   1   5
ATOM      5  C   UNL     1       7.826   8.126  17.161  0.00  0.00    +0.000 C 
BRANCH   5   6
ATOM      6  C   UNL     1       7.738   9.332  18.103  0.00  0.00    +0.000 C 
BRANCH   6  13
ATOM      7  C   UNL     1      12.333  13.289  19.496  0.00  0.00    +0.000 C 
ATOM      8  C   UNL     1      11.027  12.839  18.915  0.00  0.00    +0.000 A 
ATOM      9  C   UNL     1      10.168  13.736  18.288  0.00  0.00    +0.000 A 
ATOM     10  C   UNL     1       8.979  13.251  17.776  0.00  0.00    +0.000 A 
ATOM     11  N   UNL     1       8.597  11.958  17.847  0.00  0.00    +0.000 NA
ATOM     12  C   UNL     1       9.418  11.087  18.470  0.00  0.00    +0.000 A 
ATOM     13  N   UNL     1       9.086   9.744  18.491  0.00  0.00    +0.000 N 
ATOM     14  C   UNL     1      10.638  11.497  19.000  0.00  0.00    +0.000 A 
ATOM     15  H   UNL     1       9.576   9.138  19.136  0.00  0.00    +0.000 HD
ENDBRANCH   6  13
ENDBRANCH   5   6
ENDBRANCH   1   5
BRANCH   2  16
ATOM     16  C   UNL     1       6.425   4.581  17.719  0.00  0.00    +0.000 C 
BRANCH  16  17
ATOM     17  C   UNL     1       5.625   5.014  18.941  0.00  0.00    +0.000 C 
BRANCH  17  18
ATOM     18  N   UNL     1       4.275   4.483  19.025  0.00  0.00    +0.000 N 
ATOM     19  C   UNL     1       3.194   5.175  18.492  0.00  0.00    +0.000 A 
ATOM     20  C   UNL     1       3.318   6.553  17.898  0.00  0.00    +0.000 C 
ATOM     21  C   UNL     1       1.987   4.601  18.501  0.00  0.00    +0.000 A 
ATOM     22  C   UNL     1       1.902   3.241  19.055  0.00  0.00    +0.000 A 
ATOM     23  C   UNL     1       0.555   2.571  19.059  0.00  0.00    +0.000 C 
ATOM     24  N   UNL     1       2.903   2.600  19.562  0.00  0.00    +0.000 NA
ATOM     25  C   UNL     1       4.132   3.187  19.564  0.00  0.00    +0.000 A 
ATOM     26  O   UNL     1       5.115   2.591  20.019  0.00  0.00    +0.000 OA
ENDBRANCH  17  18
ENDBRANCH  16  17
ENDBRANCH   2  16
TORSDOF 6
ENDMDL
MODEL 3
REMARK VINA RESULT:      -6.8      2.526      4.658
REMARK  Name = 
REMARK  9 active torsions:
REMARK  status: ('A' for Active; 'I' for Inactive)
REMARK    1  A    between atoms: C_1  and  C_2
REMARK    2  A    between atoms: N_7  and  C_8
REMARK    3  A    between atoms: C_8  and  C_9
REMARK    4  A    between atoms: C_9  and  N_10
REMARK    5  A    between atoms: C_11  and  C_13
REMARK    6  A    between atoms: C_13  and  C_14
REMARK    7  A    between atoms: C_14  and  N_15
REMARK    8  A    between atoms: C_16  and  C_17
REMARK    9  A    between atoms: C_19  and  C_20
REMARK                            x       y       z     vdW  Elec       q    Type
REMARK                         _______ _______ _______ _____ _____    ______ ____
ROOT
ATOM      1  N   UNL     1       2.089   2.995  19.792  0.00  0.00    +0.000 N 
ATOM      2  C   UNL     1       1.716   4.234  19.323  0.00  0.00    +0.000 C 
ATOM      3  O   UNL     1       1.456   4.449  18.143  0.00  0.00    +0.000 OA
ATOM      4  H   UNL     1       2.444   2.862  20.721  0.00  0.00    +0.000 HD
ENDROOT
BRANCH   1   5
ATOM      5  C   UNL     1       2.322   1.852  18.920  0.00  0.00    +0.000 C 
BRANCH   5   6
ATOM      6  C   UNL     1       3.419   2.089  17.876  0.00  0.00    +0.000 C 
BRANCH   6  13
ATOM      7  C   UNL     1       7.636   6.640  18.341  0.00  0.00    +0.000 C 
ATOM      8  C   UNL     1       6.664   5.723  17.664  0.00  0.00    +0.000 A 
ATOM      9  C   UNL     1       6.389   5.837  16.305  0.00  0.00    +0.000 A 
ATOM     10  C   UNL     1       5.480   4.958  15.748  0.00  0.00    +0.000 A 
ATOM     11  N   UNL     1       4.841   3.991  16.441  0.00  0.00    +0.000 NA
ATOM     12  C   UNL     1       5.090   3.886  17.762  0.00  0.00    +0.000 A 
ATOM     13  N   UNL     1       4.506   2.858  18.480  0.00  0.00    +0.000 N 
ATOM     14  C   UNL     1       6.002   4.728  18.394  0.00  0.00    +0.000 A 
ATOM     15  H   UNL     1       4.515   2.912  19.490  0.00  0.00    +0.000 HD
ENDBRANCH   6  13
ENDBRANCH   5   6
ENDBRANCH   1   5
BRANCH   2  16
ATOM     16  C   UNL     1       1.608   5.352  20.364  0.00  0.00    +0.000 C 
BRANCH  16  17
ATOM     17  C   UNL     1       2.638   6.458  20.167  0.00  0.00    +0.000 C 
BRANCH  17  18
ATOM     18  N   UNL     1       2.109   7.732  19.710  0.00  0.00    +0.000 N 
ATOM     19  C   UNL     1       2.310   8.169  18.407  0.00  0.00    +0.000 A 
ATOM     20  C   UNL     1       3.168   7.426  17.419  0.00  0.00    +0.000 C 
ATOM     21  C   UNL     1       1.717   9.297  18.002  0.00  0.00    +0.000 A 
ATOM     22  C   UNL     1       0.856   9.982  18.977  0.00  0.00    +0.000 A 
ATOM     23  C   UNL     1       0.168  11.245  18.536  0.00  0.00    +0.000 C 
ATOM     24  N   UNL     1       0.678   9.585  20.193  0.00  0.00    +0.000 NA
ATOM     25  C   UNL     1       1.288   8.441  20.612  0.00  0.00    +0.000 A 
ATOM     26  O   UNL     1       1.118   8.020  21.762  0.00  0.00    +0.000 OA
ENDBRANCH  17  18
ENDBRANCH  16  17
ENDBRANCH   2  16
TORSDOF 6
ENDMDL
MODEL 4
REMARK VINA RESULT:      -6.8      3.566      5.693
REMARK  Name = 
REMARK  9 active torsions:
REMARK  status: ('A' for Active; 'I' for Inactive)
REMARK    1  A    between atoms: C_1  and  C_2
REMARK    2  A    between atoms: N_7  and  C_8
REMARK    3  A    between atoms: C_8  and  C_9
REMARK    4  A    between atoms: C_9  and  N_10
REMARK    5  A    between atoms: C_11  and  C_13
REMARK    6  A    between atoms: C_13  and  C_14
REMARK    7  A    between atoms: C_14  and  N_15
REMARK    8  A    between atoms: C_16  and  C_17
REMARK    9  A    between atoms: C_19  and  C_20
REMARK                            x       y       z     vdW  Elec       q    Type
REMARK                         _______ _______ _______ _____ _____    ______ ____
ROOT
ATOM      1  N   UNL     1       1.838   5.953  20.671  0.00  0.00    +0.000 N 
ATOM      2  C   UNL     1       1.868   7.264  20.253  0.00  0.00    +0.000 C 
ATOM      3  O   UNL     1       2.126   7.589  19.099  0.00  0.00    +0.000 OA
ATOM      4  H   UNL     1       1.776   5.704  21.641  0.00  0.00    +0.000 HD
ENDROOT
BRANCH   1   5
ATOM      5  C   UNL     1       2.222   4.837  19.817  0.00  0.00    +0.000 C 
BRANCH   5   6
ATOM      6  C   UNL     1       3.734   4.589  19.772  0.00  0.00    +0.000 C 
BRANCH   6  13
ATOM      7  C   UNL     1       6.074   3.886  14.050  0.00  0.00    +0.000 C 
ATOM      8  C   UNL     1       5.541   4.620  15.243  0.00  0.00    +0.000 A 
ATOM      9  C   UNL     1       5.495   6.010  15.276  0.00  0.00    +0.000 A 
ATOM     10  C   UNL     1       4.991   6.619  16.410  0.00  0.00    +0.000 A 
ATOM     11  N   UNL     1       4.540   5.948  17.491  0.00  0.00    +0.000 NA
ATOM     12  C   UNL     1       4.598   4.601  17.473  0.00  0.00    +0.000 A 
ATOM     13  N   UNL     1       4.073   3.887  18.536  0.00  0.00    +0.000 N 
ATOM     14  C   UNL     1       5.080   3.914  16.361  0.00  0.00    +0.000 A 
ATOM     15  H   UNL     1       4.313   2.908  18.622  0.00  0.00    +0.000 HD
ENDBRANCH   6  13
ENDBRANCH   5   6
ENDBRANCH   1   5
BRANCH   2  16
ATOM     16  C   UNL     1       1.528   8.322  21.307  0.00  0.00    +0.000 C 
BRANCH  16  17
ATOM     17  C   UNL     1       0.038   8.628  21.392  0.00  0.00    +0.000 C 
BRANCH  17  18
ATOM     18  N   UNL     1      -0.305  10.034  21.530  0.00  0.00    +0.000 N 
ATOM     19  C   UNL     1      -0.683  10.794  20.430  0.00  0.00    +0.000 A 
ATOM     20  C   UNL     1      -0.658  10.263  19.022  0.00  0.00    +0.000 C 
ATOM     21  C   UNL     1      -1.090  12.053  20.620  0.00  0.00    +0.000 A 
ATOM     22  C   UNL     1      -1.138  12.533  22.009  0.00  0.00    +0.000 A 
ATOM     23  C   UNL     1      -1.608  13.943  22.245  0.00  0.00    +0.000 C 
ATOM     24  N   UNL     1      -0.776  11.833  23.032  0.00  0.00    +0.000 NA
ATOM     25  C   UNL     1      -0.351  10.553  22.841  0.00  0.00    +0.000 A 
ATOM     26  O   UNL     1      -0.021   9.848  23.801  0.00  0.00    +0.000 OA
ENDBRANCH  17  18
ENDBRANCH  16  17
ENDBRANCH   2  16
TORSDOF 6
ENDMDL
MODEL 5
REMARK VINA RESULT:      -6.8      1.692      3.322
REMARK  Name = 
REMARK  9 active torsions:
REMARK  status: ('A' for Active; 'I' for Inactive)
REMARK    1  A    between atoms: C_1  and  C_2
REMARK    2  A    between atoms: N_7  and  C_8
REMARK    3  A    between atoms: C_8  and  C_9
REMARK    4  A    between atoms: C_9  and  N_10
REMARK    5  A    between atoms: C_11  and  C_13
REMARK    6  A    between atoms: C_13  and  C_14
REMARK    7  A    between atoms: C_14  and  N_15
REMARK    8  A    between atoms: C_16  and  C_17
REMARK    9  A    between atoms: C_19  and  C_20
REMARK                            x       y       z     vdW  Elec       q    Type
REMARK                         _______ _______ _______ _____ _____    ______ ____
ROOT
ATOM      1  N   UNL     1       5.824   6.858  17.722  0.00  0.00    +0.000 N 
ATOM      2  C   UNL     1       4.723   6.972  16.904  0.00  0.00    +0.000 C 
ATOM      3  O   UNL     1       4.772   6.790  15.692  0.00  0.00    +0.000 OA
ATOM      4  H   UNL     1       5.808   7.154  18.680  0.00  0.00    +0.000 HD
ENDROOT
BRANCH   1   5
ATOM      5  C   UNL     1       7.170   6.627  17.216  0.00  0.00    +0.000 C 
BRANCH   5   6
ATOM      6  C   UNL     1       7.541   5.143  17.113  0.00  0.00    +0.000 C 
BRANCH   6  13
ATOM      7  C   UNL     1       5.380   2.828  11.757  0.00  0.00    +0.000 C 
ATOM      8  C   UNL     1       6.229   3.681  12.649  0.00  0.00    +0.000 A 
ATOM      9  C   UNL     1       7.221   4.507  12.130  0.00  0.00    +0.000 A 
ATOM     10  C   UNL     1       7.966   5.265  13.012  0.00  0.00    +0.000 A 
ATOM     11  N   UNL     1       7.793   5.254  14.351  0.00  0.00    +0.000 NA
ATOM     12  C   UNL     1       6.846   4.442  14.863  0.00  0.00    +0.000 A 
ATOM     13  N   UNL     1       6.598   4.468  16.224  0.00  0.00    +0.000 N 
ATOM     14  C   UNL     1       6.045   3.657  14.037  0.00  0.00    +0.000 A 
ATOM     15  H   UNL     1       6.055   3.715  16.627  0.00  0.00    +0.000 HD
ENDBRANCH   6  13
ENDBRANCH   5   6
ENDBRANCH   1   5
BRANCH   2  16
ATOM     16  C   UNL     1       3.397   7.313  17.591  0.00  0.00    +0.000 C 
BRANCH  16  17
ATOM     17  C   UNL     1       3.177   6.544  18.887  0.00  0.00    +0.000 C 
BRANCH  17  18
ATOM     18  N   UNL     1       3.277   5.098  18.782  0.00  0.00    +0.000 N 
ATOM     19  C   UNL     1       2.327   4.359  18.088  0.00  0.00    +0.000 A 
ATOM     20  C   UNL     1       1.085   4.971  17.500  0.00  0.00    +0.000 C 
ATOM     21  C   UNL     1       2.516   3.044  17.929  0.00  0.00    +0.000 A 
ATOM     22  C   UNL     1       3.755   2.480  18.483  0.00  0.00    +0.000 A 
ATOM     23  C   UNL     1       3.994   1.006  18.301  0.00  0.00    +0.000 C 
ATOM     24  N   UNL     1       4.635   3.162  19.139  0.00  0.00    +0.000 NA
ATOM     25  C   UNL     1       4.440   4.499  19.312  0.00  0.00    +0.000 A 
ATOM     26  O   UNL     1       5.274   5.186  19.913  0.00  0.00    +0.000 OA
ENDBRANCH  17  18
ENDBRANCH  16  17
ENDBRANCH   2  16
TORSDOF 6
ENDMDL
MODEL 6
REMARK VINA RESULT:      -6.7      5.723      7.843
REMARK  Name = 
REMARK  9 active torsions:
REMARK  status: ('A' for Active; 'I' for Inactive)
REMARK    1  A    between atoms: C_1  and  C_2
REMARK    2  A    between atoms: N_7  and  C_8
REMARK    3  A    between atoms: C_8  and  C_9
REMARK    4  A    between atoms: C_9  and  N_10
REMARK    5  A    between atoms: C_11  and  C_13
REMARK    6  A    between atoms: C_13  and  C_14
REMARK    7  A    between atoms: C_14  and  N_15
REMARK    8  A    between atoms: C_16  and  C_17
REMARK    9  A    between atoms: C_19  and  C_20
REMARK                            x       y       z     vdW  Elec       q    Type
REMARK                         _______ _______ _______ _____ _____    ______ ____
ROOT
ATOM      1  N   UNL     1       8.482   8.210  18.692  0.00  0.00    +0.000 N 
ATOM      2  C   UNL     1       7.907   7.168  18.000  0.00  0.00    +0.000 C 
ATOM      3  O   UNL     1       7.477   7.285  16.857  0.00  0.00    +0.000 OA
ATOM      4  H   UNL     1       8.691   8.148  19.671  0.00  0.00    +0.000 HD
ENDROOT
BRANCH   1   5
ATOM      5  C   UNL     1       8.529   9.573  18.182  0.00  0.00    +0.000 C 
BRANCH   5   6
ATOM      6  C   UNL     1       9.400  10.514  19.022  0.00  0.00    +0.000 C 
BRANCH   6  13
ATOM      7  C   UNL     1      11.241  16.043  16.842  0.00  0.00    +0.000 C 
ATOM      8  C   UNL     1      10.389  15.074  17.602  0.00  0.00    +0.000 A 
ATOM      9  C   UNL     1       9.319  15.506  18.380  0.00  0.00    +0.000 A 
ATOM     10  C   UNL     1       8.577  14.555  19.054  0.00  0.00    +0.000 A 
ATOM     11  N   UNL     1       8.824  13.229  19.005  0.00  0.00    +0.000 NA
ATOM     12  C   UNL     1       9.869  12.805  18.266  0.00  0.00    +0.000 A 
ATOM     13  N   UNL     1      10.099  11.446  18.139  0.00  0.00    +0.000 N 
ATOM     14  C   UNL     1      10.657  13.701  17.548  0.00  0.00    +0.000 A 
ATOM     15  H   UNL     1      10.994  11.142  17.778  0.00  0.00    +0.000 HD
ENDBRANCH   6  13
ENDBRANCH   5   6
ENDBRANCH   1   5
BRANCH   2  16
ATOM     16  C   UNL     1       7.854   5.819  18.723  0.00  0.00    +0.000 C 
BRANCH  16  17
ATOM     17  C   UNL     1       7.380   4.678  17.831  0.00  0.00    +0.000 C 
BRANCH  17  18
ATOM     18  N   UNL     1       5.939   4.510  17.742  0.00  0.00    +0.000 N 
ATOM     19  C   UNL     1       5.295   4.458  16.512  0.00  0.00    +0.000 A 
ATOM     20  C   UNL     1       6.008   4.681  15.205  0.00  0.00    +0.000 C 
ATOM     21  C   UNL     1       3.984   4.198  16.476  0.00  0.00    +0.000 A 
ATOM     22  C   UNL     1       3.321   3.950  17.765  0.00  0.00    +0.000 A 
ATOM     23  C   UNL     1       1.849   3.639  17.745  0.00  0.00    +0.000 C 
ATOM     24  N   UNL     1       3.915   4.009  18.910  0.00  0.00    +0.000 NA
ATOM     25  C   UNL     1       5.248   4.284  18.951  0.00  0.00    +0.000 A 
ATOM     26  O   UNL     1       5.851   4.323  20.029  0.00  0.00    +0.000 OA
ENDBRANCH  17  18
ENDBRANCH  16  17
ENDBRANCH   2  16
TORSDOF 6
ENDMDL
MODEL 7
REMARK VINA RESULT:      -6.7      4.763      6.779
REMARK  Name = 
REMARK  9 active torsions:
REMARK  status: ('A' for Active; 'I' for Inactive)
REMARK    1  A    between atoms: C_1  and  C_2
REMARK    2  A    between atoms: N_7  and  C_8
REMARK    3  A    between atoms: C_8  and  C_9
REMARK    4  A    between atoms: C_9  and  N_10
REMARK    5  A    between atoms: C_11  and  C_13
REMARK    6  A    between atoms: C_13  and  C_14
REMARK    7  A    between atoms: C_14  and  N_15
REMARK    8  A    between atoms: C_16  and  C_17
REMARK    9  A    between atoms: C_19  and  C_20
REMARK                            x       y       z     vdW  Elec       q    Type
REMARK                         _______ _______ _______ _____ _____    ______ ____
ROOT
ATOM      1  N   UNL     1       7.011   6.770  17.701  0.00  0.00    +0.000 N 
ATOM      2  C   UNL     1       7.043   5.710  16.824  0.00  0.00    +0.000 C 
ATOM      3  O   UNL     1       7.585   5.772  15.725  0.00  0.00    +0.000 OA
ATOM      4  H   UNL     1       6.440   6.761  18.526  0.00  0.00    +0.000 HD
ENDROOT
BRANCH   1   5
ATOM      5  C   UNL     1       7.513   8.096  17.367  0.00  0.00    +0.000 C 
BRANCH   5   6
ATOM      6  C   UNL     1       8.393   8.713  18.458  0.00  0.00    +0.000 C 
BRANCH   6  13
ATOM      7  C   UNL     1      11.372  14.162  18.842  0.00  0.00    +0.000 C 
ATOM      8  C   UNL     1      10.647  12.948  19.336  0.00  0.00    +0.000 A 
ATOM      9  C   UNL     1      10.458  12.722  20.696  0.00  0.00    +0.000 A 
ATOM     10  C   UNL     1       9.782  11.579  21.079  0.00  0.00    +0.000 A 
ATOM     11  N   UNL     1       9.291  10.666  20.215  0.00  0.00    +0.000 NA
ATOM     12  C   UNL     1       9.485  10.870  18.896  0.00  0.00    +0.000 A 
ATOM     13  N   UNL     1       8.928   9.989  17.986  0.00  0.00    +0.000 N 
ATOM     14  C   UNL     1      10.147  12.004  18.431  0.00  0.00    +0.000 A 
ATOM     15  H   UNL     1       9.255  10.016  17.029  0.00  0.00    +0.000 HD
ENDBRANCH   6  13
ENDBRANCH   5   6
ENDBRANCH   1   5
BRANCH   2  16
ATOM     16  C   UNL     1       6.384   4.412  17.300  0.00  0.00    +0.000 C 
BRANCH  16  17
ATOM     17  C   UNL     1       5.004   4.183  16.697  0.00  0.00    +0.000 C 
BRANCH  17  18
ATOM     18  N   UNL     1       3.894   4.234  17.634  0.00  0.00    +0.000 N 
ATOM     19  C   UNL     1       3.410   3.082  18.241  0.00  0.00    +0.000 A 
ATOM     20  C   UNL     1       3.911   1.705  17.897  0.00  0.00    +0.000 C 
ATOM     21  C   UNL     1       2.458   3.190  19.173  0.00  0.00    +0.000 A 
ATOM     22  C   UNL     1       2.014   4.550  19.514  0.00  0.00    +0.000 A 
ATOM     23  C   UNL     1       0.955   4.694  20.572  0.00  0.00    +0.000 C 
ATOM     24  N   UNL     1       2.454   5.622  18.943  0.00  0.00    +0.000 NA
ATOM     25  C   UNL     1       3.416   5.514  17.985  0.00  0.00    +0.000 A 
ATOM     26  O   UNL     1       3.876   6.523  17.437  0.00  0.00    +0.000 OA
ENDBRANCH  17  18
ENDBRANCH  16  17
ENDBRANCH   2  16
TORSDOF 6
ENDMDL
MODEL 8
REMARK VINA RESULT:      -6.6      4.451      6.531
REMARK  Name = 
REMARK  9 active torsions:
REMARK  status: ('A' for Active; 'I' for Inactive)
REMARK    1  A    between atoms: C_1  and  C_2
REMARK    2  A    between atoms: N_7  and  C_8
REMARK    3  A    between atoms: C_8  and  C_9
REMARK    4  A    between atoms: C_9  and  N_10
REMARK    5  A    between atoms: C_11  and  C_13
REMARK    6  A    between atoms: C_13  and  C_14
REMARK    7  A    between atoms: C_14  and  N_15
REMARK    8  A    between atoms: C_16  and  C_17
REMARK    9  A    between atoms: C_19  and  C_20
REMARK                            x       y       z     vdW  Elec       q    Type
REMARK                         _______ _______ _______ _____ _____    ______ ____
ROOT
ATOM      1  N   UNL     1       7.009   6.195  17.534  0.00  0.00    +0.000 N 
ATOM      2  C   UNL     1       7.193   4.879  17.174  0.00  0.00    +0.000 C 
ATOM      3  O   UNL     1       8.143   4.208  17.563  0.00  0.00    +0.000 OA
ATOM      4  H   UNL     1       6.320   6.776  17.095  0.00  0.00    +0.000 HD
ENDROOT
BRANCH   1   5
ATOM      5  C   UNL     1       7.981   6.948  18.315  0.00  0.00    +0.000 C 
BRANCH   5   6
ATOM      6  C   UNL     1       8.036   8.437  17.955  0.00  0.00    +0.000 C 
BRANCH   6  13
ATOM      7  C   UNL     1      10.723  13.296  20.762  0.00  0.00    +0.000 C 
ATOM      8  C   UNL     1       9.972  12.561  19.694  0.00  0.00    +0.000 A 
ATOM      9  C   UNL     1       9.460  13.224  18.583  0.00  0.00    +0.000 A 
ATOM     10  C   UNL     1       8.778  12.482  17.638  0.00  0.00    +0.000 A 
ATOM     11  N   UNL     1       8.576  11.150  17.725  0.00  0.00    +0.000 NA
ATOM     12  C   UNL     1       9.054  10.504  18.808  0.00  0.00    +0.000 A 
ATOM     13  N   UNL     1       8.927   9.129  18.885  0.00  0.00    +0.000 N 
ATOM     14  C   UNL     1       9.764  11.180  19.797  0.00  0.00    +0.000 A 
ATOM     15  H   UNL     1       9.082   8.681  19.779  0.00  0.00    +0.000 HD
ENDBRANCH   6  13
ENDBRANCH   5   6
ENDBRANCH   1   5
BRANCH   2  16
ATOM     16  C   UNL     1       6.121   4.265  16.269  0.00  0.00    +0.000 C 
BRANCH  16  17
ATOM     17  C   UNL     1       4.840   5.089  16.211  0.00  0.00    +0.000 C 
BRANCH  17  18
ATOM     18  N   UNL     1       3.951   4.946  17.351  0.00  0.00    +0.000 N 
ATOM     19  C   UNL     1       3.387   6.056  17.968  0.00  0.00    +0.000 A 
ATOM     20  C   UNL     1       3.735   7.469  17.585  0.00  0.00    +0.000 C 
ATOM     21  C   UNL     1       2.494   5.872  18.946  0.00  0.00    +0.000 A 
ATOM     22  C   UNL     1       2.148   4.481  19.275  0.00  0.00    +0.000 A 
ATOM     23  C   UNL     1       1.133   4.252  20.362  0.00  0.00    +0.000 C 
ATOM     24  N   UNL     1       2.679   3.447  18.711  0.00  0.00    +0.000 NA
ATOM     25  C   UNL     1       3.597   3.632  17.722  0.00  0.00    +0.000 A 
ATOM     26  O   UNL     1       4.105   2.664  17.145  0.00  0.00    +0.000 OA
ENDBRANCH  17  18
ENDBRANCH  16  17
ENDBRANCH   2  16
TORSDOF 6
ENDMDL
MODEL 9
REMARK VINA RESULT:      -6.6      4.597      6.527
REMARK  Name = 
REMARK  9 active torsions:
REMARK  status: ('A' for Active; 'I' for Inactive)
REMARK    1  A    between atoms: C_1  and  C_2
REMARK    2  A    between atoms: N_7  and  C_8
REMARK    3  A    between atoms: C_8  and  C_9
REMARK    4  A    between atoms: C_9  and  N_10
REMARK    5  A    between atoms: C_11  and  C_13
REMARK    6  A    between atoms: C_13  and  C_14
REMARK    7  A    between atoms: C_14  and  N_15
REMARK    8  A    between atoms: C_16  and  C_17
REMARK    9  A    between atoms: C_19  and  C_20
REMARK                            x       y       z     vdW  Elec       q    Type
REMARK                         _______ _______ _______ _____ _____    ______ ____
ROOT
ATOM      1  N   UNL     1       7.417   6.458  17.458  0.00  0.00    +0.000 N 
ATOM      2  C   UNL     1       7.087   5.142  17.691  0.00  0.00    +0.000 C 
ATOM      3  O   UNL     1       7.297   4.583  18.763  0.00  0.00    +0.000 OA
ATOM      4  H   UNL     1       7.383   6.861  16.539  0.00  0.00    +0.000 HD
ENDROOT
BRANCH   1   5
ATOM      5  C   UNL     1       8.148   7.276  18.415  0.00  0.00    +0.000 C 
BRANCH   5   6
ATOM      6  C   UNL     1       8.343   8.728  17.961  0.00  0.00    +0.000 C 
BRANCH   6  13
ATOM      7  C   UNL     1      10.460  13.718  21.014  0.00  0.00    +0.000 C 
ATOM      8  C   UNL     1      10.303  12.764  19.869  0.00  0.00    +0.000 A 
ATOM      9  C   UNL     1      10.918  12.998  18.643  0.00  0.00    +0.000 A 
ATOM     10  C   UNL     1      10.728  12.076  17.632  0.00  0.00    +0.000 A 
ATOM     11  N   UNL     1       9.981  10.958  17.759  0.00  0.00    +0.000 NA
ATOM     12  C   UNL     1       9.368  10.734  18.939  0.00  0.00    +0.000 A 
ATOM     13  N   UNL     1       8.659   9.560  19.120  0.00  0.00    +0.000 N 
ATOM     14  C   UNL     1       9.522  11.611  20.010  0.00  0.00    +0.000 A 
ATOM     15  H   UNL     1       8.028   9.496  19.908  0.00  0.00    +0.000 HD
ENDBRANCH   6  13
ENDBRANCH   5   6
ENDBRANCH   1   5
BRANCH   2  16
ATOM     16  C   UNL     1       6.406   4.397  16.540  0.00  0.00    +0.000 C 
BRANCH  16  17
ATOM     17  C   UNL     1       5.032   4.957  16.192  0.00  0.00    +0.000 C 
BRANCH  17  18
ATOM     18  N   UNL     1       4.096   5.053  17.299  0.00  0.00    +0.000 N 
ATOM     19  C   UNL     1       3.547   3.916  17.879  0.00  0.00    +0.000 A 
ATOM     20  C   UNL     1       3.785   2.530  17.343  0.00  0.00    +0.000 C 
ATOM     21  C   UNL     1       2.772   4.048  18.961  0.00  0.00    +0.000 A 
ATOM     22  C   UNL     1       2.586   5.410  19.482  0.00  0.00    +0.000 A 
ATOM     23  C   UNL     1       1.731   5.578  20.709  0.00  0.00    +0.000 C 
ATOM     24  N   UNL     1       3.086   6.470  18.939  0.00  0.00    +0.000 NA
ATOM     25  C   UNL     1       3.866   6.340  17.830  0.00  0.00    +0.000 A 
ATOM     26  O   UNL     1       4.380   7.332  17.301  0.00  0.00    +0.000 OA
ENDBRANCH  17  18
ENDBRANCH  16  17
ENDBRANCH   2  16
TORSDOF 6
ENDMDL
