MODEL 1
REMARK VINA RESULT:      -9.3      0.000      0.000
REMARK  Name = 
REMARK  7 active torsions:
REMARK  status: ('A' for Active; 'I' for Inactive)
REMARK    1  A    between atoms: C_2  and  O_3
REMARK    2  A    between atoms: C_2  and  C_4
REMARK    3  A    between atoms: C_4  and  C_5
REMARK    4  A    between atoms: N_7  and  C_8
REMARK    5  A    between atoms: C_10  and  C_11
REMARK    6  A    between atoms: C_22  and  O_23
REMARK    7  A    between atoms: C_25  and  O_26
REMARK                            x       y       z     vdW  Elec       q    Type
REMARK                         _______ _______ _______ _____ _____    ______ ____
ROOT
ATOM      1  C   UNL     1       2.187   7.295  19.236  0.00  0.00    +0.000 A 
ATOM      2  C   UNL     1       1.710   8.483  18.640  0.00  0.00    +0.000 A 
ATOM      3  C   UNL     1       1.047   9.455  19.398  0.00  0.00    +0.000 A 
ATOM      4  C   UNL     1       0.784   9.168  20.750  0.00  0.00    +0.000 A 
ATOM      5  C   UNL     1       1.204   7.982  21.343  0.00  0.00    +0.000 A 
ATOM      6  C   UNL     1       1.913   7.051  20.592  0.00  0.00    +0.000 A 
ENDROOT
BRANCH   3   7
ATOM      7  C   UNL     1       0.453  10.683  18.816  0.00  0.00    +0.000 C 
ATOM      8  O   UNL     1       1.211  11.651  18.728  0.00  0.00    +0.000 OA
ATOM      9  N   UNL     1      -0.850  10.801  18.411  0.00  0.00    +0.000 N 
ATOM     10  C   UNL     1      -1.352  12.157  18.221  0.00  0.00    +0.000 C 
ATOM     11  C   UNL     1      -2.821  11.947  18.286  0.00  0.00    +0.000 A 
ATOM     12  C   UNL     1      -3.763  12.572  19.073  0.00  0.00    +0.000 A 
ATOM     13  C   UNL     1      -5.055  12.045  19.090  0.00  0.00    +0.000 A 
ATOM     14  C   UNL     1      -5.406  10.986  18.236  0.00  0.00    +0.000 A 
ATOM     15  C   UNL     1      -4.419  10.294  17.534  0.00  0.00    +0.000 A 
ATOM     16  C   UNL     1      -3.113  10.696  17.744  0.00  0.00    +0.000 A 
ATOM     17  C   UNL     1      -1.922   9.823  18.110  0.00  0.00    +0.000 C 
ENDBRANCH   3   7
BRANCH   1  20
ATOM     18  C   UNL     1       4.524   5.508  17.095  0.00  0.00    +0.000 A 
ATOM     19  C   UNL     1       4.079   6.636  17.748  0.00  0.00    +0.000 A 
ATOM     20  N   UNL     1       2.923   6.354  18.448  0.00  0.00    +0.000 N 
ATOM     21  C   UNL     1       2.624   4.999  18.253  0.00  0.00    +0.000 A 
ATOM     22  C   UNL     1       1.547   4.200  18.686  0.00  0.00    +0.000 A 
ATOM     23  C   UNL     1       1.499   2.857  18.312  0.00  0.00    +0.000 A 
ATOM     24  C   UNL     1       2.471   2.313  17.480  0.00  0.00    +0.000 A 
ATOM     25  C   UNL     1       3.516   3.112  17.014  0.00  0.00    +0.000 A 
ATOM     26  C   UNL     1       3.600   4.466  17.397  0.00  0.00    +0.000 A 
BRANCH  18  27
ATOM     27  C   UNL     1       5.765   5.399  16.273  0.00  0.00    +0.000 C 
BRANCH  27  29
ATOM     28  O   UNL     1       7.960   4.447  16.344  0.00  0.00    +0.000 OA
ATOM     29  C   UNL     1       6.907   4.652  16.926  0.00  0.00    +0.000 C 
BRANCH  29  30
ATOM     30  O   UNL     1       6.728   4.210  18.195  0.00  0.00    +0.000 OA
ATOM     31  H   UNL     1       5.806   4.306  18.539  0.00  0.00    +0.000 HD
ENDBRANCH  29  30
ENDBRANCH  27  29
ENDBRANCH  18  27
ENDBRANCH   1  20
BRANCH   4  32
ATOM     32  O   UNL     1       0.071  10.004  21.574  0.00  0.00    +0.000 OA
ATOM     33  H   UNL     1       0.515  10.004  22.454  0.00  0.00    +0.000 HD
ENDBRANCH   4  32
BRANCH   6  34
ATOM     34  O   UNL     1       2.371   5.931  21.226  0.00  0.00    +0.000 OA
ATOM     35  H   UNL     1       3.224   6.123  21.651  0.00  0.00    +0.000 HD
ENDBRANCH   6  34
TORSDOF 7
ENDMDL
MODEL 2
REMARK VINA RESULT:      -8.8      2.389      3.752
REMARK  Name = 
REMARK  7 active torsions:
REMARK  status: ('A' for Active; 'I' for Inactive)
REMARK    1  A    between atoms: C_2  and  O_3
REMARK    2  A    between atoms: C_2  and  C_4
REMARK    3  A    between atoms: C_4  and  C_5
REMARK    4  A    between atoms: N_7  and  C_8
REMARK    5  A    between atoms: C_10  and  C_11
REMARK    6  A    between atoms: C_22  and  O_23
REMARK    7  A    between atoms: C_25  and  O_26
REMARK                            x       y       z     vdW  Elec       q    Type
REMARK                         _______ _______ _______ _____ _____    ______ ____
ROOT
ATOM      1  C   UNL     1       2.184   7.476  19.329  0.00  0.00    +0.000 A 
ATOM      2  C   UNL     1       1.791   8.711  18.769  0.00  0.00    +0.000 A 
ATOM      3  C   UNL     1       1.092   9.657  19.528  0.00  0.00    +0.000 A 
ATOM      4  C   UNL     1       0.707   9.300  20.833  0.00  0.00    +0.000 A 
ATOM      5  C   UNL     1       1.043   8.069  21.385  0.00  0.00    +0.000 A 
ATOM      6  C   UNL     1       1.789   7.161  20.640  0.00  0.00    +0.000 A 
ENDROOT
BRANCH   3   7
ATOM      7  C   UNL     1       0.583  10.936  18.974  0.00  0.00    +0.000 C 
ATOM      8  O   UNL     1      -0.338  10.835  18.161  0.00  0.00    +0.000 OA
ATOM      9  N   UNL     1       1.082  12.173  19.286  0.00  0.00    +0.000 N 
ATOM     10  C   UNL     1       0.727  13.264  18.386  0.00  0.00    +0.000 C 
ATOM     11  C   UNL     1       1.775  14.269  18.700  0.00  0.00    +0.000 A 
ATOM     12  C   UNL     1       2.640  14.927  17.856  0.00  0.00    +0.000 A 
ATOM     13  C   UNL     1       3.672  15.672  18.429  0.00  0.00    +0.000 A 
ATOM     14  C   UNL     1       3.744  15.839  19.822  0.00  0.00    +0.000 A 
ATOM     15  C   UNL     1       2.935  15.078  20.663  0.00  0.00    +0.000 A 
ATOM     16  C   UNL     1       2.096  14.164  20.054  0.00  0.00    +0.000 A 
ATOM     17  C   UNL     1       1.944  12.684  20.378  0.00  0.00    +0.000 C 
ENDBRANCH   3   7
BRANCH   1  20
ATOM     18  C   UNL     1       4.635   5.751  17.267  0.00  0.00    +0.000 A 
ATOM     19  C   UNL     1       4.162   6.855  17.940  0.00  0.00    +0.000 A 
ATOM     20  N   UNL     1       2.959   6.560  18.549  0.00  0.00    +0.000 N 
ATOM     21  C   UNL     1       2.657   5.220  18.274  0.00  0.00    +0.000 A 
ATOM     22  C   UNL     1       1.544   4.418  18.598  0.00  0.00    +0.000 A 
ATOM     23  C   UNL     1       1.504   3.094  18.161  0.00  0.00    +0.000 A 
ATOM     24  C   UNL     1       2.522   2.574  17.371  0.00  0.00    +0.000 A 
ATOM     25  C   UNL     1       3.605   3.376  17.011  0.00  0.00    +0.000 A 
ATOM     26  C   UNL     1       3.681   4.710  17.460  0.00  0.00    +0.000 A 
BRANCH  18  27
ATOM     27  C   UNL     1       5.926   5.660  16.524  0.00  0.00    +0.000 C 
BRANCH  27  29
ATOM     28  O   UNL     1       7.956   4.392  16.525  0.00  0.00    +0.000 OA
ATOM     29  C   UNL     1       6.959   4.739  17.136  0.00  0.00    +0.000 C 
BRANCH  29  30
ATOM     30  O   UNL     1       6.743   4.303  18.401  0.00  0.00    +0.000 OA
ATOM     31  H   UNL     1       6.505   3.346  18.473  0.00  0.00    +0.000 HD
ENDBRANCH  29  30
ENDBRANCH  27  29
ENDBRANCH  18  27
ENDBRANCH   1  20
BRANCH   4  32
ATOM     32  O   UNL     1      -0.051  10.109  21.644  0.00  0.00    +0.000 OA
ATOM     33  H   UNL     1       0.180  11.043  21.431  0.00  0.00    +0.000 HD
ENDBRANCH   4  32
BRANCH   6  34
ATOM     34  O   UNL     1       2.161   5.991  21.240  0.00  0.00    +0.000 OA
ATOM     35  H   UNL     1       1.960   5.245  20.651  0.00  0.00    +0.000 HD
ENDBRANCH   6  34
TORSDOF 7
ENDMDL
MODEL 3
REMARK VINA RESULT:      -8.5      1.081      1.279
REMARK  Name = 
REMARK  7 active torsions:
REMARK  status: ('A' for Active; 'I' for Inactive)
REMARK    1  A    between atoms: C_2  and  O_3
REMARK    2  A    between atoms: C_2  and  C_4
REMARK    3  A    between atoms: C_4  and  C_5
REMARK    4  A    between atoms: N_7  and  C_8
REMARK    5  A    between atoms: C_10  and  C_11
REMARK    6  A    between atoms: C_22  and  O_23
REMARK    7  A    between atoms: C_25  and  O_26
REMARK                            x       y       z     vdW  Elec       q    Type
REMARK                         _______ _______ _______ _____ _____    ______ ____
ROOT
ATOM      1  C   UNL     1       2.226   7.158  19.525  0.00  0.00    +0.000 A 
ATOM      2  C   UNL     1       1.818   8.401  18.996  0.00  0.00    +0.000 A 
ATOM      3  C   UNL     1       1.095   9.314  19.773  0.00  0.00    +0.000 A 
ATOM      4  C   UNL     1       0.703   8.914  21.064  0.00  0.00    +0.000 A 
ATOM      5  C   UNL     1       1.055   7.674  21.585  0.00  0.00    +0.000 A 
ATOM      6  C   UNL     1       1.823   6.800  20.823  0.00  0.00    +0.000 A 
ENDROOT
BRANCH   3   7
ATOM      7  C   UNL     1       0.570  10.599  19.250  0.00  0.00    +0.000 C 
ATOM      8  O   UNL     1       1.103  11.615  19.699  0.00  0.00    +0.000 OA
ATOM      9  N   UNL     1      -0.456  10.711  18.349  0.00  0.00    +0.000 N 
ATOM     10  C   UNL     1      -1.082  12.023  18.235  0.00  0.00    +0.000 C 
ATOM     11  C   UNL     1      -2.385  11.684  17.608  0.00  0.00    +0.000 A 
ATOM     12  C   UNL     1      -3.662  12.002  18.012  0.00  0.00    +0.000 A 
ATOM     13  C   UNL     1      -4.728  11.384  17.356  0.00  0.00    +0.000 A 
ATOM     14  C   UNL     1      -4.500  10.561  16.240  0.00  0.00    +0.000 A 
ATOM     15  C   UNL     1      -3.204  10.160  15.918  0.00  0.00    +0.000 A 
ATOM     16  C   UNL     1      -2.194  10.599  16.753  0.00  0.00    +0.000 A 
ATOM     17  C   UNL     1      -1.112   9.761  17.420  0.00  0.00    +0.000 C 
ENDBRANCH   3   7
BRANCH   1  20
ATOM     18  C   UNL     1       4.739   5.526  17.461  0.00  0.00    +0.000 A 
ATOM     19  C   UNL     1       4.244   6.600  18.168  0.00  0.00    +0.000 A 
ATOM     20  N   UNL     1       3.024   6.277  18.729  0.00  0.00    +0.000 N 
ATOM     21  C   UNL     1       2.733   4.950  18.387  0.00  0.00    +0.000 A 
ATOM     22  C   UNL     1       1.612   4.135  18.644  0.00  0.00    +0.000 A 
ATOM     23  C   UNL     1       1.587   2.831  18.148  0.00  0.00    +0.000 A 
ATOM     24  C   UNL     1       2.629   2.346  17.365  0.00  0.00    +0.000 A 
ATOM     25  C   UNL     1       3.721   3.165  17.072  0.00  0.00    +0.000 A 
ATOM     26  C   UNL     1       3.781   4.478  17.581  0.00  0.00    +0.000 A 
BRANCH  18  27
ATOM     27  C   UNL     1       6.050   5.468  16.752  0.00  0.00    +0.000 C 
BRANCH  27  29
ATOM     28  O   UNL     1       6.672   5.230  14.453  0.00  0.00    +0.000 OA
ATOM     29  C   UNL     1       6.006   5.827  15.283  0.00  0.00    +0.000 C 
BRANCH  29  30
ATOM     30  O   UNL     1       5.194   6.846  14.907  0.00  0.00    +0.000 OA
ATOM     31  H   UNL     1       4.370   6.937  15.447  0.00  0.00    +0.000 HD
ENDBRANCH  29  30
ENDBRANCH  27  29
ENDBRANCH  18  27
ENDBRANCH   1  20
BRANCH   4  32
ATOM     32  O   UNL     1      -0.077   9.687  21.889  0.00  0.00    +0.000 OA
ATOM     33  H   UNL     1      -0.987   9.306  21.880  0.00  0.00    +0.000 HD
ENDBRANCH   4  32
BRANCH   6  34
ATOM     34  O   UNL     1       2.210   5.621  21.394  0.00  0.00    +0.000 OA
ATOM     35  H   UNL     1       2.076   4.893  20.763  0.00  0.00    +0.000 HD
ENDBRANCH   6  34
TORSDOF 7
ENDMDL
MODEL 4
REMARK VINA RESULT:      -8.4      1.406      2.640
REMARK  Name = 
REMARK  7 active torsions:
REMARK  status: ('A' for Active; 'I' for Inactive)
REMARK    1  A    between atoms: C_2  and  O_3
REMARK    2  A    between atoms: C_2  and  C_4
REMARK    3  A    between atoms: C_4  and  C_5
REMARK    4  A    between atoms: N_7  and  C_8
REMARK    5  A    between atoms: C_10  and  C_11
REMARK    6  A    between atoms: C_22  and  O_23
REMARK    7  A    between atoms: C_25  and  O_26
REMARK                            x       y       z     vdW  Elec       q    Type
REMARK                         _______ _______ _______ _____ _____    ______ ____
ROOT
ATOM      1  C   UNL     1       2.094   7.100  19.288  0.00  0.00    +0.000 A 
ATOM      2  C   UNL     1       1.665   8.300  18.679  0.00  0.00    +0.000 A 
ATOM      3  C   UNL     1       1.155   9.355  19.444  0.00  0.00    +0.000 A 
ATOM      4  C   UNL     1       0.992   9.147  20.826  0.00  0.00    +0.000 A 
ATOM      5  C   UNL     1       1.364   7.955  21.437  0.00  0.00    +0.000 A 
ATOM      6  C   UNL     1       1.924   6.936  20.673  0.00  0.00    +0.000 A 
ENDROOT
BRANCH   3   7
ATOM      7  C   UNL     1       0.614  10.605  18.857  0.00  0.00    +0.000 C 
ATOM      8  O   UNL     1       1.397  11.556  18.816  0.00  0.00    +0.000 OA
ATOM      9  N   UNL     1      -0.668  10.760  18.401  0.00  0.00    +0.000 N 
ATOM     10  C   UNL     1      -1.131  12.129  18.211  0.00  0.00    +0.000 C 
ATOM     11  C   UNL     1      -2.606  11.954  18.212  0.00  0.00    +0.000 A 
ATOM     12  C   UNL     1      -3.565  12.589  18.968  0.00  0.00    +0.000 A 
ATOM     13  C   UNL     1      -4.868  12.092  18.924  0.00  0.00    +0.000 A 
ATOM     14  C   UNL     1      -5.207  11.054  18.039  0.00  0.00    +0.000 A 
ATOM     15  C   UNL     1      -4.208  10.350  17.369  0.00  0.00    +0.000 A 
ATOM     16  C   UNL     1      -2.903  10.718  17.638  0.00  0.00    +0.000 A 
ATOM     17  C   UNL     1      -1.748   9.812  18.040  0.00  0.00    +0.000 C 
ENDBRANCH   3   7
BRANCH   1  20
ATOM     18  C   UNL     1       2.975   4.054  17.505  0.00  0.00    +0.000 A 
ATOM     19  C   UNL     1       2.167   4.793  18.341  0.00  0.00    +0.000 A 
ATOM     20  N   UNL     1       2.676   6.068  18.486  0.00  0.00    +0.000 N 
ATOM     21  C   UNL     1       3.837   6.157  17.707  0.00  0.00    +0.000 A 
ATOM     22  C   UNL     1       4.772   7.196  17.525  0.00  0.00    +0.000 A 
ATOM     23  C   UNL     1       5.869   6.989  16.688  0.00  0.00    +0.000 A 
ATOM     24  C   UNL     1       6.075   5.760  16.073  0.00  0.00    +0.000 A 
ATOM     25  C   UNL     1       5.175   4.715  16.285  0.00  0.00    +0.000 A 
ATOM     26  C   UNL     1       4.046   4.906  17.108  0.00  0.00    +0.000 A 
BRANCH  18  27
ATOM     27  C   UNL     1       2.734   2.648  17.067  0.00  0.00    +0.000 C 
BRANCH  27  29
ATOM     28  O   UNL     1       3.784   1.036  18.491  0.00  0.00    +0.000 OA
ATOM     29  C   UNL     1       2.759   1.615  18.173  0.00  0.00    +0.000 C 
BRANCH  29  30
ATOM     30  O   UNL     1       1.592   1.346  18.809  0.00  0.00    +0.000 OA
ATOM     31  H   UNL     1       1.694   1.027  19.740  0.00  0.00    +0.000 HD
ENDBRANCH  29  30
ENDBRANCH  27  29
ENDBRANCH  18  27
ENDBRANCH   1  20
BRANCH   4  32
ATOM     32  O   UNL     1       0.427  10.075  21.667  0.00  0.00    +0.000 OA
ATOM     33  H   UNL     1      -0.552   9.968  21.613  0.00  0.00    +0.000 HD
ENDBRANCH   4  32
BRANCH   6  34
ATOM     34  O   UNL     1       2.344   5.807  21.318  0.00  0.00    +0.000 OA
ATOM     35  H   UNL     1       1.875   5.723  22.165  0.00  0.00    +0.000 HD
ENDBRANCH   6  34
TORSDOF 7
ENDMDL
MODEL 5
REMARK VINA RESULT:      -8.1      0.981      1.367
REMARK  Name = 
REMARK  7 active torsions:
REMARK  status: ('A' for Active; 'I' for Inactive)
REMARK    1  A    between atoms: C_2  and  O_3
REMARK    2  A    between atoms: C_2  and  C_4
REMARK    3  A    between atoms: C_4  and  C_5
REMARK    4  A    between atoms: N_7  and  C_8
REMARK    5  A    between atoms: C_10  and  C_11
REMARK    6  A    between atoms: C_22  and  O_23
REMARK    7  A    between atoms: C_25  and  O_26
REMARK                            x       y       z     vdW  Elec       q    Type
REMARK                         _______ _______ _______ _____ _____    ______ ____
ROOT
ATOM      1  C   UNL     1       2.387   7.100  19.163  0.00  0.00    +0.000 A 
ATOM      2  C   UNL     1       2.104   8.351  18.573  0.00  0.00    +0.000 A 
ATOM      3  C   UNL     1       1.564   9.399  19.328  0.00  0.00    +0.000 A 
ATOM      4  C   UNL     1       1.221   9.137  20.668  0.00  0.00    +0.000 A 
ATOM      5  C   UNL     1       1.449   7.897  21.253  0.00  0.00    +0.000 A 
ATOM      6  C   UNL     1       2.040   6.882  20.507  0.00  0.00    +0.000 A 
ENDROOT
BRANCH   3   7
ATOM      7  C   UNL     1       1.171  10.707  18.749  0.00  0.00    +0.000 C 
ATOM      8  O   UNL     1       2.075  11.340  18.201  0.00  0.00    +0.000 OA
ATOM      9  N   UNL     1      -0.090  11.239  18.812  0.00  0.00    +0.000 N 
ATOM     10  C   UNL     1      -0.210  12.664  18.532  0.00  0.00    +0.000 C 
ATOM     11  C   UNL     1      -1.522  12.985  19.150  0.00  0.00    +0.000 A 
ATOM     12  C   UNL     1      -1.845  13.959  20.068  0.00  0.00    +0.000 A 
ATOM     13  C   UNL     1      -3.115  13.916  20.646  0.00  0.00    +0.000 A 
ATOM     14  C   UNL     1      -4.068  12.982  20.210  0.00  0.00    +0.000 A 
ATOM     15  C   UNL     1      -3.691  11.936  19.368  0.00  0.00    +0.000 A 
ATOM     16  C   UNL     1      -2.356  11.874  19.017  0.00  0.00    +0.000 A 
ATOM     17  C   UNL     1      -1.426  10.674  19.116  0.00  0.00    +0.000 C 
ENDBRANCH   3   7
BRANCH   1  20
ATOM     18  C   UNL     1       4.458   5.049  16.986  0.00  0.00    +0.000 A 
ATOM     19  C   UNL     1       4.137   6.235  17.608  0.00  0.00    +0.000 A 
ATOM     20  N   UNL     1       3.005   6.072  18.382  0.00  0.00    +0.000 N 
ATOM     21  C   UNL     1       2.595   4.738  18.267  0.00  0.00    +0.000 A 
ATOM     22  C   UNL     1       1.487   4.043  18.795  0.00  0.00    +0.000 A 
ATOM     23  C   UNL     1       1.317   2.694  18.487  0.00  0.00    +0.000 A 
ATOM     24  C   UNL     1       2.197   2.042  17.630  0.00  0.00    +0.000 A 
ATOM     25  C   UNL     1       3.270   2.737  17.071  0.00  0.00    +0.000 A 
ATOM     26  C   UNL     1       3.477   4.095  17.386  0.00  0.00    +0.000 A 
BRANCH  18  27
ATOM     27  C   UNL     1       5.638   4.810  16.104  0.00  0.00    +0.000 C 
BRANCH  27  29
ATOM     28  O   UNL     1       7.586   4.558  17.472  0.00  0.00    +0.000 OA
ATOM     29  C   UNL     1       6.969   5.247  16.676  0.00  0.00    +0.000 C 
BRANCH  29  30
ATOM     30  O   UNL     1       7.466   6.443  16.273  0.00  0.00    +0.000 OA
ATOM     31  H   UNL     1       6.822   7.014  15.787  0.00  0.00    +0.000 HD
ENDBRANCH  29  30
ENDBRANCH  27  29
ENDBRANCH  18  27
ENDBRANCH   1  20
BRANCH   4  32
ATOM     32  O   UNL     1       0.611  10.058  21.484  0.00  0.00    +0.000 OA
ATOM     33  H   UNL     1      -0.235  10.323  21.051  0.00  0.00    +0.000 HD
ENDBRANCH   4  32
BRANCH   6  34
ATOM     34  O   UNL     1       2.313   5.700  21.136  0.00  0.00    +0.000 OA
ATOM     35  H   UNL     1       1.863   5.677  21.997  0.00  0.00    +0.000 HD
ENDBRANCH   6  34
TORSDOF 7
ENDMDL
MODEL 6
REMARK VINA RESULT:      -8.1      3.070      9.034
REMARK  Name = 
REMARK  7 active torsions:
REMARK  status: ('A' for Active; 'I' for Inactive)
REMARK    1  A    between atoms: C_2  and  O_3
REMARK    2  A    between atoms: C_2  and  C_4
REMARK    3  A    between atoms: C_4  and  C_5
REMARK    4  A    between atoms: N_7  and  C_8
REMARK    5  A    between atoms: C_10  and  C_11
REMARK    6  A    between atoms: C_22  and  O_23
REMARK    7  A    between atoms: C_25  and  O_26
REMARK                            x       y       z     vdW  Elec       q    Type
REMARK                         _______ _______ _______ _____ _____    ______ ____
ROOT
ATOM      1  C   UNL     1       2.388   5.627  19.898  0.00  0.00    +0.000 A 
ATOM      2  C   UNL     1       3.681   5.683  19.333  0.00  0.00    +0.000 A 
ATOM      3  C   UNL     1       4.365   4.514  18.979  0.00  0.00    +0.000 A 
ATOM      4  C   UNL     1       3.767   3.280  19.295  0.00  0.00    +0.000 A 
ATOM      5  C   UNL     1       2.515   3.205  19.895  0.00  0.00    +0.000 A 
ATOM      6  C   UNL     1       1.820   4.375  20.187  0.00  0.00    +0.000 A 
ENDROOT
BRANCH   3   7
ATOM      7  C   UNL     1       5.754   4.505  18.459  0.00  0.00    +0.000 C 
ATOM      8  O   UNL     1       6.630   4.804  19.273  0.00  0.00    +0.000 OA
ATOM      9  N   UNL     1       6.099   4.218  17.164  0.00  0.00    +0.000 N 
ATOM     10  C   UNL     1       7.436   4.616  16.743  0.00  0.00    +0.000 C 
ATOM     11  C   UNL     1       7.298   4.627  15.264  0.00  0.00    +0.000 A 
ATOM     12  C   UNL     1       7.592   5.625  14.363  0.00  0.00    +0.000 A 
ATOM     13  C   UNL     1       7.175   5.456  13.042  0.00  0.00    +0.000 A 
ATOM     14  C   UNL     1       6.584   4.251  12.628  0.00  0.00    +0.000 A 
ATOM     15  C   UNL     1       6.191   3.302  13.570  0.00  0.00    +0.000 A 
ATOM     16  C   UNL     1       6.400   3.625  14.898  0.00  0.00    +0.000 A 
ATOM     17  C   UNL     1       5.391   3.569  16.036  0.00  0.00    +0.000 C 
ENDBRANCH   3   7
BRANCH   1  20
ATOM     18  C   UNL     1       0.325   8.314  21.225  0.00  0.00    +0.000 A 
ATOM     19  C   UNL     1       0.835   7.035  21.252  0.00  0.00    +0.000 A 
ATOM     20  N   UNL     1       1.687   6.841  20.182  0.00  0.00    +0.000 N 
ATOM     21  C   UNL     1       1.739   8.037  19.455  0.00  0.00    +0.000 A 
ATOM     22  C   UNL     1       2.401   8.385  18.260  0.00  0.00    +0.000 A 
ATOM     23  C   UNL     1       2.250   9.673  17.745  0.00  0.00    +0.000 A 
ATOM     24  C   UNL     1       1.418  10.596  18.367  0.00  0.00    +0.000 A 
ATOM     25  C   UNL     1       0.726  10.242  19.527  0.00  0.00    +0.000 A 
ATOM     26  C   UNL     1       0.881   8.955  20.080  0.00  0.00    +0.000 A 
BRANCH  18  27
ATOM     27  C   UNL     1      -0.593   8.916  22.235  0.00  0.00    +0.000 C 
BRANCH  27  29
ATOM     28  O   UNL     1       0.911   9.561  23.981  0.00  0.00    +0.000 OA
ATOM     29  C   UNL     1       0.051   9.901  23.186  0.00  0.00    +0.000 C 
BRANCH  29  30
ATOM     30  O   UNL     1      -0.360  11.192  23.130  0.00  0.00    +0.000 OA
ATOM     31  H   UNL     1      -1.045  11.436  23.800  0.00  0.00    +0.000 HD
ENDBRANCH  29  30
ENDBRANCH  27  29
ENDBRANCH  18  27
ENDBRANCH   1  20
BRANCH   4  32
ATOM     32  O   UNL     1       4.374   2.069  19.073  0.00  0.00    +0.000 OA
ATOM     33  H   UNL     1       3.663   1.396  18.960  0.00  0.00    +0.000 HD
ENDBRANCH   4  32
BRANCH   6  34
ATOM     34  O   UNL     1       0.564   4.261  20.711  0.00  0.00    +0.000 OA
ATOM     35  H   UNL     1       0.405   3.340  20.980  0.00  0.00    +0.000 HD
ENDBRANCH   6  34
TORSDOF 7
ENDMDL
MODEL 7
REMARK VINA RESULT:      -7.9      1.726      2.974
REMARK  Name = 
REMARK  7 active torsions:
REMARK  status: ('A' for Active; 'I' for Inactive)
REMARK    1  A    between atoms: C_2  and  O_3
REMARK    2  A    between atoms: C_2  and  C_4
REMARK    3  A    between atoms: C_4  and  C_5
REMARK    4  A    between atoms: N_7  and  C_8
REMARK    5  A    between atoms: C_10  and  C_11
REMARK    6  A    between atoms: C_22  and  O_23
REMARK    7  A    between atoms: C_25  and  O_26
REMARK                            x       y       z     vdW  Elec       q    Type
REMARK                         _______ _______ _______ _____ _____    ______ ____
ROOT
ATOM      1  C   UNL     1       2.211   7.168  19.260  0.00  0.00    +0.000 A 
ATOM      2  C   UNL     1       1.957   8.421  18.661  0.00  0.00    +0.000 A 
ATOM      3  C   UNL     1       1.517   9.510  19.423  0.00  0.00    +0.000 A 
ATOM      4  C   UNL     1       1.241   9.290  20.786  0.00  0.00    +0.000 A 
ATOM      5  C   UNL     1       1.440   8.051  21.383  0.00  0.00    +0.000 A 
ATOM      6  C   UNL     1       1.934   6.993  20.626  0.00  0.00    +0.000 A 
ENDROOT
BRANCH   3   7
ATOM      7  C   UNL     1       1.155  10.825  18.840  0.00  0.00    +0.000 C 
ATOM      8  O   UNL     1       2.063  11.412  18.248  0.00  0.00    +0.000 OA
ATOM      9  N   UNL     1      -0.078  11.411  18.945  0.00  0.00    +0.000 N 
ATOM     10  C   UNL     1      -0.149  12.836  18.648  0.00  0.00    +0.000 C 
ATOM     11  C   UNL     1      -1.421  13.221  19.312  0.00  0.00    +0.000 A 
ATOM     12  C   UNL     1      -1.665  14.220  20.227  0.00  0.00    +0.000 A 
ATOM     13  C   UNL     1      -2.911  14.240  20.856  0.00  0.00    +0.000 A 
ATOM     14  C   UNL     1      -3.920  13.341  20.472  0.00  0.00    +0.000 A 
ATOM     15  C   UNL     1      -3.622  12.269  19.632  0.00  0.00    +0.000 A 
ATOM     16  C   UNL     1      -2.305  12.145  19.230  0.00  0.00    +0.000 A 
ATOM     17  C   UNL     1      -1.423  10.907  19.310  0.00  0.00    +0.000 C 
ENDBRANCH   3   7
BRANCH   1  20
ATOM     18  C   UNL     1       2.912   4.053  17.516  0.00  0.00    +0.000 A 
ATOM     19  C   UNL     1       2.156   4.844  18.353  0.00  0.00    +0.000 A 
ATOM     20  N   UNL     1       2.728   6.096  18.467  0.00  0.00    +0.000 N 
ATOM     21  C   UNL     1       3.877   6.116  17.665  0.00  0.00    +0.000 A 
ATOM     22  C   UNL     1       4.858   7.106  17.448  0.00  0.00    +0.000 A 
ATOM     23  C   UNL     1       5.927   6.832  16.595  0.00  0.00    +0.000 A 
ATOM     24  C   UNL     1       6.062   5.584  15.999  0.00  0.00    +0.000 A 
ATOM     25  C   UNL     1       5.118   4.587  16.245  0.00  0.00    +0.000 A 
ATOM     26  C   UNL     1       4.015   4.846  17.084  0.00  0.00    +0.000 A 
BRANCH  18  27
ATOM     27  C   UNL     1       2.597   2.653  17.107  0.00  0.00    +0.000 C 
BRANCH  27  29
ATOM     28  O   UNL     1       3.753   1.051  18.458  0.00  0.00    +0.000 OA
ATOM     29  C   UNL     1       2.704   1.621  18.209  0.00  0.00    +0.000 C 
BRANCH  29  30
ATOM     30  O   UNL     1       1.585   1.342  18.922  0.00  0.00    +0.000 OA
ATOM     31  H   UNL     1       1.656   0.547  19.506  0.00  0.00    +0.000 HD
ENDBRANCH  29  30
ENDBRANCH  27  29
ENDBRANCH  18  27
ENDBRANCH   1  20
BRANCH   4  32
ATOM     32  O   UNL     1       0.727  10.256  21.616  0.00  0.00    +0.000 OA
ATOM     33  H   UNL     1       0.947   9.998  22.542  0.00  0.00    +0.000 HD
ENDBRANCH   4  32
BRANCH   6  34
ATOM     34  O   UNL     1       2.184   5.810  21.263  0.00  0.00    +0.000 OA
ATOM     35  H   UNL     1       2.137   5.080  20.623  0.00  0.00    +0.000 HD
ENDBRANCH   6  34
TORSDOF 7
ENDMDL
MODEL 8
REMARK VINA RESULT:      -7.8      2.759      4.698
REMARK  Name = 
REMARK  7 active torsions:
REMARK  status: ('A' for Active; 'I' for Inactive)
REMARK    1  A    between atoms: C_2  and  O_3
REMARK    2  A    between atoms: C_2  and  C_4
REMARK    3  A    between atoms: C_4  and  C_5
REMARK    4  A    between atoms: N_7  and  C_8
REMARK    5  A    between atoms: C_10  and  C_11
REMARK    6  A    between atoms: C_22  and  O_23
REMARK    7  A    between atoms: C_25  and  O_26
REMARK                            x       y       z     vdW  Elec       q    Type
REMARK                         _______ _______ _______ _____ _____    ______ ____
ROOT
ATOM      1  C   UNL     1       2.028   7.355  19.338  0.00  0.00    +0.000 A 
ATOM      2  C   UNL     1       1.705   8.596  18.746  0.00  0.00    +0.000 A 
ATOM      3  C   UNL     1       1.191   9.649  19.512  0.00  0.00    +0.000 A 
ATOM      4  C   UNL     1       0.914   9.401  20.869  0.00  0.00    +0.000 A 
ATOM      5  C   UNL     1       1.181   8.171  21.459  0.00  0.00    +0.000 A 
ATOM      6  C   UNL     1       1.747   7.151  20.700  0.00  0.00    +0.000 A 
ENDROOT
BRANCH   3   7
ATOM      7  C   UNL     1       0.757  10.945  18.935  0.00  0.00    +0.000 C 
ATOM      8  O   UNL     1      -0.173  10.883  18.129  0.00  0.00    +0.000 OA
ATOM      9  N   UNL     1       1.332  12.155  19.219  0.00  0.00    +0.000 N 
ATOM     10  C   UNL     1       1.038  13.247  18.299  0.00  0.00    +0.000 C 
ATOM     11  C   UNL     1       2.147  14.192  18.588  0.00  0.00    +0.000 A 
ATOM     12  C   UNL     1       3.046  14.780  17.726  0.00  0.00    +0.000 A 
ATOM     13  C   UNL     1       4.124  15.472  18.279  0.00  0.00    +0.000 A 
ATOM     14  C   UNL     1       4.215  15.662  19.667  0.00  0.00    +0.000 A 
ATOM     15  C   UNL     1       3.366  14.968  20.528  0.00  0.00    +0.000 A 
ATOM     16  C   UNL     1       2.469  14.095  19.941  0.00  0.00    +0.000 A 
ATOM     17  C   UNL     1       2.230  12.634  20.296  0.00  0.00    +0.000 C 
ENDBRANCH   3   7
BRANCH   1  20
ATOM     18  C   UNL     1       2.892   4.332  17.508  0.00  0.00    +0.000 A 
ATOM     19  C   UNL     1       2.060   5.082  18.310  0.00  0.00    +0.000 A 
ATOM     20  N   UNL     1       2.619   6.323  18.542  0.00  0.00    +0.000 N 
ATOM     21  C   UNL     1       3.838   6.380  17.855  0.00  0.00    +0.000 A 
ATOM     22  C   UNL     1       4.834   7.375  17.783  0.00  0.00    +0.000 A 
ATOM     23  C   UNL     1       5.980   7.141  17.022  0.00  0.00    +0.000 A 
ATOM     24  C   UNL     1       6.171   5.925  16.377  0.00  0.00    +0.000 A 
ATOM     25  C   UNL     1       5.208   4.921  16.481  0.00  0.00    +0.000 A 
ATOM     26  C   UNL     1       4.030   5.141  17.225  0.00  0.00    +0.000 A 
BRANCH  18  27
ATOM     27  C   UNL     1       2.617   2.956  16.999  0.00  0.00    +0.000 C 
BRANCH  27  29
ATOM     28  O   UNL     1       3.634   1.289  18.383  0.00  0.00    +0.000 OA
ATOM     29  C   UNL     1       2.613   1.868  18.051  0.00  0.00    +0.000 C 
BRANCH  29  30
ATOM     30  O   UNL     1       1.426   1.550  18.623  0.00  0.00    +0.000 OA
ATOM     31  H   UNL     1       0.975   0.764  18.228  0.00  0.00    +0.000 HD
ENDBRANCH  29  30
ENDBRANCH  27  29
ENDBRANCH  18  27
ENDBRANCH   1  20
BRANCH   4  32
ATOM     32  O   UNL     1       0.333  10.326  21.701  0.00  0.00    +0.000 OA
ATOM     33  H   UNL     1      -0.587  10.479  21.380  0.00  0.00    +0.000 HD
ENDBRANCH   4  32
BRANCH   6  34
ATOM     34  O   UNL     1       2.061   5.981  21.330  0.00  0.00    +0.000 OA
ATOM     35  H   UNL     1       2.741   6.147  22.005  0.00  0.00    +0.000 HD
ENDBRANCH   6  34
TORSDOF 7
ENDMDL
MODEL 9
REMARK VINA RESULT:      -7.8      2.792      3.682
REMARK  Name = 
REMARK  7 active torsions:
REMARK  status: ('A' for Active; 'I' for Inactive)
REMARK    1  A    between atoms: C_2  and  O_3
REMARK    2  A    between atoms: C_2  and  C_4
REMARK    3  A    between atoms: C_4  and  C_5
REMARK    4  A    between atoms: N_7  and  C_8
REMARK    5  A    between atoms: C_10  and  C_11
REMARK    6  A    between atoms: C_22  and  O_23
REMARK    7  A    between atoms: C_25  and  O_26
REMARK                            x       y       z     vdW  Elec       q    Type
REMARK                         _______ _______ _______ _____ _____    ______ ____
ROOT
ATOM      1  C   UNL     1       2.126   7.690  19.318  0.00  0.00    +0.000 A 
ATOM      2  C   UNL     1       1.426   8.094  20.475  0.00  0.00    +0.000 A 
ATOM      3  C   UNL     1       0.552   9.188  20.445  0.00  0.00    +0.000 A 
ATOM      4  C   UNL     1       0.470   9.932  19.254  0.00  0.00    +0.000 A 
ATOM      5  C   UNL     1       1.190   9.578  18.118  0.00  0.00    +0.000 A 
ATOM      6  C   UNL     1       2.009   8.454  18.144  0.00  0.00    +0.000 A 
ENDROOT
BRANCH   3   7
ATOM      7  C   UNL     1      -0.149   9.709  21.644  0.00  0.00    +0.000 C 
ATOM      8  O   UNL     1      -0.676   8.858  22.363  0.00  0.00    +0.000 OA
ATOM      9  N   UNL     1      -0.259  11.035  21.967  0.00  0.00    +0.000 N 
ATOM     10  C   UNL     1      -1.279  11.384  22.948  0.00  0.00    +0.000 C 
ATOM     11  C   UNL     1      -1.462  12.836  22.693  0.00  0.00    +0.000 A 
ATOM     12  C   UNL     1      -2.615  13.543  22.436  0.00  0.00    +0.000 A 
ATOM     13  C   UNL     1      -2.489  14.871  22.024  0.00  0.00    +0.000 A 
ATOM     14  C   UNL     1      -1.230  15.493  21.994  0.00  0.00    +0.000 A 
ATOM     15  C   UNL     1      -0.069  14.736  22.145  0.00  0.00    +0.000 A 
ATOM     16  C   UNL     1      -0.235  13.373  22.303  0.00  0.00    +0.000 A 
ATOM     17  C   UNL     1       0.450  12.259  21.525  0.00  0.00    +0.000 C 
ENDBRANCH   3   7
BRANCH   1  20
ATOM     18  C   UNL     1       4.757   5.188  19.084  0.00  0.00    +0.000 A 
ATOM     19  C   UNL     1       4.251   6.454  18.888  0.00  0.00    +0.000 A 
ATOM     20  N   UNL     1       2.956   6.526  19.363  0.00  0.00    +0.000 N 
ATOM     21  C   UNL     1       2.625   5.273  19.895  0.00  0.00    +0.000 A 
ATOM     22  C   UNL     1       1.434   4.773  20.459  0.00  0.00    +0.000 A 
ATOM     23  C   UNL     1       1.386   3.449  20.893  0.00  0.00    +0.000 A 
ATOM     24  C   UNL     1       2.480   2.606  20.732  0.00  0.00    +0.000 A 
ATOM     25  C   UNL     1       3.647   3.084  20.135  0.00  0.00    +0.000 A 
ATOM     26  C   UNL     1       3.728   4.425  19.709  0.00  0.00    +0.000 A 
BRANCH  18  27
ATOM     27  C   UNL     1       6.136   4.730  18.746  0.00  0.00    +0.000 C 
BRANCH  27  29
ATOM     28  O   UNL     1       7.677   6.535  18.437  0.00  0.00    +0.000 OA
ATOM     29  C   UNL     1       7.248   5.663  19.174  0.00  0.00    +0.000 C 
BRANCH  29  30
ATOM     30  O   UNL     1       7.763   5.501  20.418  0.00  0.00    +0.000 OA
ATOM     31  H   UNL     1       7.096   5.534  21.148  0.00  0.00    +0.000 HD
ENDBRANCH  29  30
ENDBRANCH  27  29
ENDBRANCH  18  27
ENDBRANCH   1  20
BRANCH   4  32
ATOM     32  O   UNL     1      -0.286  11.071  19.126  0.00  0.00    +0.000 OA
ATOM     33  H   UNL     1      -0.238  11.356  18.184  0.00  0.00    +0.000 HD
ENDBRANCH   4  32
BRANCH   6  34
ATOM     34  O   UNL     1       2.644   8.096  16.989  0.00  0.00    +0.000 OA
ATOM     35  H   UNL     1       3.409   7.534  17.199  0.00  0.00    +0.000 HD
ENDBRANCH   6  34
TORSDOF 7
ENDMDL
