MODEL 1
REMARK VINA RESULT:      -9.1      0.000      0.000
REMARK  Name = 
REMARK  6 active torsions:
REMARK  status: ('A' for Active; 'I' for Inactive)
REMARK    1  A    between atoms: N_3  and  C_4
REMARK    2  A    between atoms: C_4  and  C_5
REMARK    3  A    between atoms: C_8  and  C_9
REMARK    4  A    between atoms: C_12  and  C_13
REMARK    5  A    between atoms: C_13  and  C_14
REMARK    6  A    between atoms: C_14  and  O_16
REMARK                            x       y       z     vdW  Elec       q    Type
REMARK                         _______ _______ _______ _____ _____    ______ ____
ROOT
ATOM      1  C   UNL     1       2.770   8.012  17.738  0.00  0.00    +0.000 C 
ATOM      2  C   UNL     1       3.312   6.787  17.645  0.00  0.00    +0.000 C 
ATOM      3  C   UNL     1       4.782   6.838  17.535  0.00  0.00    +0.000 C 
ATOM      4  C   UNL     1       5.228   5.625  17.166  0.00  0.00    +0.000 C 
ATOM      5  C   UNL     1       4.155   4.679  17.534  0.00  0.00    +0.000 A 
ATOM      6  C   UNL     1       4.255   3.302  17.652  0.00  0.00    +0.000 A 
ATOM      7  C   UNL     1       3.091   2.597  17.939  0.00  0.00    +0.000 A 
ATOM      8  F   UNL     1       3.152   1.268  18.084  0.00  0.00    +0.000 F 
ATOM      9  C   UNL     1       1.860   3.254  18.070  0.00  0.00    +0.000 A 
ATOM     10  C   UNL     1       1.774   4.657  17.985  0.00  0.00    +0.000 A 
ATOM     11  C   UNL     1       2.943   5.371  17.776  0.00  0.00    +0.000 A 
ENDROOT
BRANCH   1  15
ATOM     12  C   UNL     1       0.121  10.223  20.134  0.00  0.00    +0.000 A 
ATOM     13  C   UNL     1       0.891   9.199  20.701  0.00  0.00    +0.000 A 
ATOM     14  C   UNL     1       1.644   8.351  19.894  0.00  0.00    +0.000 A 
ATOM     15  C   UNL     1       1.639   8.519  18.508  0.00  0.00    +0.000 A 
ATOM     16  C   UNL     1       0.849   9.521  17.934  0.00  0.00    +0.000 A 
ATOM     17  C   UNL     1       0.101  10.374  18.743  0.00  0.00    +0.000 A 
BRANCH  12  18
ATOM     18  C   UNL     1      -0.594  11.211  21.020  0.00  0.00    +0.000 C 
BRANCH  18  21
ATOM     19  N   UNL     1       1.913  13.360  21.085  0.00  0.00    +0.000 NA
ATOM     20  N   UNL     1       1.141  12.640  21.517  0.00  0.00    +0.000 NA
ATOM     21  N   UNL     1       0.297  11.858  21.991  0.00  0.00    +0.000 NA
ENDBRANCH  18  21
ENDBRANCH  12  18
ENDBRANCH   1  15
BRANCH   4  22
ATOM     22  C   UNL     1       5.772   5.567  15.768  0.00  0.00    +0.000 C 
BRANCH  22  23
ATOM     23  C   UNL     1       7.187   5.072  15.642  0.00  0.00    +0.000 C 
ATOM     24  O   UNL     1       7.816   4.448  16.495  0.00  0.00    +0.000 OA
BRANCH  23  25
ATOM     25  O   UNL     1       7.716   5.375  14.429  0.00  0.00    +0.000 OA
ATOM     26  H   UNL     1       8.415   4.758  14.127  0.00  0.00    +0.000 HD
ENDBRANCH  23  25
ENDBRANCH  22  23
ENDBRANCH   4  22
TORSDOF 6
ENDMDL
MODEL 2
REMARK VINA RESULT:      -8.9      0.825      1.039
REMARK  Name = 
REMARK  6 active torsions:
REMARK  status: ('A' for Active; 'I' for Inactive)
REMARK    1  A    between atoms: N_3  and  C_4
REMARK    2  A    between atoms: C_4  and  C_5
REMARK    3  A    between atoms: C_8  and  C_9
REMARK    4  A    between atoms: C_12  and  C_13
REMARK    5  A    between atoms: C_13  and  C_14
REMARK    6  A    between atoms: C_14  and  O_16
REMARK                            x       y       z     vdW  Elec       q    Type
REMARK                         _______ _______ _______ _____ _____    ______ ____
ROOT
ATOM      1  C   UNL     1       3.073   7.524  17.880  0.00  0.00    +0.000 C 
ATOM      2  C   UNL     1       3.400   6.224  17.964  0.00  0.00    +0.000 C 
ATOM      3  C   UNL     1       4.858   6.023  18.050  0.00  0.00    +0.000 C 
ATOM      4  C   UNL     1       5.125   4.721  17.847  0.00  0.00    +0.000 C 
ATOM      5  C   UNL     1       3.867   4.007  18.144  0.00  0.00    +0.000 A 
ATOM      6  C   UNL     1       3.710   2.653  18.389  0.00  0.00    +0.000 A 
ATOM      7  C   UNL     1       2.414   2.180  18.574  0.00  0.00    +0.000 A 
ATOM      8  F   UNL     1       2.225   0.882  18.837  0.00  0.00    +0.000 F 
ATOM      9  C   UNL     1       1.311   3.040  18.482  0.00  0.00    +0.000 A 
ATOM     10  C   UNL     1       1.483   4.421  18.269  0.00  0.00    +0.000 A 
ATOM     11  C   UNL     1       2.775   4.909  18.162  0.00  0.00    +0.000 A 
ENDROOT
BRANCH   1  15
ATOM     12  C   UNL     1       0.602  10.307  19.828  0.00  0.00    +0.000 A 
ATOM     13  C   UNL     1       0.990   9.133  20.486  0.00  0.00    +0.000 A 
ATOM     14  C   UNL     1       1.665   8.128  19.800  0.00  0.00    +0.000 A 
ATOM     15  C   UNL     1       1.965   8.286  18.446  0.00  0.00    +0.000 A 
ATOM     16  C   UNL     1       1.554   9.444  17.775  0.00  0.00    +0.000 A 
ATOM     17  C   UNL     1       0.885  10.453  18.465  0.00  0.00    +0.000 A 
BRANCH  12  18
ATOM     18  C   UNL     1      -0.020  11.440  20.604  0.00  0.00    +0.000 C 
BRANCH  18  21
ATOM     19  N   UNL     1       2.599  13.417  20.978  0.00  0.00    +0.000 NA
ATOM     20  N   UNL     1       1.764  12.714  21.307  0.00  0.00    +0.000 NA
ATOM     21  N   UNL     1       0.852  11.949  21.671  0.00  0.00    +0.000 NA
ENDBRANCH  18  21
ENDBRANCH  12  18
ENDBRANCH   1  15
BRANCH   4  22
ATOM     22  C   UNL     1       5.814   4.428  16.545  0.00  0.00    +0.000 C 
BRANCH  22  23
ATOM     23  C   UNL     1       7.232   4.916  16.437  0.00  0.00    +0.000 C 
ATOM     24  O   UNL     1       7.616   5.894  15.796  0.00  0.00    +0.000 OA
BRANCH  23  25
ATOM     25  O   UNL     1       8.080   4.151  17.170  0.00  0.00    +0.000 OA
ATOM     26  H   UNL     1       9.026   4.392  17.077  0.00  0.00    +0.000 HD
ENDBRANCH  23  25
ENDBRANCH  22  23
ENDBRANCH   4  22
TORSDOF 6
ENDMDL
MODEL 3
REMARK VINA RESULT:      -8.8      2.680      3.951
REMARK  Name = 
REMARK  6 active torsions:
REMARK  status: ('A' for Active; 'I' for Inactive)
REMARK    1  A    between atoms: N_3  and  C_4
REMARK    2  A    between atoms: C_4  and  C_5
REMARK    3  A    between atoms: C_8  and  C_9
REMARK    4  A    between atoms: C_12  and  C_13
REMARK    5  A    between atoms: C_13  and  C_14
REMARK    6  A    between atoms: C_14  and  O_16
REMARK                            x       y       z     vdW  Elec       q    Type
REMARK                         _______ _______ _______ _____ _____    ______ ____
ROOT
ATOM      1  C   UNL     1       2.335   6.159  19.004  0.00  0.00    +0.000 C 
ATOM      2  C   UNL     1       3.104   5.405  18.201  0.00  0.00    +0.000 C 
ATOM      3  C   UNL     1       2.409   4.183  17.754  0.00  0.00    +0.000 C 
ATOM      4  C   UNL     1       3.310   3.354  17.201  0.00  0.00    +0.000 C 
ATOM      5  C   UNL     1       4.453   4.207  16.818  0.00  0.00    +0.000 A 
ATOM      6  C   UNL     1       5.479   3.891  15.942  0.00  0.00    +0.000 A 
ATOM      7  C   UNL     1       6.498   4.825  15.785  0.00  0.00    +0.000 A 
ATOM      8  F   UNL     1       7.494   4.565  14.931  0.00  0.00    +0.000 F 
ATOM      9  C   UNL     1       6.500   6.024  16.512  0.00  0.00    +0.000 A 
ATOM     10  C   UNL     1       5.435   6.352  17.371  0.00  0.00    +0.000 A 
ATOM     11  C   UNL     1       4.378   5.461  17.472  0.00  0.00    +0.000 A 
ENDROOT
BRANCH   1  15
ATOM     12  C   UNL     1       0.982  10.134  19.118  0.00  0.00    +0.000 A 
ATOM     13  C   UNL     1       1.611   9.640  17.968  0.00  0.00    +0.000 A 
ATOM     14  C   UNL     1       2.213   8.385  17.975  0.00  0.00    +0.000 A 
ATOM     15  C   UNL     1       2.188   7.605  19.132  0.00  0.00    +0.000 A 
ATOM     16  C   UNL     1       1.587   8.105  20.292  0.00  0.00    +0.000 A 
ATOM     17  C   UNL     1       0.979   9.358  20.283  0.00  0.00    +0.000 A 
BRANCH  12  18
ATOM     18  C   UNL     1       0.230  11.439  19.068  0.00  0.00    +0.000 C 
BRANCH  18  21
ATOM     19  N   UNL     1      -2.437  10.051  17.701  0.00  0.00    +0.000 NA
ATOM     20  N   UNL     1      -1.848  10.640  18.479  0.00  0.00    +0.000 NA
ATOM     21  N   UNL     1      -1.207  11.282  19.332  0.00  0.00    +0.000 NA
ENDBRANCH  18  21
ENDBRANCH  12  18
ENDBRANCH   1  15
BRANCH   4  22
ATOM     22  C   UNL     1       3.590   2.119  18.010  0.00  0.00    +0.000 C 
BRANCH  22  23
ATOM     23  C   UNL     1       3.888   2.351  19.465  0.00  0.00    +0.000 C 
ATOM     24  O   UNL     1       3.061   2.422  20.373  0.00  0.00    +0.000 OA
BRANCH  23  25
ATOM     25  O   UNL     1       5.223   2.455  19.690  0.00  0.00    +0.000 OA
ATOM     26  H   UNL     1       5.611   3.318  19.435  0.00  0.00    +0.000 HD
ENDBRANCH  23  25
ENDBRANCH  22  23
ENDBRANCH   4  22
TORSDOF 6
ENDMDL
MODEL 4
REMARK VINA RESULT:      -8.8      2.233      3.551
REMARK  Name = 
REMARK  6 active torsions:
REMARK  status: ('A' for Active; 'I' for Inactive)
REMARK    1  A    between atoms: N_3  and  C_4
REMARK    2  A    between atoms: C_4  and  C_5
REMARK    3  A    between atoms: C_8  and  C_9
REMARK    4  A    between atoms: C_12  and  C_13
REMARK    5  A    between atoms: C_13  and  C_14
REMARK    6  A    between atoms: C_14  and  O_16
REMARK                            x       y       z     vdW  Elec       q    Type
REMARK                         _______ _______ _______ _____ _____    ______ ____
ROOT
ATOM      1  C   UNL     1       2.274   6.167  19.140  0.00  0.00    +0.000 C 
ATOM      2  C   UNL     1       3.024   5.456  18.283  0.00  0.00    +0.000 C 
ATOM      3  C   UNL     1       2.315   4.263  17.783  0.00  0.00    +0.000 C 
ATOM      4  C   UNL     1       3.203   3.462  17.168  0.00  0.00    +0.000 C 
ATOM      5  C   UNL     1       4.342   4.331  16.812  0.00  0.00    +0.000 A 
ATOM      6  C   UNL     1       5.350   4.060  15.901  0.00  0.00    +0.000 A 
ATOM      7  C   UNL     1       6.371   4.998  15.776  0.00  0.00    +0.000 A 
ATOM      8  F   UNL     1       7.350   4.782  14.890  0.00  0.00    +0.000 F 
ATOM      9  C   UNL     1       6.392   6.155  16.567  0.00  0.00    +0.000 A 
ATOM     10  C   UNL     1       5.344   6.439  17.464  0.00  0.00    +0.000 A 
ATOM     11  C   UNL     1       4.286   5.548  17.535  0.00  0.00    +0.000 A 
ENDROOT
BRANCH   1  15
ATOM     12  C   UNL     1       0.939  10.133  19.506  0.00  0.00    +0.000 A 
ATOM     13  C   UNL     1       1.535   9.701  18.314  0.00  0.00    +0.000 A 
ATOM     14  C   UNL     1       2.132   8.446  18.236  0.00  0.00    +0.000 A 
ATOM     15  C   UNL     1       2.136   7.605  19.350  0.00  0.00    +0.000 A 
ATOM     16  C   UNL     1       1.569   8.042  20.552  0.00  0.00    +0.000 A 
ATOM     17  C   UNL     1       0.965   9.296  20.627  0.00  0.00    +0.000 A 
BRANCH  12  18
ATOM     18  C   UNL     1       0.191  11.441  19.548  0.00  0.00    +0.000 C 
BRANCH  18  21
ATOM     19  N   UNL     1       2.430  13.233  21.186  0.00  0.00    +0.000 NA
ATOM     20  N   UNL     1       1.432  12.710  21.015  0.00  0.00    +0.000 NA
ATOM     21  N   UNL     1       0.339  12.144  20.829  0.00  0.00    +0.000 NA
ENDBRANCH  18  21
ENDBRANCH  12  18
ENDBRANCH   1  15
BRANCH   4  22
ATOM     22  C   UNL     1       3.492   2.184  17.903  0.00  0.00    +0.000 C 
BRANCH  22  23
ATOM     23  C   UNL     1       3.815   2.335  19.363  0.00  0.00    +0.000 C 
ATOM     24  O   UNL     1       3.003   2.352  20.288  0.00  0.00    +0.000 OA
BRANCH  23  25
ATOM     25  O   UNL     1       5.153   2.428  19.572  0.00  0.00    +0.000 OA
ATOM     26  H   UNL     1       5.402   2.804  20.442  0.00  0.00    +0.000 HD
ENDBRANCH  23  25
ENDBRANCH  22  23
ENDBRANCH   4  22
TORSDOF 6
ENDMDL
MODEL 5
REMARK VINA RESULT:      -8.7      1.045      1.499
REMARK  Name = 
REMARK  6 active torsions:
REMARK  status: ('A' for Active; 'I' for Inactive)
REMARK    1  A    between atoms: N_3  and  C_4
REMARK    2  A    between atoms: C_4  and  C_5
REMARK    3  A    between atoms: C_8  and  C_9
REMARK    4  A    between atoms: C_12  and  C_13
REMARK    5  A    between atoms: C_13  and  C_14
REMARK    6  A    between atoms: C_14  and  O_16
REMARK                            x       y       z     vdW  Elec       q    Type
REMARK                         _______ _______ _______ _____ _____    ______ ____
ROOT
ATOM      1  C   UNL     1       2.689   8.083  17.819  0.00  0.00    +0.000 C 
ATOM      2  C   UNL     1       3.187   6.840  17.718  0.00  0.00    +0.000 C 
ATOM      3  C   UNL     1       4.654   6.841  17.562  0.00  0.00    +0.000 C 
ATOM      4  C   UNL     1       5.048   5.611  17.188  0.00  0.00    +0.000 C 
ATOM      5  C   UNL     1       3.956   4.704  17.595  0.00  0.00    +0.000 A 
ATOM      6  C   UNL     1       4.014   3.325  17.720  0.00  0.00    +0.000 A 
ATOM      7  C   UNL     1       2.837   2.661  18.048  0.00  0.00    +0.000 A 
ATOM      8  F   UNL     1       2.858   1.332  18.201  0.00  0.00    +0.000 F 
ATOM      9  C   UNL     1       1.633   3.359  18.213  0.00  0.00    +0.000 A 
ATOM     10  C   UNL     1       1.591   4.764  18.120  0.00  0.00    +0.000 A 
ATOM     11  C   UNL     1       2.776   5.437  17.871  0.00  0.00    +0.000 A 
ENDROOT
BRANCH   1  15
ATOM     12  C   UNL     1       0.192  10.394  20.281  0.00  0.00    +0.000 A 
ATOM     13  C   UNL     1       0.944   9.349  20.831  0.00  0.00    +0.000 A 
ATOM     14  C   UNL     1       1.643   8.471  20.007  0.00  0.00    +0.000 A 
ATOM     15  C   UNL     1       1.600   8.631  18.621  0.00  0.00    +0.000 A 
ATOM     16  C   UNL     1       0.826   9.656  18.064  0.00  0.00    +0.000 A 
ATOM     17  C   UNL     1       0.134  10.538  18.891  0.00  0.00    +0.000 A 
BRANCH  12  18
ATOM     18  C   UNL     1      -0.462  11.411  21.182  0.00  0.00    +0.000 C 
BRANCH  18  21
ATOM     19  N   UNL     1      -2.699  11.823  23.578  0.00  0.00    +0.000 NA
ATOM     20  N   UNL     1      -1.785  11.371  23.066  0.00  0.00    +0.000 NA
ATOM     21  N   UNL     1      -0.790  10.872  22.509  0.00  0.00    +0.000 NA
ENDBRANCH  18  21
ENDBRANCH  12  18
ENDBRANCH   1  15
BRANCH   4  22
ATOM     22  C   UNL     1       5.546   5.527  15.773  0.00  0.00    +0.000 C 
BRANCH  22  23
ATOM     23  C   UNL     1       6.949   5.012  15.610  0.00  0.00    +0.000 C 
ATOM     24  O   UNL     1       7.743   5.337  14.728  0.00  0.00    +0.000 OA
BRANCH  23  25
ATOM     25  O   UNL     1       7.275   4.131  16.590  0.00  0.00    +0.000 OA
ATOM     26  H   UNL     1       6.668   4.138  17.360  0.00  0.00    +0.000 HD
ENDBRANCH  23  25
ENDBRANCH  22  23
ENDBRANCH   4  22
TORSDOF 6
ENDMDL
MODEL 6
REMARK VINA RESULT:      -8.7      0.793      1.213
REMARK  Name = 
REMARK  6 active torsions:
REMARK  status: ('A' for Active; 'I' for Inactive)
REMARK    1  A    between atoms: N_3  and  C_4
REMARK    2  A    between atoms: C_4  and  C_5
REMARK    3  A    between atoms: C_8  and  C_9
REMARK    4  A    between atoms: C_12  and  C_13
REMARK    5  A    between atoms: C_13  and  C_14
REMARK    6  A    between atoms: C_14  and  O_16
REMARK                            x       y       z     vdW  Elec       q    Type
REMARK                         _______ _______ _______ _____ _____    ______ ____
ROOT
ATOM      1  C   UNL     1       2.782   8.055  17.636  0.00  0.00    +0.000 C 
ATOM      2  C   UNL     1       3.338   6.835  17.559  0.00  0.00    +0.000 C 
ATOM      3  C   UNL     1       4.809   6.899  17.472  0.00  0.00    +0.000 C 
ATOM      4  C   UNL     1       5.272   5.688  17.117  0.00  0.00    +0.000 C 
ATOM      5  C   UNL     1       4.203   4.734  17.473  0.00  0.00    +0.000 A 
ATOM      6  C   UNL     1       4.315   3.359  17.601  0.00  0.00    +0.000 A 
ATOM      7  C   UNL     1       3.153   2.644  17.874  0.00  0.00    +0.000 A 
ATOM      8  F   UNL     1       3.225   1.317  18.028  0.00  0.00    +0.000 F 
ATOM      9  C   UNL     1       1.913   3.290  17.982  0.00  0.00    +0.000 A 
ATOM     10  C   UNL     1       1.815   4.691  17.886  0.00  0.00    +0.000 A 
ATOM     11  C   UNL     1       2.981   5.416  17.693  0.00  0.00    +0.000 A 
ENDROOT
BRANCH   1  15
ATOM     12  C   UNL     1       0.094  10.222  20.028  0.00  0.00    +0.000 A 
ATOM     13  C   UNL     1       0.818   9.156  20.577  0.00  0.00    +0.000 A 
ATOM     14  C   UNL     1       1.582   8.326  19.762  0.00  0.00    +0.000 A 
ATOM     15  C   UNL     1       1.634   8.554  18.386  0.00  0.00    +0.000 A 
ATOM     16  C   UNL     1       0.889   9.599  17.827  0.00  0.00    +0.000 A 
ATOM     17  C   UNL     1       0.131  10.434  18.645  0.00  0.00    +0.000 A 
BRANCH  12  18
ATOM     18  C   UNL     1      -0.633  11.187  20.930  0.00  0.00    +0.000 C 
BRANCH  18  21
ATOM     19  N   UNL     1      -0.030   9.798  23.865  0.00  0.00    +0.000 NA
ATOM     20  N   UNL     1       0.029  10.598  23.055  0.00  0.00    +0.000 NA
ATOM     21  N   UNL     1       0.099  11.472  22.171  0.00  0.00    +0.000 NA
ENDBRANCH  18  21
ENDBRANCH  12  18
ENDBRANCH   1  15
BRANCH   4  22
ATOM     22  C   UNL     1       5.839   5.628  15.728  0.00  0.00    +0.000 C 
BRANCH  22  23
ATOM     23  C   UNL     1       6.883   4.571  15.499  0.00  0.00    +0.000 C 
ATOM     24  O   UNL     1       7.896   4.392  16.174  0.00  0.00    +0.000 OA
BRANCH  23  25
ATOM     25  O   UNL     1       6.570   3.781  14.439  0.00  0.00    +0.000 OA
ATOM     26  H   UNL     1       5.674   3.385  14.480  0.00  0.00    +0.000 HD
ENDBRANCH  23  25
ENDBRANCH  22  23
ENDBRANCH   4  22
TORSDOF 6
ENDMDL
MODEL 7
REMARK VINA RESULT:      -8.6      1.216      1.530
REMARK  Name = 
REMARK  6 active torsions:
REMARK  status: ('A' for Active; 'I' for Inactive)
REMARK    1  A    between atoms: N_3  and  C_4
REMARK    2  A    between atoms: C_4  and  C_5
REMARK    3  A    between atoms: C_8  and  C_9
REMARK    4  A    between atoms: C_12  and  C_13
REMARK    5  A    between atoms: C_13  and  C_14
REMARK    6  A    between atoms: C_14  and  O_16
REMARK                            x       y       z     vdW  Elec       q    Type
REMARK                         _______ _______ _______ _____ _____    ______ ____
ROOT
ATOM      1  C   UNL     1       3.124   7.587  17.745  0.00  0.00    +0.000 C 
ATOM      2  C   UNL     1       3.454   6.286  17.789  0.00  0.00    +0.000 C 
ATOM      3  C   UNL     1       4.913   6.081  17.729  0.00  0.00    +0.000 C 
ATOM      4  C   UNL     1       5.155   4.779  17.495  0.00  0.00    +0.000 C 
ATOM      5  C   UNL     1       3.930   4.067  17.912  0.00  0.00    +0.000 A 
ATOM      6  C   UNL     1       3.794   2.712  18.166  0.00  0.00    +0.000 A 
ATOM      7  C   UNL     1       2.521   2.242  18.476  0.00  0.00    +0.000 A 
ATOM      8  F   UNL     1       2.354   0.943  18.750  0.00  0.00    +0.000 F 
ATOM      9  C   UNL     1       1.417   3.105  18.498  0.00  0.00    +0.000 A 
ATOM     10  C   UNL     1       1.571   4.487  18.275  0.00  0.00    +0.000 A 
ATOM     11  C   UNL     1       2.848   4.972  18.043  0.00  0.00    +0.000 A 
ENDROOT
BRANCH   1  15
ATOM     12  C   UNL     1       0.881  10.282  20.057  0.00  0.00    +0.000 A 
ATOM     13  C   UNL     1       1.201   9.019  20.568  0.00  0.00    +0.000 A 
ATOM     14  C   UNL     1       1.795   8.057  19.755  0.00  0.00    +0.000 A 
ATOM     15  C   UNL     1       2.080   8.350  18.421  0.00  0.00    +0.000 A 
ATOM     16  C   UNL     1       1.736   9.601  17.897  0.00  0.00    +0.000 A 
ATOM     17  C   UNL     1       1.148  10.565  18.713  0.00  0.00    +0.000 A 
BRANCH  12  18
ATOM     18  C   UNL     1       0.350  11.357  20.972  0.00  0.00    +0.000 C 
BRANCH  18  21
ATOM     19  N   UNL     1      -2.342  12.315  19.317  0.00  0.00    +0.000 NA
ATOM     20  N   UNL     1      -1.753  11.843  20.171  0.00  0.00    +0.000 NA
ATOM     21  N   UNL     1      -1.112  11.324  21.104  0.00  0.00    +0.000 NA
ENDBRANCH  18  21
ENDBRANCH  12  18
ENDBRANCH   1  15
BRANCH   4  22
ATOM     22  C   UNL     1       5.709   4.491  16.130  0.00  0.00    +0.000 C 
BRANCH  22  23
ATOM     23  C   UNL     1       7.174   4.780  15.950  0.00  0.00    +0.000 C 
ATOM     24  O   UNL     1       7.670   5.517  15.099  0.00  0.00    +0.000 OA
BRANCH  23  25
ATOM     25  O   UNL     1       7.927   4.136  16.879  0.00  0.00    +0.000 OA
ATOM     26  H   UNL     1       7.409   3.666  17.566  0.00  0.00    +0.000 HD
ENDBRANCH  23  25
ENDBRANCH  22  23
ENDBRANCH   4  22
TORSDOF 6
ENDMDL
MODEL 8
REMARK VINA RESULT:      -8.4      1.377      1.742
REMARK  Name = 
REMARK  6 active torsions:
REMARK  status: ('A' for Active; 'I' for Inactive)
REMARK    1  A    between atoms: N_3  and  C_4
REMARK    2  A    between atoms: C_4  and  C_5
REMARK    3  A    between atoms: C_8  and  C_9
REMARK    4  A    between atoms: C_12  and  C_13
REMARK    5  A    between atoms: C_13  and  C_14
REMARK    6  A    between atoms: C_14  and  O_16
REMARK                            x       y       z     vdW  Elec       q    Type
REMARK                         _______ _______ _______ _____ _____    ______ ____
ROOT
ATOM      1  C   UNL     1       2.863   7.853  17.740  0.00  0.00    +0.000 C 
ATOM      2  C   UNL     1       3.503   6.707  18.028  0.00  0.00    +0.000 C 
ATOM      3  C   UNL     1       4.908   6.730  17.579  0.00  0.00    +0.000 C 
ATOM      4  C   UNL     1       5.398   5.479  17.639  0.00  0.00    +0.000 C 
ATOM      5  C   UNL     1       4.526   4.756  18.586  0.00  0.00    +0.000 A 
ATOM      6  C   UNL     1       4.794   3.554  19.221  0.00  0.00    +0.000 A 
ATOM      7  C   UNL     1       3.791   3.014  20.021  0.00  0.00    +0.000 A 
ATOM      8  F   UNL     1       4.021   1.867  20.669  0.00  0.00    +0.000 F 
ATOM      9  C   UNL     1       2.548   3.649  20.150  0.00  0.00    +0.000 A 
ATOM     10  C   UNL     1       2.298   4.888  19.530  0.00  0.00    +0.000 A 
ATOM     11  C   UNL     1       3.320   5.468  18.796  0.00  0.00    +0.000 A 
ENDROOT
BRANCH   1  15
ATOM     12  C   UNL     1       0.762  10.523  20.210  0.00  0.00    +0.000 A 
ATOM     13  C   UNL     1       1.070   9.237  20.671  0.00  0.00    +0.000 A 
ATOM     14  C   UNL     1       1.613   8.288  19.809  0.00  0.00    +0.000 A 
ATOM     15  C   UNL     1       1.860   8.616  18.475  0.00  0.00    +0.000 A 
ATOM     16  C   UNL     1       1.527   9.891  18.002  0.00  0.00    +0.000 A 
ATOM     17  C   UNL     1       0.990  10.841  18.867  0.00  0.00    +0.000 A 
BRANCH  12  18
ATOM     18  C   UNL     1       0.288  11.580  21.175  0.00  0.00    +0.000 C 
BRANCH  18  21
ATOM     19  N   UNL     1      -2.102  11.536  23.455  0.00  0.00    +0.000 NA
ATOM     20  N   UNL     1      -1.078  11.307  23.009  0.00  0.00    +0.000 NA
ATOM     21  N   UNL     1       0.040  11.053  22.524  0.00  0.00    +0.000 NA
ENDBRANCH  18  21
ENDBRANCH  12  18
ENDBRANCH   1  15
BRANCH   4  22
ATOM     22  C   UNL     1       5.657   4.854  16.298  0.00  0.00    +0.000 C 
BRANCH  22  23
ATOM     23  C   UNL     1       7.099   4.800  15.875  0.00  0.00    +0.000 C 
ATOM     24  O   UNL     1       7.579   5.316  14.867  0.00  0.00    +0.000 OA
BRANCH  23  25
ATOM     25  O   UNL     1       7.856   4.115  16.771  0.00  0.00    +0.000 OA
ATOM     26  H   UNL     1       8.172   3.244  16.451  0.00  0.00    +0.000 HD
ENDBRANCH  23  25
ENDBRANCH  22  23
ENDBRANCH   4  22
TORSDOF 6
ENDMDL
MODEL 9
REMARK VINA RESULT:      -8.3      1.158      1.496
REMARK  Name = 
REMARK  6 active torsions:
REMARK  status: ('A' for Active; 'I' for Inactive)
REMARK    1  A    between atoms: N_3  and  C_4
REMARK    2  A    between atoms: C_4  and  C_5
REMARK    3  A    between atoms: C_8  and  C_9
REMARK    4  A    between atoms: C_12  and  C_13
REMARK    5  A    between atoms: C_13  and  C_14
REMARK    6  A    between atoms: C_14  and  O_16
REMARK                            x       y       z     vdW  Elec       q    Type
REMARK                         _______ _______ _______ _____ _____    ______ ____
ROOT
ATOM      1  C   UNL     1       3.106   7.530  17.868  0.00  0.00    +0.000 C 
ATOM      2  C   UNL     1       3.411   6.224  17.930  0.00  0.00    +0.000 C 
ATOM      3  C   UNL     1       4.868   5.993  17.922  0.00  0.00    +0.000 C 
ATOM      4  C   UNL     1       5.095   4.686  17.702  0.00  0.00    +0.000 C 
ATOM      5  C   UNL     1       3.844   3.997  18.080  0.00  0.00    +0.000 A 
ATOM      6  C   UNL     1       3.676   2.646  18.336  0.00  0.00    +0.000 A 
ATOM      7  C   UNL     1       2.386   2.200  18.605  0.00  0.00    +0.000 A 
ATOM      8  F   UNL     1       2.187   0.906  18.879  0.00  0.00    +0.000 F 
ATOM      9  C   UNL     1       1.296   3.081  18.584  0.00  0.00    +0.000 A 
ATOM     10  C   UNL     1       1.482   4.459  18.360  0.00  0.00    +0.000 A 
ATOM     11  C   UNL     1       2.774   4.921  18.169  0.00  0.00    +0.000 A 
ENDROOT
BRANCH   1  15
ATOM     12  C   UNL     1       0.830  10.300  20.057  0.00  0.00    +0.000 A 
ATOM     13  C   UNL     1       1.145   9.055  20.615  0.00  0.00    +0.000 A 
ATOM     14  C   UNL     1       1.750   8.067  19.844  0.00  0.00    +0.000 A 
ATOM     15  C   UNL     1       2.052   8.314  18.504  0.00  0.00    +0.000 A 
ATOM     16  C   UNL     1       1.714   9.546  17.932  0.00  0.00    +0.000 A 
ATOM     17  C   UNL     1       1.115  10.537  18.707  0.00  0.00    +0.000 A 
BRANCH  12  18
ATOM     18  C   UNL     1       0.287  11.405  20.927  0.00  0.00    +0.000 C 
BRANCH  18  21
ATOM     19  N   UNL     1      -2.073  11.572  23.233  0.00  0.00    +0.000 NA
ATOM     20  N   UNL     1      -1.061  11.289  22.791  0.00  0.00    +0.000 NA
ATOM     21  N   UNL     1       0.044  10.975  22.311  0.00  0.00    +0.000 NA
ENDBRANCH  18  21
ENDBRANCH  12  18
ENDBRANCH   1  15
BRANCH   4  22
ATOM     22  C   UNL     1       5.691   4.381  16.358  0.00  0.00    +0.000 C 
BRANCH  22  23
ATOM     23  C   UNL     1       6.385   5.530  15.681  0.00  0.00    +0.000 C 
ATOM     24  O   UNL     1       7.549   5.883  15.861  0.00  0.00    +0.000 OA
BRANCH  23  25
ATOM     25  O   UNL     1       5.569   6.151  14.790  0.00  0.00    +0.000 OA
ATOM     26  H   UNL     1       5.033   6.878  15.171  0.00  0.00    +0.000 HD
ENDBRANCH  23  25
ENDBRANCH  22  23
ENDBRANCH   4  22
TORSDOF 6
ENDMDL
