MODEL 1
REMARK VINA RESULT:      -8.0      0.000      0.000
REMARK  Name = 
REMARK  5 active torsions:
REMARK  status: ('A' for Active; 'I' for Inactive)
REMARK    1  A    between atoms: C_1  and  O_2
REMARK    2  A    between atoms: O_2  and  C_3
REMARK    3  A    between atoms: C_8  and  O_9
REMARK    4  A    between atoms: O_9  and  C_10
REMARK    5  A    between atoms: C_11  and  C_12
REMARK                            x       y       z     vdW  Elec       q    Type
REMARK                         _______ _______ _______ _____ _____    ______ ____
ROOT
ATOM      1  C   UNL     1       5.399   4.989  16.801  0.00  0.00    +0.000 A 
ATOM      2  C   UNL     1       5.431   6.233  16.195  0.00  0.00    +0.000 A 
ATOM      3  C   UNL     1       4.593   7.244  16.643  0.00  0.00    +0.000 A 
ATOM      4  C   UNL     1       3.647   7.050  17.675  0.00  0.00    +0.000 A 
ATOM      5  C   UNL     1       3.596   5.795  18.329  0.00  0.00    +0.000 A 
ATOM      6  C   UNL     1       4.522   4.774  17.883  0.00  0.00    +0.000 A 
ATOM      7  C   UNL     1       2.623   5.636  19.389  0.00  0.00    +0.000 A 
ATOM      8  N   UNL     1       2.007   6.751  19.894  0.00  0.00    +0.000 N 
ATOM      9  C   UNL     1       2.043   7.960  19.260  0.00  0.00    +0.000 A 
ATOM     10  C   UNL     1       2.773   8.101  18.061  0.00  0.00    +0.000 A 
ATOM     11  C   UNL     1       2.584   9.298  17.323  0.00  0.00    +0.000 A 
ATOM     12  C   UNL     1       1.737  10.321  17.747  0.00  0.00    +0.000 A 
ATOM     13  C   UNL     1       1.108  10.228  18.991  0.00  0.00    +0.000 A 
ATOM     14  C   UNL     1       0.279  11.226  19.498  0.00  0.00    +0.000 A 
ATOM     15  C   UNL     1      -0.253  11.150  20.763  0.00  0.00    +0.000 A 
ATOM     16  C   UNL     1       0.010  10.093  21.596  0.00  0.00    +0.000 A 
ATOM     17  C   UNL     1       0.779   9.041  21.089  0.00  0.00    +0.000 A 
ATOM     18  C   UNL     1       1.306   9.067  19.774  0.00  0.00    +0.000 A 
ATOM     19  C   UNL     1       1.152   7.879  21.956  0.00  0.00    +0.000 C 
ATOM     20  C   UNL     1       1.146   6.619  21.116  0.00  0.00    +0.000 C 
ATOM     21  O   UNL     1      -1.037  12.215  21.071  0.00  0.00    +0.000 OA
ATOM     22  C   UNL     1      -1.059  12.907  19.806  0.00  0.00    +0.000 C 
ATOM     23  O   UNL     1      -0.113  12.365  18.855  0.00  0.00    +0.000 OA
ENDROOT
BRANCH   7  24
ATOM     24  C   UNL     1       2.272   4.265  19.981  0.00  0.00    +0.000 C 
ATOM     25  C   UNL     1       1.001   3.884  20.727  0.00  0.00    +0.000 C 
ATOM     26  C   UNL     1       1.145   3.501  19.298  0.00  0.00    +0.000 C 
ENDBRANCH   7  24
BRANCH   1  28
ATOM     27  C   UNL     1       6.265   3.944  14.885  0.00  0.00    +0.000 C 
ATOM     28  O   UNL     1       6.164   3.962  16.312  0.00  0.00    +0.000 OA
ENDBRANCH   1  28
BRANCH   6  29
ATOM     29  O   UNL     1       4.512   3.594  18.595  0.00  0.00    +0.000 OA
ATOM     30  C   UNL     1       4.041   2.413  17.943  0.00  0.00    +0.000 C 
ENDBRANCH   6  29
TORSDOF 3
ENDMDL
MODEL 2
REMARK VINA RESULT:      -7.3      6.952     10.814
REMARK  Name = 
REMARK  5 active torsions:
REMARK  status: ('A' for Active; 'I' for Inactive)
REMARK    1  A    between atoms: C_1  and  O_2
REMARK    2  A    between atoms: O_2  and  C_3
REMARK    3  A    between atoms: C_8  and  O_9
REMARK    4  A    between atoms: O_9  and  C_10
REMARK    5  A    between atoms: C_11  and  C_12
REMARK                            x       y       z     vdW  Elec       q    Type
REMARK                         _______ _______ _______ _____ _____    ______ ____
ROOT
ATOM      1  C   UNL     1      -2.302  14.857  24.600  0.00  0.00    +0.000 A 
ATOM      2  C   UNL     1      -1.169  14.452  23.915  0.00  0.00    +0.000 A 
ATOM      3  C   UNL     1      -1.291  13.806  22.693  0.00  0.00    +0.000 A 
ATOM      4  C   UNL     1      -2.543  13.485  22.122  0.00  0.00    +0.000 A 
ATOM      5  C   UNL     1      -3.723  13.897  22.785  0.00  0.00    +0.000 A 
ATOM      6  C   UNL     1      -3.569  14.622  24.030  0.00  0.00    +0.000 A 
ATOM      7  C   UNL     1      -4.987  13.561  22.166  0.00  0.00    +0.000 A 
ATOM      8  N   UNL     1      -4.991  13.124  20.866  0.00  0.00    +0.000 N 
ATOM      9  C   UNL     1      -3.857  12.713  20.227  0.00  0.00    +0.000 A 
ATOM     10  C   UNL     1      -2.615  12.773  20.895  0.00  0.00    +0.000 A 
ATOM     11  C   UNL     1      -1.516  12.118  20.282  0.00  0.00    +0.000 A 
ATOM     12  C   UNL     1      -1.619  11.452  19.062  0.00  0.00    +0.000 A 
ATOM     13  C   UNL     1      -2.819  11.495  18.348  0.00  0.00    +0.000 A 
ATOM     14  C   UNL     1      -2.985  10.885  17.107  0.00  0.00    +0.000 A 
ATOM     15  C   UNL     1      -4.147  11.022  16.385  0.00  0.00    +0.000 A 
ATOM     16  C   UNL     1      -5.201  11.769  16.845  0.00  0.00    +0.000 A 
ATOM     17  C   UNL     1      -5.092  12.332  18.120  0.00  0.00    +0.000 A 
ATOM     18  C   UNL     1      -3.926  12.175  18.908  0.00  0.00    +0.000 A 
ATOM     19  C   UNL     1      -6.179  13.204  18.667  0.00  0.00    +0.000 C 
ATOM     20  C   UNL     1      -6.302  12.958  20.156  0.00  0.00    +0.000 C 
ATOM     21  O   UNL     1      -4.117  10.351  15.205  0.00  0.00    +0.000 OA
ATOM     22  C   UNL     1      -2.859   9.656  15.322  0.00  0.00    +0.000 C 
ATOM     23  O   UNL     1      -2.077  10.104  16.453  0.00  0.00    +0.000 OA
ENDROOT
BRANCH   7  24
ATOM     24  C   UNL     1      -6.325  13.696  22.903  0.00  0.00    +0.000 C 
ATOM     25  C   UNL     1      -7.544  12.793  22.772  0.00  0.00    +0.000 C 
ATOM     26  C   UNL     1      -6.638  12.623  23.939  0.00  0.00    +0.000 C 
ENDBRANCH   7  24
BRANCH   1  28
ATOM     27  C   UNL     1      -0.905  15.986  26.113  0.00  0.00    +0.000 C 
ATOM     28  O   UNL     1      -2.193  15.423  25.844  0.00  0.00    +0.000 OA
ENDBRANCH   1  28
BRANCH   6  29
ATOM     29  O   UNL     1      -4.730  15.089  24.607  0.00  0.00    +0.000 OA
ATOM     30  C   UNL     1      -4.998  16.491  24.552  0.00  0.00    +0.000 C 
ENDBRANCH   6  29
TORSDOF 3
ENDMDL
MODEL 3
REMARK VINA RESULT:      -7.2      4.063     10.377
REMARK  Name = 
REMARK  5 active torsions:
REMARK  status: ('A' for Active; 'I' for Inactive)
REMARK    1  A    between atoms: C_1  and  O_2
REMARK    2  A    between atoms: O_2  and  C_3
REMARK    3  A    between atoms: C_8  and  O_9
REMARK    4  A    between atoms: O_9  and  C_10
REMARK    5  A    between atoms: C_11  and  C_12
REMARK                            x       y       z     vdW  Elec       q    Type
REMARK                         _______ _______ _______ _____ _____    ______ ____
ROOT
ATOM      1  C   UNL     1      -4.526  14.928  23.707  0.00  0.00    +0.000 A 
ATOM      2  C   UNL     1      -3.475  14.427  24.455  0.00  0.00    +0.000 A 
ATOM      3  C   UNL     1      -2.605  13.502  23.897  0.00  0.00    +0.000 A 
ATOM      4  C   UNL     1      -2.771  12.990  22.590  0.00  0.00    +0.000 A 
ATOM      5  C   UNL     1      -3.826  13.490  21.789  0.00  0.00    +0.000 A 
ATOM      6  C   UNL     1      -4.686  14.500  22.374  0.00  0.00    +0.000 A 
ATOM      7  C   UNL     1      -3.960  12.952  20.452  0.00  0.00    +0.000 A 
ATOM      8  N   UNL     1      -2.928  12.216  19.929  0.00  0.00    +0.000 N 
ATOM      9  C   UNL     1      -1.915  11.721  20.700  0.00  0.00    +0.000 A 
ATOM     10  C   UNL     1      -1.886  12.003  22.083  0.00  0.00    +0.000 A 
ATOM     11  C   UNL     1      -0.958  11.275  22.873  0.00  0.00    +0.000 A 
ATOM     12  C   UNL     1      -0.085  10.331  22.335  0.00  0.00    +0.000 A 
ATOM     13  C   UNL     1      -0.036  10.141  20.953  0.00  0.00    +0.000 A 
ATOM     14  C   UNL     1       0.836   9.244  20.341  0.00  0.00    +0.000 A 
ATOM     15  C   UNL     1       0.927   9.145  18.973  0.00  0.00    +0.000 A 
ATOM     16  C   UNL     1       0.171   9.927  18.138  0.00  0.00    +0.000 A 
ATOM     17  C   UNL     1      -0.766  10.784  18.722  0.00  0.00    +0.000 A 
ATOM     18  C   UNL     1      -0.917  10.880  20.128  0.00  0.00    +0.000 A 
ATOM     19  C   UNL     1      -1.590  11.707  17.878  0.00  0.00    +0.000 C 
ATOM     20  C   UNL     1      -2.974  11.819  18.483  0.00  0.00    +0.000 C 
ATOM     21  O   UNL     1       1.830   8.213  18.570  0.00  0.00    +0.000 OA
ATOM     22  C   UNL     1       2.198   7.631  19.837  0.00  0.00    +0.000 C 
ATOM     23  O   UNL     1       1.684   8.376  20.965  0.00  0.00    +0.000 OA
ENDROOT
BRANCH   7  24
ATOM     24  C   UNL     1      -5.206  13.193  19.591  0.00  0.00    +0.000 C 
ATOM     25  C   UNL     1      -5.776  12.274  18.520  0.00  0.00    +0.000 C 
ATOM     26  C   UNL     1      -6.404  12.293  19.867  0.00  0.00    +0.000 C 
ENDBRANCH   7  24
BRANCH   1  28
ATOM     27  C   UNL     1      -4.845  16.911  24.922  0.00  0.00    +0.000 C 
ATOM     28  O   UNL     1      -5.436  15.780  24.276  0.00  0.00    +0.000 OA
ENDBRANCH   1  28
BRANCH   6  29
ATOM     29  O   UNL     1      -5.647  15.032  21.542  0.00  0.00    +0.000 OA
ATOM     30  C   UNL     1      -5.481  16.377  21.090  0.00  0.00    +0.000 C 
ENDBRANCH   6  29
TORSDOF 3
ENDMDL
MODEL 4
REMARK VINA RESULT:      -7.1      1.407      3.784
REMARK  Name = 
REMARK  5 active torsions:
REMARK  status: ('A' for Active; 'I' for Inactive)
REMARK    1  A    between atoms: C_1  and  O_2
REMARK    2  A    between atoms: O_2  and  C_3
REMARK    3  A    between atoms: C_8  and  O_9
REMARK    4  A    between atoms: O_9  and  C_10
REMARK    5  A    between atoms: C_11  and  C_12
REMARK                            x       y       z     vdW  Elec       q    Type
REMARK                         _______ _______ _______ _____ _____    ______ ____
ROOT
ATOM      1  C   UNL     1       2.669   3.115  19.880  0.00  0.00    +0.000 A 
ATOM      2  C   UNL     1       1.865   3.432  20.961  0.00  0.00    +0.000 A 
ATOM      3  C   UNL     1       1.473   4.746  21.173  0.00  0.00    +0.000 A 
ATOM      4  C   UNL     1       1.906   5.812  20.353  0.00  0.00    +0.000 A 
ATOM      5  C   UNL     1       2.717   5.526  19.228  0.00  0.00    +0.000 A 
ATOM      6  C   UNL     1       3.064   4.138  18.994  0.00  0.00    +0.000 A 
ATOM      7  C   UNL     1       3.132   6.641  18.405  0.00  0.00    +0.000 A 
ATOM      8  N   UNL     1       2.514   7.853  18.573  0.00  0.00    +0.000 N 
ATOM      9  C   UNL     1       1.741   8.138  19.662  0.00  0.00    +0.000 A 
ATOM     10  C   UNL     1       1.521   7.148  20.644  0.00  0.00    +0.000 A 
ATOM     11  C   UNL     1       0.919   7.563  21.860  0.00  0.00    +0.000 A 
ATOM     12  C   UNL     1       0.530   8.880  22.099  0.00  0.00    +0.000 A 
ATOM     13  C   UNL     1       0.642   9.831  21.082  0.00  0.00    +0.000 A 
ATOM     14  C   UNL     1       0.239  11.156  21.235  0.00  0.00    +0.000 A 
ATOM     15  C   UNL     1       0.275  12.046  20.189  0.00  0.00    +0.000 A 
ATOM     16  C   UNL     1       0.702  11.678  18.938  0.00  0.00    +0.000 A 
ATOM     17  C   UNL     1       1.181  10.376  18.773  0.00  0.00    +0.000 A 
ATOM     18  C   UNL     1       1.199   9.445  19.841  0.00  0.00    +0.000 A 
ATOM     19  C   UNL     1       1.614   9.885  17.426  0.00  0.00    +0.000 C 
ATOM     20  C   UNL     1       2.799   8.959  17.600  0.00  0.00    +0.000 C 
ATOM     21  O   UNL     1      -0.153  13.287  20.537  0.00  0.00    +0.000 OA
ATOM     22  C   UNL     1      -0.330  13.121  21.959  0.00  0.00    +0.000 C 
ATOM     23  O   UNL     1      -0.224  11.741  22.377  0.00  0.00    +0.000 OA
ENDROOT
BRANCH   7  24
ATOM     24  C   UNL     1       4.225   6.511  17.337  0.00  0.00    +0.000 C 
ATOM     25  C   UNL     1       5.388   7.460  17.089  0.00  0.00    +0.000 C 
ATOM     26  C   UNL     1       5.629   6.199  17.839  0.00  0.00    +0.000 C 
ENDBRANCH   7  24
BRANCH   1  28
ATOM     27  C   UNL     1       4.475   1.639  20.147  0.00  0.00    +0.000 C 
ATOM     28  O   UNL     1       3.127   1.835  19.710  0.00  0.00    +0.000 OA
ENDBRANCH   1  28
BRANCH   6  29
ATOM     29  O   UNL     1       3.777   3.878  17.845  0.00  0.00    +0.000 OA
ATOM     30  C   UNL     1       3.104   3.238  16.759  0.00  0.00    +0.000 C 
ENDBRANCH   6  29
TORSDOF 3
ENDMDL
MODEL 5
REMARK VINA RESULT:      -7.1      8.380     11.165
REMARK  Name = 
REMARK  5 active torsions:
REMARK  status: ('A' for Active; 'I' for Inactive)
REMARK    1  A    between atoms: C_1  and  O_2
REMARK    2  A    between atoms: O_2  and  C_3
REMARK    3  A    between atoms: C_8  and  O_9
REMARK    4  A    between atoms: O_9  and  C_10
REMARK    5  A    between atoms: C_11  and  C_12
REMARK                            x       y       z     vdW  Elec       q    Type
REMARK                         _______ _______ _______ _____ _____    ______ ____
ROOT
ATOM      1  C   UNL     1       6.072  12.372  25.438  0.00  0.00    +0.000 A 
ATOM      2  C   UNL     1       7.128  11.506  25.209  0.00  0.00    +0.000 A 
ATOM      3  C   UNL     1       7.908  11.649  24.069  0.00  0.00    +0.000 A 
ATOM      4  C   UNL     1       7.641  12.622  23.080  0.00  0.00    +0.000 A 
ATOM      5  C   UNL     1       6.578  13.534  23.286  0.00  0.00    +0.000 A 
ATOM      6  C   UNL     1       5.816  13.403  24.512  0.00  0.00    +0.000 A 
ATOM      7  C   UNL     1       6.341  14.524  22.258  0.00  0.00    +0.000 A 
ATOM      8  N   UNL     1       7.296  14.717  21.292  0.00  0.00    +0.000 N 
ATOM      9  C   UNL     1       8.314  13.832  21.081  0.00  0.00    +0.000 A 
ATOM     10  C   UNL     1       8.434  12.692  21.904  0.00  0.00    +0.000 A 
ATOM     11  C   UNL     1       9.354  11.691  21.496  0.00  0.00    +0.000 A 
ATOM     12  C   UNL     1      10.137  11.808  20.349  0.00  0.00    +0.000 A 
ATOM     13  C   UNL     1      10.101  12.988  19.602  0.00  0.00    +0.000 A 
ATOM     14  C   UNL     1      10.881  13.191  18.467  0.00  0.00    +0.000 A 
ATOM     15  C   UNL     1      10.894  14.396  17.806  0.00  0.00    +0.000 A 
ATOM     16  C   UNL     1      10.145  15.464  18.231  0.00  0.00    +0.000 A 
ATOM     17  C   UNL     1       9.296  15.267  19.324  0.00  0.00    +0.000 A 
ATOM     18  C   UNL     1       9.226  14.025  20.002  0.00  0.00    +0.000 A 
ATOM     19  C   UNL     1       8.488  16.400  19.878  0.00  0.00    +0.000 C 
ATOM     20  C   UNL     1       7.149  15.866  20.339  0.00  0.00    +0.000 C 
ATOM     21  O   UNL     1      11.713  14.395  16.722  0.00  0.00    +0.000 OA
ATOM     22  C   UNL     1      12.110  13.009  16.687  0.00  0.00    +0.000 C 
ATOM     23  O   UNL     1      11.704  12.281  17.869  0.00  0.00    +0.000 OA
ENDROOT
BRANCH   7  24
ATOM     24  C   UNL     1       5.069  15.380  22.219  0.00  0.00    +0.000 C 
ATOM     25  C   UNL     1       4.369  15.934  20.987  0.00  0.00    +0.000 C 
ATOM     26  C   UNL     1       3.823  14.717  21.645  0.00  0.00    +0.000 C 
ENDBRANCH   7  24
BRANCH   1  28
ATOM     27  C   UNL     1       4.968  10.813  26.803  0.00  0.00    +0.000 C 
ATOM     28  O   UNL     1       5.249  12.187  26.518  0.00  0.00    +0.000 OA
ENDBRANCH   1  28
BRANCH   6  29
ATOM     29  O   UNL     1       4.848  14.359  24.729  0.00  0.00    +0.000 OA
ATOM     30  C   UNL     1       5.123  15.401  25.666  0.00  0.00    +0.000 C 
ENDBRANCH   6  29
TORSDOF 3
ENDMDL
MODEL 6
REMARK VINA RESULT:      -6.9      2.195      8.639
REMARK  Name = 
REMARK  5 active torsions:
REMARK  status: ('A' for Active; 'I' for Inactive)
REMARK    1  A    between atoms: C_1  and  O_2
REMARK    2  A    between atoms: O_2  and  C_3
REMARK    3  A    between atoms: C_8  and  O_9
REMARK    4  A    between atoms: O_9  and  C_10
REMARK    5  A    between atoms: C_11  and  C_12
REMARK                            x       y       z     vdW  Elec       q    Type
REMARK                         _______ _______ _______ _____ _____    ______ ____
ROOT
ATOM      1  C   UNL     1      -2.386  12.616  22.691  0.00  0.00    +0.000 A 
ATOM      2  C   UNL     1      -1.848  11.693  23.571  0.00  0.00    +0.000 A 
ATOM      3  C   UNL     1      -1.035  10.674  23.095  0.00  0.00    +0.000 A 
ATOM      4  C   UNL     1      -0.764  10.493  21.720  0.00  0.00    +0.000 A 
ATOM      5  C   UNL     1      -1.284  11.427  20.792  0.00  0.00    +0.000 A 
ATOM      6  C   UNL     1      -2.081  12.516  21.319  0.00  0.00    +0.000 A 
ATOM      7  C   UNL     1      -0.977  11.217  19.393  0.00  0.00    +0.000 A 
ATOM      8  N   UNL     1       0.006  10.320  19.059  0.00  0.00    +0.000 N 
ATOM      9  C   UNL     1       0.501   9.410  19.948  0.00  0.00    +0.000 A 
ATOM     10  C   UNL     1       0.030   9.402  21.278  0.00  0.00    +0.000 A 
ATOM     11  C   UNL     1       0.394   8.295  22.088  0.00  0.00    +0.000 A 
ATOM     12  C   UNL     1       1.199   7.254  21.627  0.00  0.00    +0.000 A 
ATOM     13  C   UNL     1       1.758   7.324  20.349  0.00  0.00    +0.000 A 
ATOM     14  C   UNL     1       2.601   6.342  19.835  0.00  0.00    +0.000 A 
ATOM     15  C   UNL     1       3.210   6.482  18.611  0.00  0.00    +0.000 A 
ATOM     16  C   UNL     1       3.027   7.597  17.834  0.00  0.00    +0.000 A 
ATOM     17  C   UNL     1       2.130   8.567  18.290  0.00  0.00    +0.000 A 
ATOM     18  C   UNL     1       1.451   8.434  19.527  0.00  0.00    +0.000 A 
ATOM     19  C   UNL     1       1.919   9.835  17.523  0.00  0.00    +0.000 C 
ATOM     20  C   UNL     1       0.463  10.237  17.633  0.00  0.00    +0.000 C 
ATOM     21  O   UNL     1       3.988   5.418  18.284  0.00  0.00    +0.000 OA
ATOM     22  C   UNL     1       3.691   4.522  19.375  0.00  0.00    +0.000 C 
ATOM     23  O   UNL     1       2.931   5.158  20.429  0.00  0.00    +0.000 OA
ENDROOT
BRANCH   7  24
ATOM     24  C   UNL     1      -1.696  11.977  18.271  0.00  0.00    +0.000 C 
ATOM     25  C   UNL     1      -2.118  11.432  16.915  0.00  0.00    +0.000 C 
ATOM     26  C   UNL     1      -3.136  11.566  17.990  0.00  0.00    +0.000 C 
ENDBRANCH   7  24
BRANCH   1  28
ATOM     27  C   UNL     1      -4.201  13.095  24.102  0.00  0.00    +0.000 C 
ATOM     28  O   UNL     1      -3.255  13.576  23.141  0.00  0.00    +0.000 OA
ENDBRANCH   1  28
BRANCH   6  29
ATOM     29  O   UNL     1      -2.499  13.458  20.404  0.00  0.00    +0.000 OA
ATOM     30  C   UNL     1      -1.942  14.772  20.483  0.00  0.00    +0.000 C 
ENDBRANCH   6  29
TORSDOF 3
ENDMDL
MODEL 7
REMARK VINA RESULT:      -6.9      4.448     10.680
REMARK  Name = 
REMARK  5 active torsions:
REMARK  status: ('A' for Active; 'I' for Inactive)
REMARK    1  A    between atoms: C_1  and  O_2
REMARK    2  A    between atoms: O_2  and  C_3
REMARK    3  A    between atoms: C_8  and  O_9
REMARK    4  A    between atoms: O_9  and  C_10
REMARK    5  A    between atoms: C_11  and  C_12
REMARK                            x       y       z     vdW  Elec       q    Type
REMARK                         _______ _______ _______ _____ _____    ______ ____
ROOT
ATOM      1  C   UNL     1      -4.844  15.411  23.519  0.00  0.00    +0.000 A 
ATOM      2  C   UNL     1      -3.539  15.243  23.950  0.00  0.00    +0.000 A 
ATOM      3  C   UNL     1      -2.693  14.374  23.275  0.00  0.00    +0.000 A 
ATOM      4  C   UNL     1      -3.120  13.592  22.178  0.00  0.00    +0.000 A 
ATOM      5  C   UNL     1      -4.443  13.748  21.700  0.00  0.00    +0.000 A 
ATOM      6  C   UNL     1      -5.290  14.706  22.384  0.00  0.00    +0.000 A 
ATOM      7  C   UNL     1      -4.843  12.940  20.568  0.00  0.00    +0.000 A 
ATOM      8  N   UNL     1      -3.876  12.287  19.848  0.00  0.00    +0.000 N 
ATOM      9  C   UNL     1      -2.602  12.122  20.311  0.00  0.00    +0.000 A 
ATOM     10  C   UNL     1      -2.232  12.675  21.556  0.00  0.00    +0.000 A 
ATOM     11  C   UNL     1      -0.982  12.276  22.097  0.00  0.00    +0.000 A 
ATOM     12  C   UNL     1      -0.124  11.393  21.444  0.00  0.00    +0.000 A 
ATOM     13  C   UNL     1      -0.440  10.941  20.161  0.00  0.00    +0.000 A 
ATOM     14  C   UNL     1       0.386  10.089  19.432  0.00  0.00    +0.000 A 
ATOM     15  C   UNL     1       0.095   9.734  18.137  0.00  0.00    +0.000 A 
ATOM     16  C   UNL     1      -1.020  10.204  17.490  0.00  0.00    +0.000 A 
ATOM     17  C   UNL     1      -1.906  11.002  18.220  0.00  0.00    +0.000 A 
ATOM     18  C   UNL     1      -1.658  11.351  19.571  0.00  0.00    +0.000 A 
ATOM     19  C   UNL     1      -3.117  11.595  17.568  0.00  0.00    +0.000 C 
ATOM     20  C   UNL     1      -4.255  11.606  18.566  0.00  0.00    +0.000 C 
ATOM     21  O   UNL     1       1.017   8.895  17.599  0.00  0.00    +0.000 OA
ATOM     22  C   UNL     1       1.853   8.643  18.746  0.00  0.00    +0.000 C 
ATOM     23  O   UNL     1       1.543   9.508  19.864  0.00  0.00    +0.000 OA
ENDROOT
BRANCH   7  24
ATOM     24  C   UNL     1      -6.307  12.804  20.132  0.00  0.00    +0.000 C 
ATOM     25  C   UNL     1      -6.972  11.585  19.509  0.00  0.00    +0.000 C 
ATOM     26  C   UNL     1      -7.174  11.860  20.956  0.00  0.00    +0.000 C 
ENDBRANCH   7  24
BRANCH   1  28
ATOM     27  C   UNL     1      -5.061  17.227  24.992  0.00  0.00    +0.000 C 
ATOM     28  O   UNL     1      -5.708  16.205  24.227  0.00  0.00    +0.000 OA
ENDBRANCH   1  28
BRANCH   6  29
ATOM     29  O   UNL     1      -6.541  14.903  21.843  0.00  0.00    +0.000 OA
ATOM     30  C   UNL     1      -6.785  16.113  21.123  0.00  0.00    +0.000 C 
ENDBRANCH   6  29
TORSDOF 3
ENDMDL
MODEL 8
REMARK VINA RESULT:      -6.8      4.072     10.127
REMARK  Name = 
REMARK  5 active torsions:
REMARK  status: ('A' for Active; 'I' for Inactive)
REMARK    1  A    between atoms: C_1  and  O_2
REMARK    2  A    between atoms: O_2  and  C_3
REMARK    3  A    between atoms: C_8  and  O_9
REMARK    4  A    between atoms: O_9  and  C_10
REMARK    5  A    between atoms: C_11  and  C_12
REMARK                            x       y       z     vdW  Elec       q    Type
REMARK                         _______ _______ _______ _____ _____    ______ ____
ROOT
ATOM      1  C   UNL     1      -6.587  14.133  20.478  0.00  0.00    +0.000 A 
ATOM      2  C   UNL     1      -6.449  13.505  19.252  0.00  0.00    +0.000 A 
ATOM      3  C   UNL     1      -5.304  12.773  18.972  0.00  0.00    +0.000 A 
ATOM      4  C   UNL     1      -4.220  12.677  19.874  0.00  0.00    +0.000 A 
ATOM      5  C   UNL     1      -4.331  13.293  21.144  0.00  0.00    +0.000 A 
ATOM      6  C   UNL     1      -5.561  14.001  21.436  0.00  0.00    +0.000 A 
ATOM      7  C   UNL     1      -3.207  13.164  22.047  0.00  0.00    +0.000 A 
ATOM      8  N   UNL     1      -2.230  12.246  21.760  0.00  0.00    +0.000 N 
ATOM      9  C   UNL     1      -2.113  11.659  20.533  0.00  0.00    +0.000 A 
ATOM     10  C   UNL     1      -3.047  11.962  19.519  0.00  0.00    +0.000 A 
ATOM     11  C   UNL     1      -2.744  11.518  18.205  0.00  0.00    +0.000 A 
ATOM     12  C   UNL     1      -1.593  10.793  17.899  0.00  0.00    +0.000 A 
ATOM     13  C   UNL     1      -0.732  10.395  18.924  0.00  0.00    +0.000 A 
ATOM     14  C   UNL     1       0.415   9.638  18.699  0.00  0.00    +0.000 A 
ATOM     15  C   UNL     1       1.194   9.183  19.736  0.00  0.00    +0.000 A 
ATOM     16  C   UNL     1       0.881   9.443  21.046  0.00  0.00    +0.000 A 
ATOM     17  C   UNL     1      -0.224  10.261  21.300  0.00  0.00    +0.000 A 
ATOM     18  C   UNL     1      -1.023  10.784  20.253  0.00  0.00    +0.000 A 
ATOM     19  C   UNL     1      -0.659  10.545  22.704  0.00  0.00    +0.000 C 
ATOM     20  C   UNL     1      -1.166  11.969  22.781  0.00  0.00    +0.000 C 
ATOM     21  O   UNL     1       2.269   8.468  19.314  0.00  0.00    +0.000 OA
ATOM     22  C   UNL     1       2.164   8.642  17.886  0.00  0.00    +0.000 C 
ATOM     23  O   UNL     1       0.916   9.256  17.489  0.00  0.00    +0.000 OA
ENDROOT
BRANCH   7  24
ATOM     24  C   UNL     1      -3.079  14.005  23.324  0.00  0.00    +0.000 C 
ATOM     25  C   UNL     1      -1.795  14.413  24.031  0.00  0.00    +0.000 C 
ATOM     26  C   UNL     1      -2.487  15.399  23.160  0.00  0.00    +0.000 C 
ENDBRANCH   7  24
BRANCH   1  28
ATOM     27  C   UNL     1      -7.885  15.951  19.758  0.00  0.00    +0.000 C 
ATOM     28  O   UNL     1      -7.677  14.923  20.732  0.00  0.00    +0.000 OA
ENDBRANCH   1  28
BRANCH   6  29
ATOM     29  O   UNL     1      -5.677  14.514  22.710  0.00  0.00    +0.000 OA
ATOM     30  C   UNL     1      -6.558  13.860  23.625  0.00  0.00    +0.000 C 
ENDBRANCH   6  29
TORSDOF 3
ENDMDL
MODEL 9
REMARK VINA RESULT:      -6.8      7.461      9.503
REMARK  Name = 
REMARK  5 active torsions:
REMARK  status: ('A' for Active; 'I' for Inactive)
REMARK    1  A    between atoms: C_1  and  O_2
REMARK    2  A    between atoms: O_2  and  C_3
REMARK    3  A    between atoms: C_8  and  O_9
REMARK    4  A    between atoms: O_9  and  C_10
REMARK    5  A    between atoms: C_11  and  C_12
REMARK                            x       y       z     vdW  Elec       q    Type
REMARK                         _______ _______ _______ _____ _____    ______ ____
ROOT
ATOM      1  C   UNL     1      -3.652  11.010  17.306  0.00  0.00    +0.000 A 
ATOM      2  C   UNL     1      -2.309  11.208  17.574  0.00  0.00    +0.000 A 
ATOM      3  C   UNL     1      -1.922  11.885  18.722  0.00  0.00    +0.000 A 
ATOM      4  C   UNL     1      -2.853  12.444  19.627  0.00  0.00    +0.000 A 
ATOM      5  C   UNL     1      -4.235  12.248  19.395  0.00  0.00    +0.000 A 
ATOM      6  C   UNL     1      -4.612  11.486  18.221  0.00  0.00    +0.000 A 
ATOM      7  C   UNL     1      -5.159  12.824  20.349  0.00  0.00    +0.000 A 
ATOM      8  N   UNL     1      -4.674  13.275  21.549  0.00  0.00    +0.000 N 
ATOM      9  C   UNL     1      -3.342  13.478  21.773  0.00  0.00    +0.000 A 
ATOM     10  C   UNL     1      -2.407  13.176  20.759  0.00  0.00    +0.000 A 
ATOM     11  C   UNL     1      -1.075  13.625  20.951  0.00  0.00    +0.000 A 
ATOM     12  C   UNL     1      -0.669  14.318  22.090  0.00  0.00    +0.000 A 
ATOM     13  C   UNL     1      -1.567  14.511  23.141  0.00  0.00    +0.000 A 
ATOM     14  C   UNL     1      -1.223  15.161  24.324  0.00  0.00    +0.000 A 
ATOM     15  C   UNL     1      -2.100  15.256  25.378  0.00  0.00    +0.000 A 
ATOM     16  C   UNL     1      -3.358  14.711  25.325  0.00  0.00    +0.000 A 
ATOM     17  C   UNL     1      -3.758  14.116  24.125  0.00  0.00    +0.000 A 
ATOM     18  C   UNL     1      -2.894  14.041  23.004  0.00  0.00    +0.000 A 
ATOM     19  C   UNL     1      -5.095  13.453  24.008  0.00  0.00    +0.000 C 
ATOM     20  C   UNL     1      -5.641  13.694  22.616  0.00  0.00    +0.000 C 
ATOM     21  O   UNL     1      -1.581  15.928  26.438  0.00  0.00    +0.000 OA
ATOM     22  C   UNL     1      -0.327  16.375  25.885  0.00  0.00    +0.000 C 
ATOM     23  O   UNL     1      -0.034  15.770  24.604  0.00  0.00    +0.000 OA
ENDROOT
BRANCH   7  24
ATOM     24  C   UNL     1      -6.664  12.929  20.074  0.00  0.00    +0.000 C 
ATOM     25  C   UNL     1      -7.621  13.995  20.587  0.00  0.00    +0.000 C 
ATOM     26  C   UNL     1      -7.113  14.088  19.192  0.00  0.00    +0.000 C 
ENDBRANCH   7  24
BRANCH   1  28
ATOM     27  C   UNL     1      -3.042  10.431  15.114  0.00  0.00    +0.000 C 
ATOM     28  O   UNL     1      -4.044  10.414  16.136  0.00  0.00    +0.000 OA
ENDBRANCH   1  28
BRANCH   6  29
ATOM     29  O   UNL     1      -5.959  11.235  18.069  0.00  0.00    +0.000 OA
ATOM     30  C   UNL     1      -6.480  10.005  18.576  0.00  0.00    +0.000 C 
ENDBRANCH   6  29
TORSDOF 3
ENDMDL
