MODEL 1
REMARK VINA RESULT:      -6.8      0.000      0.000
REMARK  Name = 
REMARK  9 active torsions:
REMARK  status: ('A' for Active; 'I' for Inactive)
REMARK    1  A    between atoms: C_2  and  C_3
REMARK    2  A    between atoms: C_5  and  C_6
REMARK    3  A    between atoms: C_9  and  P_10
REMARK    4  A    between atoms: P_10  and  O_12
REMARK    5  A    between atoms: P_10  and  O_13
REMARK    6  A    between atoms: C_15  and  C_16
REMARK    7  A    between atoms: C_16  and  C_17
REMARK    8  A    between atoms: C_17  and  C_18
REMARK    9  A    between atoms: C_17  and  C_19
REMARK                            x       y       z     vdW  Elec       q    Type
REMARK                         _______ _______ _______ _____ _____    ______ ____
ROOT
ATOM      1  C   UNL     1       5.307   6.008  17.208  0.00  0.00    +0.000 A 
ATOM      2  N   UNL     1       4.634   7.056  17.634  0.00  0.00    +0.000 NA
ATOM      3  C   UNL     1       3.362   6.696  18.033  0.00  0.00    +0.000 A 
ATOM      4  C   UNL     1       3.007   5.379  17.811  0.00  0.00    +0.000 A 
ATOM      5  S   UNL     1       4.373   4.549  17.170  0.00  0.00    +0.000 S 
ENDROOT
BRANCH   3   6
ATOM      6  C   UNL     1       2.459   7.717  18.622  0.00  0.00    +0.000 A 
ATOM      7  C   UNL     1       1.863   8.746  17.920  0.00  0.00    +0.000 A 
ATOM      8  C   UNL     1       1.034   9.434  18.834  0.00  0.00    +0.000 A 
ATOM      9  C   UNL     1       1.254   8.841  20.061  0.00  0.00    +0.000 A 
ATOM     10  O   UNL     1       2.094   7.777  19.935  0.00  0.00    +0.000 OA
BRANCH   9  11
ATOM     11  P   UNL     1       0.652   9.537  21.643  0.00  0.00    +0.000 P 
ATOM     12  O   UNL     1      -0.016  10.708  20.915  0.00  0.00    +0.000 OA
BRANCH  11  13
ATOM     13  O   UNL     1      -0.539   8.420  21.767  0.00  0.00    +0.000 OA
ATOM     14  H   UNL     1      -0.323   7.659  21.203  0.00  0.00    +0.000 HD
ENDBRANCH  11  13
BRANCH  11  15
ATOM     15  O   UNL     1       0.085  10.196  23.138  0.00  0.00    +0.000 OA
ATOM     16  H   UNL     1       0.618  11.009  23.252  0.00  0.00    +0.000 HD
ENDBRANCH  11  15
ENDBRANCH   9  11
ENDBRANCH   3   6
BRANCH   1  18
ATOM     17  C   UNL     1       7.586   6.751  17.410  0.00  0.00    +0.000 C 
ATOM     18  C   UNL     1       6.669   5.989  16.802  0.00  0.00    +0.000 C 
ENDBRANCH   1  18
BRANCH   4  19
ATOM     19  C   UNL     1       1.698   4.654  18.006  0.00  0.00    +0.000 C 
BRANCH  19  20
ATOM     20  C   UNL     1       1.692   3.662  19.192  0.00  0.00    +0.000 C 
ATOM     21  C   UNL     1       1.212   4.286  20.505  0.00  0.00    +0.000 C 
ATOM     22  C   UNL     1       0.824   2.441  18.864  0.00  0.00    +0.000 C 
ENDBRANCH  19  20
ENDBRANCH   4  19
TORSDOF 7
ENDMDL
MODEL 2
REMARK VINA RESULT:      -6.7      0.952      1.385
REMARK  Name = 
REMARK  9 active torsions:
REMARK  status: ('A' for Active; 'I' for Inactive)
REMARK    1  A    between atoms: C_2  and  C_3
REMARK    2  A    between atoms: C_5  and  C_6
REMARK    3  A    between atoms: C_9  and  P_10
REMARK    4  A    between atoms: P_10  and  O_12
REMARK    5  A    between atoms: P_10  and  O_13
REMARK    6  A    between atoms: C_15  and  C_16
REMARK    7  A    between atoms: C_16  and  C_17
REMARK    8  A    between atoms: C_17  and  C_18
REMARK    9  A    between atoms: C_17  and  C_19
REMARK                            x       y       z     vdW  Elec       q    Type
REMARK                         _______ _______ _______ _____ _____    ______ ____
ROOT
ATOM      1  C   UNL     1       5.440   5.119  18.011  0.00  0.00    +0.000 A 
ATOM      2  N   UNL     1       4.864   6.262  18.320  0.00  0.00    +0.000 NA
ATOM      3  C   UNL     1       3.492   6.122  18.381  0.00  0.00    +0.000 A 
ATOM      4  C   UNL     1       2.991   4.890  18.007  0.00  0.00    +0.000 A 
ATOM      5  S   UNL     1       4.317   3.845  17.667  0.00  0.00    +0.000 S 
ENDROOT
BRANCH   3   6
ATOM      6  C   UNL     1       2.652   7.276  18.792  0.00  0.00    +0.000 A 
ATOM      7  C   UNL     1       2.236   8.290  17.953  0.00  0.00    +0.000 A 
ATOM      8  C   UNL     1       1.405   9.136  18.719  0.00  0.00    +0.000 A 
ATOM      9  C   UNL     1       1.446   8.638  20.006  0.00  0.00    +0.000 A 
ATOM     10  O   UNL     1       2.176   7.490  20.051  0.00  0.00    +0.000 OA
BRANCH   9  11
ATOM     11  P   UNL     1       0.778   9.530  21.458  0.00  0.00    +0.000 P 
ATOM     12  O   UNL     1      -0.226   8.406  21.732  0.00  0.00    +0.000 OA
BRANCH  11  13
ATOM     13  O   UNL     1       2.069   9.138  22.386  0.00  0.00    +0.000 OA
ATOM     14  H   UNL     1       1.763   8.660  23.175  0.00  0.00    +0.000 HD
ENDBRANCH  11  13
BRANCH  11  15
ATOM     15  O   UNL     1       0.146  10.374  22.829  0.00  0.00    +0.000 OA
ATOM     16  H   UNL     1      -0.522   9.758  23.195  0.00  0.00    +0.000 HD
ENDBRANCH  11  15
ENDBRANCH   9  11
ENDBRANCH   3   6
BRANCH   1  18
ATOM     17  C   UNL     1       7.701   5.547  18.709  0.00  0.00    +0.000 C 
ATOM     18  C   UNL     1       6.838   4.870  17.944  0.00  0.00    +0.000 C 
ENDBRANCH   1  18
BRANCH   4  19
ATOM     19  C   UNL     1       1.573   4.400  17.841  0.00  0.00    +0.000 C 
BRANCH  19  20
ATOM     20  C   UNL     1       1.067   3.514  19.002  0.00  0.00    +0.000 C 
ATOM     21  C   UNL     1       1.527   2.058  18.902  0.00  0.00    +0.000 C 
ATOM     22  C   UNL     1       1.510   4.095  20.351  0.00  0.00    +0.000 C 
ENDBRANCH  19  20
ENDBRANCH   4  19
TORSDOF 7
ENDMDL
MODEL 3
REMARK VINA RESULT:      -6.7      1.052      1.301
REMARK  Name = 
REMARK  9 active torsions:
REMARK  status: ('A' for Active; 'I' for Inactive)
REMARK    1  A    between atoms: C_2  and  C_3
REMARK    2  A    between atoms: C_5  and  C_6
REMARK    3  A    between atoms: C_9  and  P_10
REMARK    4  A    between atoms: P_10  and  O_12
REMARK    5  A    between atoms: P_10  and  O_13
REMARK    6  A    between atoms: C_15  and  C_16
REMARK    7  A    between atoms: C_16  and  C_17
REMARK    8  A    between atoms: C_17  and  C_18
REMARK    9  A    between atoms: C_17  and  C_19
REMARK                            x       y       z     vdW  Elec       q    Type
REMARK                         _______ _______ _______ _____ _____    ______ ____
ROOT
ATOM      1  C   UNL     1       4.556   5.561  17.132  0.00  0.00    +0.000 A 
ATOM      2  N   UNL     1       3.924   6.686  17.392  0.00  0.00    +0.000 NA
ATOM      3  C   UNL     1       3.029   6.521  18.430  0.00  0.00    +0.000 A 
ATOM      4  C   UNL     1       2.885   5.232  18.907  0.00  0.00    +0.000 A 
ATOM      5  S   UNL     1       4.001   4.217  18.076  0.00  0.00    +0.000 S 
ENDROOT
BRANCH   3   6
ATOM      6  C   UNL     1       2.265   7.689  18.938  0.00  0.00    +0.000 A 
ATOM      7  C   UNL     1       1.948   8.809  18.195  0.00  0.00    +0.000 A 
ATOM      8  C   UNL     1       1.161   9.637  19.025  0.00  0.00    +0.000 A 
ATOM      9  C   UNL     1       1.131   9.014  20.257  0.00  0.00    +0.000 A 
ATOM     10  O   UNL     1       1.773   7.815  20.202  0.00  0.00    +0.000 OA
BRANCH   9  11
ATOM     11  P   UNL     1       0.492   9.809  21.777  0.00  0.00    +0.000 P 
ATOM     12  O   UNL     1      -0.517   8.676  21.989  0.00  0.00    +0.000 OA
BRANCH  11  13
ATOM     13  O   UNL     1       1.794   9.345  22.656  0.00  0.00    +0.000 OA
ATOM     14  H   UNL     1       1.558   9.339  23.598  0.00  0.00    +0.000 HD
ENDBRANCH  11  13
BRANCH  11  15
ATOM     15  O   UNL     1      -0.113  10.561  23.213  0.00  0.00    +0.000 OA
ATOM     16  H   UNL     1       0.697  10.819  23.699  0.00  0.00    +0.000 HD
ENDBRANCH  11  15
ENDBRANCH   9  11
ENDBRANCH   3   6
BRANCH   1  18
ATOM     17  C   UNL     1       6.729   4.736  16.517  0.00  0.00    +0.000 C 
ATOM     18  C   UNL     1       5.604   5.380  16.189  0.00  0.00    +0.000 C 
ENDBRANCH   1  18
BRANCH   4  19
ATOM     19  C   UNL     1       1.947   4.649  19.935  0.00  0.00    +0.000 C 
BRANCH  19  20
ATOM     20  C   UNL     1       1.906   3.104  19.955  0.00  0.00    +0.000 C 
ATOM     21  C   UNL     1       1.656   2.519  21.347  0.00  0.00    +0.000 C 
ATOM     22  C   UNL     1       0.835   2.584  18.987  0.00  0.00    +0.000 C 
ENDBRANCH  19  20
ENDBRANCH   4  19
TORSDOF 7
ENDMDL
MODEL 4
REMARK VINA RESULT:      -6.7      4.024      5.675
REMARK  Name = 
REMARK  9 active torsions:
REMARK  status: ('A' for Active; 'I' for Inactive)
REMARK    1  A    between atoms: C_2  and  C_3
REMARK    2  A    between atoms: C_5  and  C_6
REMARK    3  A    between atoms: C_9  and  P_10
REMARK    4  A    between atoms: P_10  and  O_12
REMARK    5  A    between atoms: P_10  and  O_13
REMARK    6  A    between atoms: C_15  and  C_16
REMARK    7  A    between atoms: C_16  and  C_17
REMARK    8  A    between atoms: C_17  and  C_18
REMARK    9  A    between atoms: C_17  and  C_19
REMARK                            x       y       z     vdW  Elec       q    Type
REMARK                         _______ _______ _______ _____ _____    ______ ____
ROOT
ATOM      1  C   UNL     1       5.864   4.168  14.617  0.00  0.00    +0.000 A 
ATOM      2  N   UNL     1       4.946   3.915  15.527  0.00  0.00    +0.000 NA
ATOM      3  C   UNL     1       4.907   4.915  16.478  0.00  0.00    +0.000 A 
ATOM      4  C   UNL     1       5.874   5.895  16.369  0.00  0.00    +0.000 A 
ATOM      5  S   UNL     1       6.800   5.589  14.950  0.00  0.00    +0.000 S 
ENDROOT
BRANCH   3   6
ATOM      6  C   UNL     1       3.886   4.865  17.556  0.00  0.00    +0.000 A 
ATOM      7  C   UNL     1       2.969   5.863  17.823  0.00  0.00    +0.000 A 
ATOM      8  C   UNL     1       2.146   5.389  18.867  0.00  0.00    +0.000 A 
ATOM      9  C   UNL     1       2.675   4.169  19.240  0.00  0.00    +0.000 A 
ATOM     10  O   UNL     1       3.713   3.831  18.426  0.00  0.00    +0.000 OA
BRANCH   9  11
ATOM     11  P   UNL     1       2.165   3.262  20.745  0.00  0.00    +0.000 P 
ATOM     12  O   UNL     1       1.222   2.371  19.932  0.00  0.00    +0.000 OA
BRANCH  11  13
ATOM     13  O   UNL     1       3.564   2.411  20.796  0.00  0.00    +0.000 OA
ATOM     14  H   UNL     1       3.450   1.643  21.381  0.00  0.00    +0.000 HD
ENDBRANCH  11  13
BRANCH  11  15
ATOM     15  O   UNL     1       1.683   2.406  22.168  0.00  0.00    +0.000 OA
ATOM     16  H   UNL     1       2.483   1.902  22.420  0.00  0.00    +0.000 HD
ENDBRANCH  11  15
ENDBRANCH   9  11
ENDBRANCH   3   6
BRANCH   1  18
ATOM     17  C   UNL     1       5.284   3.417  12.408  0.00  0.00    +0.000 C 
ATOM     18  C   UNL     1       6.126   3.404  13.448  0.00  0.00    +0.000 C 
ENDBRANCH   1  18
BRANCH   4  19
ATOM     19  C   UNL     1       6.215   7.062  17.263  0.00  0.00    +0.000 C 
BRANCH  19  20
ATOM     20  C   UNL     1       7.692   7.105  17.718  0.00  0.00    +0.000 C 
ATOM     21  C   UNL     1       8.178   8.512  18.073  0.00  0.00    +0.000 C 
ATOM     22  C   UNL     1       7.909   6.175  18.918  0.00  0.00    +0.000 C 
ENDBRANCH  19  20
ENDBRANCH   4  19
TORSDOF 7
ENDMDL
MODEL 5
REMARK VINA RESULT:      -6.7      4.326      6.527
REMARK  Name = 
REMARK  9 active torsions:
REMARK  status: ('A' for Active; 'I' for Inactive)
REMARK    1  A    between atoms: C_2  and  C_3
REMARK    2  A    between atoms: C_5  and  C_6
REMARK    3  A    between atoms: C_9  and  P_10
REMARK    4  A    between atoms: P_10  and  O_12
REMARK    5  A    between atoms: P_10  and  O_13
REMARK    6  A    between atoms: C_15  and  C_16
REMARK    7  A    between atoms: C_16  and  C_17
REMARK    8  A    between atoms: C_17  and  C_18
REMARK    9  A    between atoms: C_17  and  C_19
REMARK                            x       y       z     vdW  Elec       q    Type
REMARK                         _______ _______ _______ _____ _____    ______ ____
ROOT
ATOM      1  C   UNL     1       1.798   8.336  19.104  0.00  0.00    +0.000 A 
ATOM      2  N   UNL     1       2.589   7.790  18.204  0.00  0.00    +0.000 NA
ATOM      3  C   UNL     1       2.923   6.498  18.559  0.00  0.00    +0.000 A 
ATOM      4  C   UNL     1       2.478   6.076  19.798  0.00  0.00    +0.000 A 
ATOM      5  S   UNL     1       1.518   7.329  20.486  0.00  0.00    +0.000 S 
ENDROOT
BRANCH   3   6
ATOM      6  C   UNL     1       3.747   5.671  17.641  0.00  0.00    +0.000 A 
ATOM      7  C   UNL     1       3.711   4.293  17.572  0.00  0.00    +0.000 A 
ATOM      8  C   UNL     1       4.585   3.916  16.529  0.00  0.00    +0.000 A 
ATOM      9  C   UNL     1       5.177   5.085  16.093  0.00  0.00    +0.000 A 
ATOM     10  O   UNL     1       4.649   6.159  16.743  0.00  0.00    +0.000 OA
BRANCH   9  11
ATOM     11  P   UNL     1       6.609   5.131  14.954  0.00  0.00    +0.000 P 
ATOM     12  O   UNL     1       7.585   4.925  16.116  0.00  0.00    +0.000 OA
BRANCH  11  13
ATOM     13  O   UNL     1       6.319   3.613  14.411  0.00  0.00    +0.000 OA
ATOM     14  H   UNL     1       7.161   3.132  14.342  0.00  0.00    +0.000 HD
ENDBRANCH  11  13
BRANCH  11  15
ATOM     15  O   UNL     1       7.962   5.176  13.878  0.00  0.00    +0.000 OA
ATOM     16  H   UNL     1       7.663   5.761  13.153  0.00  0.00    +0.000 HD
ENDBRANCH  11  15
ENDBRANCH   9  11
ENDBRANCH   3   6
BRANCH   1  18
ATOM     17  C   UNL     1       0.364  10.055  19.982  0.00  0.00    +0.000 C 
ATOM     18  C   UNL     1       1.191   9.618  19.025  0.00  0.00    +0.000 C 
ENDBRANCH   1  18
BRANCH   4  19
ATOM     19  C   UNL     1       2.729   4.801  20.565  0.00  0.00    +0.000 C 
BRANCH  19  20
ATOM     20  C   UNL     1       1.464   3.946  20.807  0.00  0.00    +0.000 C 
ATOM     21  C   UNL     1       0.832   3.416  19.518  0.00  0.00    +0.000 C 
ATOM     22  C   UNL     1       1.783   2.768  21.736  0.00  0.00    +0.000 C 
ENDBRANCH  19  20
ENDBRANCH   4  19
TORSDOF 7
ENDMDL
MODEL 6
REMARK VINA RESULT:      -6.6      4.047      5.605
REMARK  Name = 
REMARK  9 active torsions:
REMARK  status: ('A' for Active; 'I' for Inactive)
REMARK    1  A    between atoms: C_2  and  C_3
REMARK    2  A    between atoms: C_5  and  C_6
REMARK    3  A    between atoms: C_9  and  P_10
REMARK    4  A    between atoms: P_10  and  O_12
REMARK    5  A    between atoms: P_10  and  O_13
REMARK    6  A    between atoms: C_15  and  C_16
REMARK    7  A    between atoms: C_16  and  C_17
REMARK    8  A    between atoms: C_17  and  C_18
REMARK    9  A    between atoms: C_17  and  C_19
REMARK                            x       y       z     vdW  Elec       q    Type
REMARK                         _______ _______ _______ _____ _____    ______ ____
ROOT
ATOM      1  C   UNL     1       6.012   4.007  14.249  0.00  0.00    +0.000 A 
ATOM      2  N   UNL     1       5.060   3.500  15.003  0.00  0.00    +0.000 NA
ATOM      3  C   UNL     1       4.896   4.242  16.156  0.00  0.00    +0.000 A 
ATOM      4  C   UNL     1       5.802   5.267  16.351  0.00  0.00    +0.000 A 
ATOM      5  S   UNL     1       6.830   5.353  14.973  0.00  0.00    +0.000 S 
ENDROOT
BRANCH   3   6
ATOM      6  C   UNL     1       3.817   3.888  17.113  0.00  0.00    +0.000 A 
ATOM      7  C   UNL     1       2.485   3.739  16.782  0.00  0.00    +0.000 A 
ATOM      8  C   UNL     1       1.817   3.332  17.958  0.00  0.00    +0.000 A 
ATOM      9  C   UNL     1       2.770   3.355  18.958  0.00  0.00    +0.000 A 
ATOM     10  O   UNL     1       3.993   3.662  18.445  0.00  0.00    +0.000 OA
BRANCH   9  11
ATOM     11  P   UNL     1       2.372   3.197  20.737  0.00  0.00    +0.000 P 
ATOM     12  O   UNL     1       2.519   4.708  20.942  0.00  0.00    +0.000 OA
BRANCH  11  13
ATOM     13  O   UNL     1       0.775   2.994  20.439  0.00  0.00    +0.000 OA
ATOM     14  H   UNL     1       0.496   3.623  19.752  0.00  0.00    +0.000 HD
ENDBRANCH  11  13
BRANCH  11  15
ATOM     15  O   UNL     1       1.998   3.048  22.420  0.00  0.00    +0.000 OA
ATOM     16  H   UNL     1       2.864   3.164  22.862  0.00  0.00    +0.000 HD
ENDBRANCH  11  15
ENDBRANCH   9  11
ENDBRANCH   3   6
BRANCH   1  18
ATOM     17  C   UNL     1       7.120   4.327  12.139  0.00  0.00    +0.000 C 
ATOM     18  C   UNL     1       6.394   3.557  12.956  0.00  0.00    +0.000 C 
ENDBRANCH   1  18
BRANCH   4  19
ATOM     19  C   UNL     1       6.010   6.205  17.515  0.00  0.00    +0.000 C 
BRANCH  19  20
ATOM     20  C   UNL     1       7.492   6.516  17.824  0.00  0.00    +0.000 C 
ATOM     21  C   UNL     1       7.823   8.009  17.778  0.00  0.00    +0.000 C 
ATOM     22  C   UNL     1       7.883   5.952  19.196  0.00  0.00    +0.000 C 
ENDBRANCH  19  20
ENDBRANCH   4  19
TORSDOF 7
ENDMDL
MODEL 7
REMARK VINA RESULT:      -6.5      0.736      1.308
REMARK  Name = 
REMARK  9 active torsions:
REMARK  status: ('A' for Active; 'I' for Inactive)
REMARK    1  A    between atoms: C_2  and  C_3
REMARK    2  A    between atoms: C_5  and  C_6
REMARK    3  A    between atoms: C_9  and  P_10
REMARK    4  A    between atoms: P_10  and  O_12
REMARK    5  A    between atoms: P_10  and  O_13
REMARK    6  A    between atoms: C_15  and  C_16
REMARK    7  A    between atoms: C_16  and  C_17
REMARK    8  A    between atoms: C_17  and  C_18
REMARK    9  A    between atoms: C_17  and  C_19
REMARK                            x       y       z     vdW  Elec       q    Type
REMARK                         _______ _______ _______ _____ _____    ______ ____
ROOT
ATOM      1  C   UNL     1       5.051   5.979  17.255  0.00  0.00    +0.000 A 
ATOM      2  N   UNL     1       4.422   7.056  17.677  0.00  0.00    +0.000 NA
ATOM      3  C   UNL     1       3.164   6.739  18.150  0.00  0.00    +0.000 A 
ATOM      4  C   UNL     1       2.771   5.424  17.992  0.00  0.00    +0.000 A 
ATOM      5  S   UNL     1       4.084   4.541  17.313  0.00  0.00    +0.000 S 
ENDROOT
BRANCH   3   6
ATOM      6  C   UNL     1       2.313   7.799  18.748  0.00  0.00    +0.000 A 
ATOM      7  C   UNL     1       1.806   8.885  18.063  0.00  0.00    +0.000 A 
ATOM      8  C   UNL     1       0.999   9.600  18.976  0.00  0.00    +0.000 A 
ATOM      9  C   UNL     1       1.146   8.958  20.189  0.00  0.00    +0.000 A 
ATOM     10  O   UNL     1       1.918   7.845  20.052  0.00  0.00    +0.000 OA
BRANCH   9  11
ATOM     11  P   UNL     1       0.547   9.646  21.776  0.00  0.00    +0.000 P 
ATOM     12  O   UNL     1       1.826   9.201  22.493  0.00  0.00    +0.000 OA
BRANCH  11  13
ATOM     13  O   UNL     1       0.869  11.184  21.316  0.00  0.00    +0.000 OA
ATOM     14  H   UNL     1       0.491  11.340  20.434  0.00  0.00    +0.000 HD
ENDBRANCH  11  13
BRANCH  11  15
ATOM     15  O   UNL     1      -0.019  10.295  23.276  0.00  0.00    +0.000 OA
ATOM     16  H   UNL     1       0.275   9.639  23.940  0.00  0.00    +0.000 HD
ENDBRANCH  11  15
ENDBRANCH   9  11
ENDBRANCH   3   6
BRANCH   1  18
ATOM     17  C   UNL     1       7.322   6.768  17.223  0.00  0.00    +0.000 C 
ATOM     18  C   UNL     1       6.390   5.915  16.784  0.00  0.00    +0.000 C 
ENDBRANCH   1  18
BRANCH   4  19
ATOM     19  C   UNL     1       1.458   4.736  18.276  0.00  0.00    +0.000 C 
BRANCH  19  20
ATOM     20  C   UNL     1       1.449   3.894  19.573  0.00  0.00    +0.000 C 
ATOM     21  C   UNL     1       1.832   2.430  19.351  0.00  0.00    +0.000 C 
ATOM     22  C   UNL     1       2.387   4.511  20.618  0.00  0.00    +0.000 C 
ENDBRANCH  19  20
ENDBRANCH   4  19
TORSDOF 7
ENDMDL
MODEL 8
REMARK VINA RESULT:      -6.5      3.656      5.556
REMARK  Name = 
REMARK  9 active torsions:
REMARK  status: ('A' for Active; 'I' for Inactive)
REMARK    1  A    between atoms: C_2  and  C_3
REMARK    2  A    between atoms: C_5  and  C_6
REMARK    3  A    between atoms: C_9  and  P_10
REMARK    4  A    between atoms: P_10  and  O_12
REMARK    5  A    between atoms: P_10  and  O_13
REMARK    6  A    between atoms: C_15  and  C_16
REMARK    7  A    between atoms: C_16  and  C_17
REMARK    8  A    between atoms: C_17  and  C_18
REMARK    9  A    between atoms: C_17  and  C_19
REMARK                            x       y       z     vdW  Elec       q    Type
REMARK                         _______ _______ _______ _____ _____    ______ ____
ROOT
ATOM      1  C   UNL     1       5.538   4.166  14.092  0.00  0.00    +0.000 A 
ATOM      2  N   UNL     1       4.601   4.169  15.017  0.00  0.00    +0.000 NA
ATOM      3  C   UNL     1       5.139   4.427  16.262  0.00  0.00    +0.000 A 
ATOM      4  C   UNL     1       6.516   4.515  16.322  0.00  0.00    +0.000 A 
ATOM      5  S   UNL     1       7.140   4.367  14.723  0.00  0.00    +0.000 S 
ENDROOT
BRANCH   3   6
ATOM      6  C   UNL     1       4.242   4.552  17.440  0.00  0.00    +0.000 A 
ATOM      7  C   UNL     1       3.640   5.724  17.853  0.00  0.00    +0.000 A 
ATOM      8  C   UNL     1       2.821   5.392  18.955  0.00  0.00    +0.000 A 
ATOM      9  C   UNL     1       3.054   4.055  19.207  0.00  0.00    +0.000 A 
ATOM     10  O   UNL     1       3.892   3.530  18.271  0.00  0.00    +0.000 OA
BRANCH   9  11
ATOM     11  P   UNL     1       2.469   3.192  20.712  0.00  0.00    +0.000 P 
ATOM     12  O   UNL     1       1.926   4.500  21.294  0.00  0.00    +0.000 OA
BRANCH  11  13
ATOM     13  O   UNL     1       1.182   2.546  19.931  0.00  0.00    +0.000 OA
ATOM     14  H   UNL     1       0.417   2.535  20.530  0.00  0.00    +0.000 HD
ENDBRANCH  11  13
BRANCH  11  15
ATOM     15  O   UNL     1       1.918   2.377  22.134  0.00  0.00    +0.000 OA
ATOM     16  H   UNL     1       2.567   2.638  22.819  0.00  0.00    +0.000 HD
ENDBRANCH  11  15
ENDBRANCH   9  11
ENDBRANCH   3   6
BRANCH   1  18
ATOM     17  C   UNL     1       5.885   3.003  12.016  0.00  0.00    +0.000 C 
ATOM     18  C   UNL     1       5.340   4.021  12.692  0.00  0.00    +0.000 C 
ENDBRANCH   1  18
BRANCH   4  19
ATOM     19  C   UNL     1       7.455   4.673  17.493  0.00  0.00    +0.000 C 
BRANCH  19  20
ATOM     20  C   UNL     1       7.218   5.951  18.329  0.00  0.00    +0.000 C 
ATOM     21  C   UNL     1       7.972   5.956  19.661  0.00  0.00    +0.000 C 
ATOM     22  C   UNL     1       7.604   7.198  17.523  0.00  0.00    +0.000 C 
ENDBRANCH  19  20
ENDBRANCH   4  19
TORSDOF 7
ENDMDL
MODEL 9
REMARK VINA RESULT:      -6.5      1.188      1.697
REMARK  Name = 
REMARK  9 active torsions:
REMARK  status: ('A' for Active; 'I' for Inactive)
REMARK    1  A    between atoms: C_2  and  C_3
REMARK    2  A    between atoms: C_5  and  C_6
REMARK    3  A    between atoms: C_9  and  P_10
REMARK    4  A    between atoms: P_10  and  O_12
REMARK    5  A    between atoms: P_10  and  O_13
REMARK    6  A    between atoms: C_15  and  C_16
REMARK    7  A    between atoms: C_16  and  C_17
REMARK    8  A    between atoms: C_17  and  C_18
REMARK    9  A    between atoms: C_17  and  C_19
REMARK                            x       y       z     vdW  Elec       q    Type
REMARK                         _______ _______ _______ _____ _____    ______ ____
ROOT
ATOM      1  C   UNL     1       4.597   5.662  17.366  0.00  0.00    +0.000 A 
ATOM      2  N   UNL     1       3.861   6.744  17.507  0.00  0.00    +0.000 NA
ATOM      3  C   UNL     1       3.076   6.663  18.640  0.00  0.00    +0.000 A 
ATOM      4  C   UNL     1       3.123   5.463  19.325  0.00  0.00    +0.000 A 
ATOM      5  S   UNL     1       4.279   4.444  18.557  0.00  0.00    +0.000 S 
ENDROOT
BRANCH   3   6
ATOM      6  C   UNL     1       2.224   7.815  19.030  0.00  0.00    +0.000 A 
ATOM      7  C   UNL     1       1.775   8.794  18.167  0.00  0.00    +0.000 A 
ATOM      8  C   UNL     1       0.943   9.650  18.922  0.00  0.00    +0.000 A 
ATOM      9  C   UNL     1       1.017   9.195  20.224  0.00  0.00    +0.000 A 
ATOM     10  O   UNL     1       1.769   8.062  20.291  0.00  0.00    +0.000 OA
BRANCH   9  11
ATOM     11  P   UNL     1       0.362  10.123  21.659  0.00  0.00    +0.000 P 
ATOM     12  O   UNL     1       1.364   9.447  22.599  0.00  0.00    +0.000 OA
BRANCH  11  13
ATOM     13  O   UNL     1       1.117  11.504  21.205  0.00  0.00    +0.000 OA
ATOM     14  H   UNL     1       0.704  11.842  20.393  0.00  0.00    +0.000 HD
ENDBRANCH  11  13
BRANCH  11  15
ATOM     15  O   UNL     1      -0.259  10.999  23.015  0.00  0.00    +0.000 OA
ATOM     16  H   UNL     1      -1.172  10.658  23.114  0.00  0.00    +0.000 HD
ENDBRANCH  11  15
ENDBRANCH   9  11
ENDBRANCH   3   6
BRANCH   1  18
ATOM     17  C   UNL     1       5.746   4.229  15.815  0.00  0.00    +0.000 C 
ATOM     18  C   UNL     1       5.581   5.436  16.365  0.00  0.00    +0.000 C 
ENDBRANCH   1  18
BRANCH   4  19
ATOM     19  C   UNL     1       2.343   4.966  20.517  0.00  0.00    +0.000 C 
BRANCH  19  20
ATOM     20  C   UNL     1       1.244   3.935  20.173  0.00  0.00    +0.000 C 
ATOM     21  C   UNL     1       1.141   3.632  18.676  0.00  0.00    +0.000 C 
ATOM     22  C   UNL     1       1.477   2.627  20.940  0.00  0.00    +0.000 C 
ENDBRANCH  19  20
ENDBRANCH   4  19
TORSDOF 7
ENDMDL
