MODEL 1
REMARK VINA RESULT:      -8.1      0.000      0.000
REMARK  Name = 
REMARK  15 active torsions:
REMARK  status: ('A' for Active; 'I' for Inactive)
REMARK    1  A    between atoms: C_1  and  O_2
REMARK    2  A    between atoms: O_2  and  C_3
REMARK    3  A    between atoms: C_7  and  O_8
REMARK    4  A    between atoms: O_8  and  C_9
REMARK    5  A    between atoms: C_9  and  C_10
REMARK    6  A    between atoms: C_11  and  C_12
REMARK    7  A    between atoms: N_14  and  C_15
REMARK    8  A    between atoms: C_15  and  C_16
REMARK    9  A    between atoms: C_15  and  C_17
REMARK   10  A    between atoms: C_17  and  C_18
REMARK   11  A    between atoms: C_21  and  C_22
REMARK   12  A    between atoms: C_22  and  C_23
REMARK   13  A    between atoms: C_22  and  C_24
REMARK   14  A    between atoms: C_34  and  O_35
REMARK   15  A    between atoms: O_35  and  C_36
REMARK                            x       y       z     vdW  Elec       q    Type
REMARK                         _______ _______ _______ _____ _____    ______ ____
ROOT
ATOM      1  C   UNL     1       7.342   7.706  17.603  0.00  0.00    +0.000 A 
ATOM      2  C   UNL     1       7.443   6.372  17.872  0.00  0.00    +0.000 A 
ATOM      3  N   UNL     1       6.517   5.820  17.043  0.00  0.00    +0.000 N 
ATOM      4  N   UNL     1       5.785   6.771  16.427  0.00  0.00    +0.000 NA
ATOM      5  N   UNL     1       6.301   7.948  16.764  0.00  0.00    +0.000 NA
ENDROOT
BRANCH   1   7
ATOM      6  C   UNL     1       8.980   9.675  18.493  0.00  0.00    +0.000 C 
ATOM      7  C   UNL     1       8.210   8.711  18.072  0.00  0.00    +0.000 C 
BRANCH   6   8
ATOM      8  C   UNL     1       9.878  10.799  18.984  0.00  0.00    +0.000 C 
BRANCH   8   9
ATOM      9  O   UNL     1       9.324  12.060  18.626  0.00  0.00    +0.000 OA
BRANCH   9  14
ATOM     10  C   UNL     1      11.090  15.310  18.067  0.00  0.00    +0.000 A 
ATOM     11  C   UNL     1      12.217  14.795  17.411  0.00  0.00    +0.000 A 
ATOM     12  C   UNL     1      12.333  13.430  17.156  0.00  0.00    +0.000 A 
ATOM     13  C   UNL     1      11.330  12.565  17.580  0.00  0.00    +0.000 A 
ATOM     14  C   UNL     1      10.229  13.047  18.295  0.00  0.00    +0.000 A 
ATOM     15  C   UNL     1      10.089  14.437  18.539  0.00  0.00    +0.000 A 
BRANCH  10  17
ATOM     16  C   UNL     1      10.671  17.445  17.134  0.00  0.00    +0.000 C 
ATOM     17  O   UNL     1      10.957  16.657  18.286  0.00  0.00    +0.000 OA
ENDBRANCH  10  17
BRANCH  15  18
ATOM     18  O   UNL     1       8.970  14.800  19.223  0.00  0.00    +0.000 OA
ATOM     19  C   UNL     1       8.879  14.712  20.634  0.00  0.00    +0.000 C 
ENDBRANCH  15  18
ENDBRANCH   9  14
ENDBRANCH   8   9
ENDBRANCH   6   8
ENDBRANCH   1   7
BRANCH   3  20
ATOM     20  C   UNL     1       6.345   4.425  16.676  0.00  0.00    +0.000 C 
ATOM     21  C   UNL     1       6.695   4.218  15.201  0.00  0.00    +0.000 C 
BRANCH  20  22
ATOM     22  C   UNL     1       4.938   3.879  16.972  0.00  0.00    +0.000 C 
BRANCH  22  23
ATOM     23  C   UNL     1       4.754   3.251  18.360  0.00  0.00    +0.000 C 
ATOM     24  C   UNL     1       3.810   2.069  18.422  0.00  0.00    +0.000 C 
ATOM     25  C   UNL     1       3.284   2.168  19.834  0.00  0.00    +0.000 C 
ATOM     26  C   UNL     1       3.251   3.668  20.113  0.00  0.00    +0.000 C 
ATOM     27  O   UNL     1       4.222   4.258  19.234  0.00  0.00    +0.000 OA
BRANCH  26  28
ATOM     28  C   UNL     1       1.876   4.322  19.886  0.00  0.00    +0.000 C 
ATOM     29  C   UNL     1       0.703   3.344  19.809  0.00  0.00    +0.000 C 
BRANCH  28  30
ATOM     30  C   UNL     1       1.923   5.172  18.615  0.00  0.00    +0.000 C 
ATOM     31  O   UNL     1       1.686   4.682  17.506  0.00  0.00    +0.000 OA
ATOM     32  N   UNL     1       2.244   6.508  18.742  0.00  0.00    +0.000 N 
ATOM     33  C   UNL     1       2.381   7.291  19.960  0.00  0.00    +0.000 C 
ATOM     34  C   UNL     1       1.727   8.607  19.584  0.00  0.00    +0.000 C 
ATOM     35  C   UNL     1       2.164   8.801  18.137  0.00  0.00    +0.000 C 
ATOM     36  C   UNL     1       2.241   7.381  17.578  0.00  0.00    +0.000 C 
ENDBRANCH  28  30
ENDBRANCH  26  28
ENDBRANCH  22  23
ENDBRANCH  20  22
ENDBRANCH   3  20
TORSDOF 11
ENDMDL
MODEL 2
REMARK VINA RESULT:      -7.3      1.538      2.196
REMARK  Name = 
REMARK  15 active torsions:
REMARK  status: ('A' for Active; 'I' for Inactive)
REMARK    1  A    between atoms: C_1  and  O_2
REMARK    2  A    between atoms: O_2  and  C_3
REMARK    3  A    between atoms: C_7  and  O_8
REMARK    4  A    between atoms: O_8  and  C_9
REMARK    5  A    between atoms: C_9  and  C_10
REMARK    6  A    between atoms: C_11  and  C_12
REMARK    7  A    between atoms: N_14  and  C_15
REMARK    8  A    between atoms: C_15  and  C_16
REMARK    9  A    between atoms: C_15  and  C_17
REMARK   10  A    between atoms: C_17  and  C_18
REMARK   11  A    between atoms: C_21  and  C_22
REMARK   12  A    between atoms: C_22  and  C_23
REMARK   13  A    between atoms: C_22  and  C_24
REMARK   14  A    between atoms: C_34  and  O_35
REMARK   15  A    between atoms: O_35  and  C_36
REMARK                            x       y       z     vdW  Elec       q    Type
REMARK                         _______ _______ _______ _____ _____    ______ ____
ROOT
ATOM      1  C   UNL     1       6.969   7.512  17.406  0.00  0.00    +0.000 A 
ATOM      2  C   UNL     1       6.813   6.258  17.921  0.00  0.00    +0.000 A 
ATOM      3  N   UNL     1       6.018   5.645  17.003  0.00  0.00    +0.000 N 
ATOM      4  N   UNL     1       5.584   6.520  16.072  0.00  0.00    +0.000 NA
ATOM      5  N   UNL     1       6.182   7.683  16.312  0.00  0.00    +0.000 NA
ENDROOT
BRANCH   1   7
ATOM      6  C   UNL     1       8.645   9.445  18.304  0.00  0.00    +0.000 C 
ATOM      7  C   UNL     1       7.853   8.498  17.886  0.00  0.00    +0.000 C 
BRANCH   6   8
ATOM      8  C   UNL     1       9.570  10.549  18.793  0.00  0.00    +0.000 C 
BRANCH   8   9
ATOM      9  O   UNL     1       9.405  11.715  17.994  0.00  0.00    +0.000 OA
BRANCH   9  14
ATOM     10  C   UNL     1      11.334  14.670  19.233  0.00  0.00    +0.000 A 
ATOM     11  C   UNL     1      12.315  14.680  18.231  0.00  0.00    +0.000 A 
ATOM     12  C   UNL     1      12.286  13.752  17.193  0.00  0.00    +0.000 A 
ATOM     13  C   UNL     1      11.283  12.788  17.162  0.00  0.00    +0.000 A 
ATOM     14  C   UNL     1      10.333  12.717  18.186  0.00  0.00    +0.000 A 
ATOM     15  C   UNL     1      10.340  13.670  19.235  0.00  0.00    +0.000 A 
BRANCH  10  17
ATOM     16  C   UNL     1      10.890  16.907  19.869  0.00  0.00    +0.000 C 
ATOM     17  O   UNL     1      11.341  15.606  20.235  0.00  0.00    +0.000 OA
ENDBRANCH  10  17
BRANCH  15  18
ATOM     18  O   UNL     1       9.358  13.523  20.164  0.00  0.00    +0.000 OA
ATOM     19  C   UNL     1       8.137  14.241  20.102  0.00  0.00    +0.000 C 
ENDBRANCH  15  18
ENDBRANCH   9  14
ENDBRANCH   8   9
ENDBRANCH   6   8
ENDBRANCH   1   7
BRANCH   3  20
ATOM     20  C   UNL     1       5.727   4.230  16.857  0.00  0.00    +0.000 C 
ATOM     21  C   UNL     1       6.424   3.672  15.615  0.00  0.00    +0.000 C 
BRANCH  20  22
ATOM     22  C   UNL     1       4.223   3.911  16.813  0.00  0.00    +0.000 C 
BRANCH  22  23
ATOM     23  C   UNL     1       3.509   3.917  18.170  0.00  0.00    +0.000 C 
ATOM     24  C   UNL     1       2.006   3.738  18.118  0.00  0.00    +0.000 C 
ATOM     25  C   UNL     1       1.563   4.490  19.350  0.00  0.00    +0.000 C 
ATOM     26  C   UNL     1       2.570   5.630  19.472  0.00  0.00    +0.000 C 
ATOM     27  O   UNL     1       3.757   5.185  18.795  0.00  0.00    +0.000 OA
BRANCH  26  28
ATOM     28  C   UNL     1       2.092   6.962  18.866  0.00  0.00    +0.000 C 
ATOM     29  C   UNL     1       3.105   7.652  17.952  0.00  0.00    +0.000 C 
BRANCH  28  30
ATOM     30  C   UNL     1       1.684   7.913  19.993  0.00  0.00    +0.000 C 
ATOM     31  O   UNL     1       1.839   7.606  21.180  0.00  0.00    +0.000 OA
ATOM     32  N   UNL     1       1.129   9.128  19.645  0.00  0.00    +0.000 N 
ATOM     33  C   UNL     1       1.030   9.728  18.324  0.00  0.00    +0.000 C 
ATOM     34  C   UNL     1       1.346  11.187  18.598  0.00  0.00    +0.000 C 
ATOM     35  C   UNL     1       0.663  11.435  19.937  0.00  0.00    +0.000 C 
ATOM     36  C   UNL     1       0.781  10.100  20.670  0.00  0.00    +0.000 C 
ENDBRANCH  28  30
ENDBRANCH  26  28
ENDBRANCH  22  23
ENDBRANCH  20  22
ENDBRANCH   3  20
TORSDOF 11
ENDMDL
MODEL 3
REMARK VINA RESULT:      -7.2      1.806      2.588
REMARK  Name = 
REMARK  15 active torsions:
REMARK  status: ('A' for Active; 'I' for Inactive)
REMARK    1  A    between atoms: C_1  and  O_2
REMARK    2  A    between atoms: O_2  and  C_3
REMARK    3  A    between atoms: C_7  and  O_8
REMARK    4  A    between atoms: O_8  and  C_9
REMARK    5  A    between atoms: C_9  and  C_10
REMARK    6  A    between atoms: C_11  and  C_12
REMARK    7  A    between atoms: N_14  and  C_15
REMARK    8  A    between atoms: C_15  and  C_16
REMARK    9  A    between atoms: C_15  and  C_17
REMARK   10  A    between atoms: C_17  and  C_18
REMARK   11  A    between atoms: C_21  and  C_22
REMARK   12  A    between atoms: C_22  and  C_23
REMARK   13  A    between atoms: C_22  and  C_24
REMARK   14  A    between atoms: C_34  and  O_35
REMARK   15  A    between atoms: O_35  and  C_36
REMARK                            x       y       z     vdW  Elec       q    Type
REMARK                         _______ _______ _______ _____ _____    ______ ____
ROOT
ATOM      1  C   UNL     1       7.434   6.711  17.707  0.00  0.00    +0.000 A 
ATOM      2  C   UNL     1       6.862   6.118  16.619  0.00  0.00    +0.000 A 
ATOM      3  N   UNL     1       6.499   4.895  17.089  0.00  0.00    +0.000 N 
ATOM      4  N   UNL     1       6.967   4.694  18.339  0.00  0.00    +0.000 NA
ATOM      5  N   UNL     1       7.541   5.826  18.733  0.00  0.00    +0.000 NA
ENDROOT
BRANCH   1   7
ATOM      6  C   UNL     1       8.145   9.323  17.862  0.00  0.00    +0.000 C 
ATOM      7  C   UNL     1       7.822   8.061  17.804  0.00  0.00    +0.000 C 
BRANCH   6   8
ATOM      8  C   UNL     1       8.521  10.794  17.931  0.00  0.00    +0.000 C 
BRANCH   8   9
ATOM      9  O   UNL     1       8.896  11.142  19.259  0.00  0.00    +0.000 OA
BRANCH   9  14
ATOM     10  C   UNL     1      10.939  14.264  19.526  0.00  0.00    +0.000 A 
ATOM     11  C   UNL     1      12.202  13.657  19.516  0.00  0.00    +0.000 A 
ATOM     12  C   UNL     1      12.329  12.274  19.394  0.00  0.00    +0.000 A 
ATOM     13  C   UNL     1      11.188  11.486  19.303  0.00  0.00    +0.000 A 
ATOM     14  C   UNL     1       9.915  12.063  19.379  0.00  0.00    +0.000 A 
ATOM     15  C   UNL     1       9.775  13.470  19.480  0.00  0.00    +0.000 A 
BRANCH  10  17
ATOM     16  C   UNL     1      10.550  16.144  20.912  0.00  0.00    +0.000 C 
ATOM     17  O   UNL     1      10.813  15.627  19.610  0.00  0.00    +0.000 OA
ENDBRANCH  10  17
BRANCH  15  18
ATOM     18  O   UNL     1       8.494  13.926  19.522  0.00  0.00    +0.000 OA
ATOM     19  C   UNL     1       7.878  14.567  18.418  0.00  0.00    +0.000 C 
ENDBRANCH  15  18
ENDBRANCH   9  14
ENDBRANCH   8   9
ENDBRANCH   6   8
ENDBRANCH   1   7
BRANCH   3  20
ATOM     20  C   UNL     1       5.611   3.918  16.484  0.00  0.00    +0.000 C 
ATOM     21  C   UNL     1       5.740   3.957  14.960  0.00  0.00    +0.000 C 
BRANCH  20  22
ATOM     22  C   UNL     1       4.139   4.083  16.898  0.00  0.00    +0.000 C 
BRANCH  22  23
ATOM     23  C   UNL     1       3.899   4.313  18.396  0.00  0.00    +0.000 C 
ATOM     24  C   UNL     1       2.548   3.871  18.917  0.00  0.00    +0.000 C 
ATOM     25  C   UNL     1       2.332   4.826  20.066  0.00  0.00    +0.000 C 
ATOM     26  C   UNL     1       3.010   6.114  19.611  0.00  0.00    +0.000 C 
ATOM     27  O   UNL     1       4.003   5.722  18.649  0.00  0.00    +0.000 OA
BRANCH  26  28
ATOM     28  C   UNL     1       2.053   7.144  18.983  0.00  0.00    +0.000 C 
ATOM     29  C   UNL     1       2.630   7.919  17.797  0.00  0.00    +0.000 C 
BRANCH  28  30
ATOM     30  C   UNL     1       1.586   8.124  20.061  0.00  0.00    +0.000 C 
ATOM     31  O   UNL     1       1.553   7.800  21.252  0.00  0.00    +0.000 OA
ATOM     32  N   UNL     1       1.195   9.386  19.661  0.00  0.00    +0.000 N 
ATOM     33  C   UNL     1       1.328   9.998  18.348  0.00  0.00    +0.000 C 
ATOM     34  C   UNL     1       1.736  11.420  18.685  0.00  0.00    +0.000 C 
ATOM     35  C   UNL     1       0.906  11.726  19.925  0.00  0.00    +0.000 C 
ATOM     36  C   UNL     1       0.803  10.383  20.646  0.00  0.00    +0.000 C 
ENDBRANCH  28  30
ENDBRANCH  26  28
ENDBRANCH  22  23
ENDBRANCH  20  22
ENDBRANCH   3  20
TORSDOF 11
ENDMDL
MODEL 4
REMARK VINA RESULT:      -7.2      2.309      3.451
REMARK  Name = 
REMARK  15 active torsions:
REMARK  status: ('A' for Active; 'I' for Inactive)
REMARK    1  A    between atoms: C_1  and  O_2
REMARK    2  A    between atoms: O_2  and  C_3
REMARK    3  A    between atoms: C_7  and  O_8
REMARK    4  A    between atoms: O_8  and  C_9
REMARK    5  A    between atoms: C_9  and  C_10
REMARK    6  A    between atoms: C_11  and  C_12
REMARK    7  A    between atoms: N_14  and  C_15
REMARK    8  A    between atoms: C_15  and  C_16
REMARK    9  A    between atoms: C_15  and  C_17
REMARK   10  A    between atoms: C_17  and  C_18
REMARK   11  A    between atoms: C_21  and  C_22
REMARK   12  A    between atoms: C_22  and  C_23
REMARK   13  A    between atoms: C_22  and  C_24
REMARK   14  A    between atoms: C_34  and  O_35
REMARK   15  A    between atoms: O_35  and  C_36
REMARK                            x       y       z     vdW  Elec       q    Type
REMARK                         _______ _______ _______ _____ _____    ______ ____
ROOT
ATOM      1  C   UNL     1       7.629   6.745  18.064  0.00  0.00    +0.000 A 
ATOM      2  C   UNL     1       6.855   6.333  17.020  0.00  0.00    +0.000 A 
ATOM      3  N   UNL     1       6.463   5.087  17.399  0.00  0.00    +0.000 N 
ATOM      4  N   UNL     1       7.093   4.701  18.529  0.00  0.00    +0.000 NA
ATOM      5  N   UNL     1       7.812   5.734  18.954  0.00  0.00    +0.000 NA
ENDROOT
BRANCH   1   7
ATOM      6  C   UNL     1       8.628   9.233  18.470  0.00  0.00    +0.000 C 
ATOM      7  C   UNL     1       8.141   8.044  18.251  0.00  0.00    +0.000 C 
BRANCH   6   8
ATOM      8  C   UNL     1       9.196  10.620  18.725  0.00  0.00    +0.000 C 
BRANCH   8   9
ATOM      9  O   UNL     1       9.588  10.746  20.087  0.00  0.00    +0.000 OA
BRANCH   9  14
ATOM     10  C   UNL     1       9.413  14.082  21.771  0.00  0.00    +0.000 A 
ATOM     11  C   UNL     1      10.527  14.660  21.146  0.00  0.00    +0.000 A 
ATOM     12  C   UNL     1      11.258  13.954  20.193  0.00  0.00    +0.000 A 
ATOM     13  C   UNL     1      10.891  12.651  19.874  0.00  0.00    +0.000 A 
ATOM     14  C   UNL     1       9.825  12.030  20.533  0.00  0.00    +0.000 A 
ATOM     15  C   UNL     1       9.061  12.747  21.487  0.00  0.00    +0.000 A 
BRANCH  10  17
ATOM     16  C   UNL     1       7.901  15.864  22.151  0.00  0.00    +0.000 C 
ATOM     17  O   UNL     1       8.671  14.789  22.682  0.00  0.00    +0.000 OA
ENDBRANCH  10  17
BRANCH  15  18
ATOM     18  O   UNL     1       8.032  12.056  22.049  0.00  0.00    +0.000 OA
ATOM     19  C   UNL     1       8.077  11.572  23.380  0.00  0.00    +0.000 C 
ENDBRANCH  15  18
ENDBRANCH   9  14
ENDBRANCH   8   9
ENDBRANCH   6   8
ENDBRANCH   1   7
BRANCH   3  20
ATOM     20  C   UNL     1       5.416   4.253  16.835  0.00  0.00    +0.000 C 
ATOM     21  C   UNL     1       5.630   4.083  15.330  0.00  0.00    +0.000 C 
BRANCH  20  22
ATOM     22  C   UNL     1       3.997   4.773  17.116  0.00  0.00    +0.000 C 
BRANCH  22  23
ATOM     23  C   UNL     1       3.708   5.139  18.578  0.00  0.00    +0.000 C 
ATOM     24  C   UNL     1       2.393   4.631  19.131  0.00  0.00    +0.000 C 
ATOM     25  C   UNL     1       2.069   5.679  20.169  0.00  0.00    +0.000 C 
ATOM     26  C   UNL     1       2.634   6.969  19.582  0.00  0.00    +0.000 C 
ATOM     27  O   UNL     1       3.677   6.571  18.677  0.00  0.00    +0.000 OA
BRANCH  26  28
ATOM     28  C   UNL     1       1.599   7.832  18.838  0.00  0.00    +0.000 C 
ATOM     29  C   UNL     1       1.869   8.013  17.343  0.00  0.00    +0.000 C 
BRANCH  28  30
ATOM     30  C   UNL     1       1.500   9.200  19.514  0.00  0.00    +0.000 C 
ATOM     31  O   UNL     1       1.848  10.232  18.929  0.00  0.00    +0.000 OA
ATOM     32  N   UNL     1       1.013   9.251  20.804  0.00  0.00    +0.000 N 
ATOM     33  C   UNL     1       0.401   8.183  21.579  0.00  0.00    +0.000 C 
ATOM     34  C   UNL     1      -0.737   8.896  22.285  0.00  0.00    +0.000 C 
ATOM     35  C   UNL     1      -0.127  10.249  22.629  0.00  0.00    +0.000 C 
ATOM     36  C   UNL     1       0.836  10.529  21.476  0.00  0.00    +0.000 C 
ENDBRANCH  28  30
ENDBRANCH  26  28
ENDBRANCH  22  23
ENDBRANCH  20  22
ENDBRANCH   3  20
TORSDOF 11
ENDMDL
MODEL 5
REMARK VINA RESULT:      -7.2      5.795      9.543
REMARK  Name = 
REMARK  15 active torsions:
REMARK  status: ('A' for Active; 'I' for Inactive)
REMARK    1  A    between atoms: C_1  and  O_2
REMARK    2  A    between atoms: O_2  and  C_3
REMARK    3  A    between atoms: C_7  and  O_8
REMARK    4  A    between atoms: O_8  and  C_9
REMARK    5  A    between atoms: C_9  and  C_10
REMARK    6  A    between atoms: C_11  and  C_12
REMARK    7  A    between atoms: N_14  and  C_15
REMARK    8  A    between atoms: C_15  and  C_16
REMARK    9  A    between atoms: C_15  and  C_17
REMARK   10  A    between atoms: C_17  and  C_18
REMARK   11  A    between atoms: C_21  and  C_22
REMARK   12  A    between atoms: C_22  and  C_23
REMARK   13  A    between atoms: C_22  and  C_24
REMARK   14  A    between atoms: C_34  and  O_35
REMARK   15  A    between atoms: O_35  and  C_36
REMARK                            x       y       z     vdW  Elec       q    Type
REMARK                         _______ _______ _______ _____ _____    ______ ____
ROOT
ATOM      1  C   UNL     1       2.274   7.821  18.303  0.00  0.00    +0.000 A 
ATOM      2  C   UNL     1       1.508   8.288  19.332  0.00  0.00    +0.000 A 
ATOM      3  N   UNL     1       1.097   9.504  18.883  0.00  0.00    +0.000 N 
ATOM      4  N   UNL     1       1.707   9.828  17.724  0.00  0.00    +0.000 NA
ATOM      5  N   UNL     1       2.434   8.779  17.352  0.00  0.00    +0.000 NA
ENDROOT
BRANCH   1   7
ATOM      6  C   UNL     1       3.276   5.307  18.130  0.00  0.00    +0.000 C 
ATOM      7  C   UNL     1       2.799   6.520  18.188  0.00  0.00    +0.000 C 
BRANCH   6   8
ATOM      8  C   UNL     1       3.832   3.894  18.062  0.00  0.00    +0.000 C 
BRANCH   8   9
ATOM      9  O   UNL     1       5.092   3.896  17.401  0.00  0.00    +0.000 OA
BRANCH   9  14
ATOM     10  C   UNL     1       7.466   6.777  17.637  0.00  0.00    +0.000 A 
ATOM     11  C   UNL     1       7.897   6.551  18.952  0.00  0.00    +0.000 A 
ATOM     12  C   UNL     1       7.421   5.464  19.683  0.00  0.00    +0.000 A 
ATOM     13  C   UNL     1       6.490   4.606  19.108  0.00  0.00    +0.000 A 
ATOM     14  C   UNL     1       5.995   4.849  17.822  0.00  0.00    +0.000 A 
ATOM     15  C   UNL     1       6.489   5.939  17.062  0.00  0.00    +0.000 A 
BRANCH  10  17
ATOM     16  C   UNL     1       8.041   9.074  17.589  0.00  0.00    +0.000 C 
ATOM     17  O   UNL     1       7.960   7.826  16.905  0.00  0.00    +0.000 OA
ENDBRANCH  10  17
BRANCH  15  18
ATOM     18  O   UNL     1       5.958   6.070  15.817  0.00  0.00    +0.000 OA
ATOM     19  C   UNL     1       4.995   7.061  15.500  0.00  0.00    +0.000 C 
ENDBRANCH  15  18
ENDBRANCH   9  14
ENDBRANCH   8   9
ENDBRANCH   6   8
ENDBRANCH   1   7
BRANCH   3  20
ATOM     20  C   UNL     1       0.046  10.358  19.410  0.00  0.00    +0.000 C 
ATOM     21  C   UNL     1      -0.953  10.709  18.307  0.00  0.00    +0.000 C 
BRANCH  20  22
ATOM     22  C   UNL     1       0.572  11.637  20.082  0.00  0.00    +0.000 C 
BRANCH  22  23
ATOM     23  C   UNL     1       0.168  11.824  21.550  0.00  0.00    +0.000 C 
ATOM     24  C   UNL     1      -0.598  10.674  22.168  0.00  0.00    +0.000 C 
ATOM     25  C   UNL     1      -1.435  11.382  23.206  0.00  0.00    +0.000 C 
ATOM     26  C   UNL     1      -1.731  12.741  22.579  0.00  0.00    +0.000 C 
ATOM     27  O   UNL     1      -0.676  12.981  21.633  0.00  0.00    +0.000 OA
BRANCH  26  28
ATOM     28  C   UNL     1      -3.096  12.826  21.871  0.00  0.00    +0.000 C 
ATOM     29  C   UNL     1      -3.023  13.014  20.355  0.00  0.00    +0.000 C 
BRANCH  28  30
ATOM     30  C   UNL     1      -3.919  13.957  22.491  0.00  0.00    +0.000 C 
ATOM     31  O   UNL     1      -3.381  14.990  22.904  0.00  0.00    +0.000 OA
ATOM     32  N   UNL     1      -5.286  13.788  22.582  0.00  0.00    +0.000 N 
ATOM     33  C   UNL     1      -6.104  12.735  22.001  0.00  0.00    +0.000 C 
ATOM     34  C   UNL     1      -7.328  13.493  21.521  0.00  0.00    +0.000 C 
ATOM     35  C   UNL     1      -7.540  14.525  22.622  0.00  0.00    +0.000 C 
ATOM     36  C   UNL     1      -6.127  14.854  23.102  0.00  0.00    +0.000 C 
ENDBRANCH  28  30
ENDBRANCH  26  28
ENDBRANCH  22  23
ENDBRANCH  20  22
ENDBRANCH   3  20
TORSDOF 11
ENDMDL
MODEL 6
REMARK VINA RESULT:      -7.1      3.468     10.879
REMARK  Name = 
REMARK  15 active torsions:
REMARK  status: ('A' for Active; 'I' for Inactive)
REMARK    1  A    between atoms: C_1  and  O_2
REMARK    2  A    between atoms: O_2  and  C_3
REMARK    3  A    between atoms: C_7  and  O_8
REMARK    4  A    between atoms: O_8  and  C_9
REMARK    5  A    between atoms: C_9  and  C_10
REMARK    6  A    between atoms: C_11  and  C_12
REMARK    7  A    between atoms: N_14  and  C_15
REMARK    8  A    between atoms: C_15  and  C_16
REMARK    9  A    between atoms: C_15  and  C_17
REMARK   10  A    between atoms: C_17  and  C_18
REMARK   11  A    between atoms: C_21  and  C_22
REMARK   12  A    between atoms: C_22  and  C_23
REMARK   13  A    between atoms: C_22  and  C_24
REMARK   14  A    between atoms: C_34  and  O_35
REMARK   15  A    between atoms: O_35  and  C_36
REMARK                            x       y       z     vdW  Elec       q    Type
REMARK                         _______ _______ _______ _____ _____    ______ ____
ROOT
ATOM      1  C   UNL     1       8.972  10.470  18.532  0.00  0.00    +0.000 A 
ATOM      2  C   UNL     1       8.941  11.741  18.037  0.00  0.00    +0.000 A 
ATOM      3  N   UNL     1       9.876  12.386  18.784  0.00  0.00    +0.000 N 
ATOM      4  N   UNL     1      10.331  11.599  19.782  0.00  0.00    +0.000 NA
ATOM      5  N   UNL     1       9.779  10.400  19.624  0.00  0.00    +0.000 NA
ENDROOT
BRANCH   1   7
ATOM      6  C   UNL     1       7.734   8.289  17.500  0.00  0.00    +0.000 C 
ATOM      7  C   UNL     1       8.313   9.353  17.983  0.00  0.00    +0.000 C 
BRANCH   6   8
ATOM      8  C   UNL     1       7.059   7.050  16.936  0.00  0.00    +0.000 C 
BRANCH   8   9
ATOM      9  O   UNL     1       7.237   5.950  17.821  0.00  0.00    +0.000 OA
BRANCH   9  14
ATOM     10  C   UNL     1       4.325   3.607  17.975  0.00  0.00    +0.000 A 
ATOM     11  C   UNL     1       3.698   4.169  19.096  0.00  0.00    +0.000 A 
ATOM     12  C   UNL     1       4.232   5.292  19.725  0.00  0.00    +0.000 A 
ATOM     13  C   UNL     1       5.414   5.848  19.249  0.00  0.00    +0.000 A 
ATOM     14  C   UNL     1       6.093   5.265  18.173  0.00  0.00    +0.000 A 
ATOM     15  C   UNL     1       5.546   4.137  17.512  0.00  0.00    +0.000 A 
BRANCH  10  17
ATOM     16  C   UNL     1       2.403   2.277  17.598  0.00  0.00    +0.000 C 
ATOM     17  O   UNL     1       3.781   2.524  17.333  0.00  0.00    +0.000 OA
ENDBRANCH  10  17
BRANCH  15  18
ATOM     18  O   UNL     1       6.275   3.665  16.464  0.00  0.00    +0.000 OA
ATOM     19  C   UNL     1       6.007   4.035  15.123  0.00  0.00    +0.000 C 
ENDBRANCH  15  18
ENDBRANCH   9  14
ENDBRANCH   8   9
ENDBRANCH   6   8
ENDBRANCH   1   7
BRANCH   3  20
ATOM     20  C   UNL     1      10.488  13.683  18.551  0.00  0.00    +0.000 C 
ATOM     21  C   UNL     1      11.484  13.597  17.393  0.00  0.00    +0.000 C 
BRANCH  20  22
ATOM     22  C   UNL     1      11.167  14.277  19.796  0.00  0.00    +0.000 C 
BRANCH  22  23
ATOM     23  C   UNL     1      10.312  15.260  20.606  0.00  0.00    +0.000 C 
ATOM     24  C   UNL     1       9.292  14.632  21.531  0.00  0.00    +0.000 C 
ATOM     25  C   UNL     1       8.217  15.692  21.572  0.00  0.00    +0.000 C 
ATOM     26  C   UNL     1       8.261  16.318  20.181  0.00  0.00    +0.000 C 
ATOM     27  O   UNL     1       9.587  16.083  19.680  0.00  0.00    +0.000 OA
BRANCH  26  28
ATOM     28  C   UNL     1       7.223  15.745  19.198  0.00  0.00    +0.000 C 
ATOM     29  C   UNL     1       7.727  15.562  17.766  0.00  0.00    +0.000 C 
BRANCH  28  30
ATOM     30  C   UNL     1       5.981  16.638  19.197  0.00  0.00    +0.000 C 
ATOM     31  O   UNL     1       6.075  17.869  19.224  0.00  0.00    +0.000 OA
ATOM     32  N   UNL     1       4.744  16.025  19.169  0.00  0.00    +0.000 N 
ATOM     33  C   UNL     1       4.439  14.618  18.962  0.00  0.00    +0.000 C 
ATOM     34  C   UNL     1       3.219  14.672  18.063  0.00  0.00    +0.000 C 
ATOM     35  C   UNL     1       2.443  15.861  18.616  0.00  0.00    +0.000 C 
ATOM     36  C   UNL     1       3.528  16.821  19.101  0.00  0.00    +0.000 C 
ENDBRANCH  28  30
ENDBRANCH  26  28
ENDBRANCH  22  23
ENDBRANCH  20  22
ENDBRANCH   3  20
TORSDOF 11
ENDMDL
MODEL 7
REMARK VINA RESULT:      -7.1      4.195     10.769
REMARK  Name = 
REMARK  15 active torsions:
REMARK  status: ('A' for Active; 'I' for Inactive)
REMARK    1  A    between atoms: C_1  and  O_2
REMARK    2  A    between atoms: O_2  and  C_3
REMARK    3  A    between atoms: C_7  and  O_8
REMARK    4  A    between atoms: O_8  and  C_9
REMARK    5  A    between atoms: C_9  and  C_10
REMARK    6  A    between atoms: C_11  and  C_12
REMARK    7  A    between atoms: N_14  and  C_15
REMARK    8  A    between atoms: C_15  and  C_16
REMARK    9  A    between atoms: C_15  and  C_17
REMARK   10  A    between atoms: C_17  and  C_18
REMARK   11  A    between atoms: C_21  and  C_22
REMARK   12  A    between atoms: C_22  and  C_23
REMARK   13  A    between atoms: C_22  and  C_24
REMARK   14  A    between atoms: C_34  and  O_35
REMARK   15  A    between atoms: O_35  and  C_36
REMARK                            x       y       z     vdW  Elec       q    Type
REMARK                         _______ _______ _______ _____ _____    ______ ____
ROOT
ATOM      1  C   UNL     1       0.743   8.998  21.215  0.00  0.00    +0.000 A 
ATOM      2  C   UNL     1      -0.231   9.690  20.557  0.00  0.00    +0.000 A 
ATOM      3  N   UNL     1      -0.299  10.860  21.248  0.00  0.00    +0.000 N 
ATOM      4  N   UNL     1       0.470  10.817  22.356  0.00  0.00    +0.000 NA
ATOM      5  N   UNL     1       1.130   9.664  22.335  0.00  0.00    +0.000 NA
ENDROOT
BRANCH   1   7
ATOM      6  C   UNL     1       1.824   6.658  20.375  0.00  0.00    +0.000 C 
ATOM      7  C   UNL     1       1.325   7.788  20.793  0.00  0.00    +0.000 C 
BRANCH   6   8
ATOM      8  C   UNL     1       2.406   5.341  19.887  0.00  0.00    +0.000 C 
BRANCH   8   9
ATOM      9  O   UNL     1       3.816   5.455  19.736  0.00  0.00    +0.000 OA
BRANCH   9  14
ATOM     10  C   UNL     1       5.288   4.594  16.406  0.00  0.00    +0.000 A 
ATOM     11  C   UNL     1       5.253   5.882  15.853  0.00  0.00    +0.000 A 
ATOM     12  C   UNL     1       4.785   6.965  16.593  0.00  0.00    +0.000 A 
ATOM     13  C   UNL     1       4.324   6.762  17.890  0.00  0.00    +0.000 A 
ATOM     14  C   UNL     1       4.287   5.476  18.439  0.00  0.00    +0.000 A 
ATOM     15  C   UNL     1       4.782   4.371  17.703  0.00  0.00    +0.000 A 
BRANCH  10  17
ATOM     16  C   UNL     1       6.245   3.835  14.377  0.00  0.00    +0.000 C 
ATOM     17  O   UNL     1       5.783   3.533  15.692  0.00  0.00    +0.000 OA
ENDBRANCH  10  17
BRANCH  15  18
ATOM     18  O   UNL     1       4.721   3.170  18.341  0.00  0.00    +0.000 OA
ATOM     19  C   UNL     1       3.634   2.276  18.176  0.00  0.00    +0.000 C 
ENDBRANCH  15  18
ENDBRANCH   9  14
ENDBRANCH   8   9
ENDBRANCH   6   8
ENDBRANCH   1   7
BRANCH   3  20
ATOM     20  C   UNL     1      -0.954  12.100  20.870  0.00  0.00    +0.000 C 
ATOM     21  C   UNL     1      -1.693  11.925  19.542  0.00  0.00    +0.000 C 
BRANCH  20  22
ATOM     22  C   UNL     1       0.002  13.302  20.793  0.00  0.00    +0.000 C 
BRANCH  22  23
ATOM     23  C   UNL     1       0.737  13.475  19.458  0.00  0.00    +0.000 C 
ATOM     24  C   UNL     1       1.870  12.504  19.205  0.00  0.00    +0.000 C 
ATOM     25  C   UNL     1       2.783  13.319  18.320  0.00  0.00    +0.000 C 
ATOM     26  C   UNL     1       2.599  14.750  18.814  0.00  0.00    +0.000 C 
ATOM     27  O   UNL     1       1.302  14.794  19.431  0.00  0.00    +0.000 OA
BRANCH  26  28
ATOM     28  C   UNL     1       3.671  15.215  19.818  0.00  0.00    +0.000 C 
ATOM     29  C   UNL     1       3.122  15.792  21.123  0.00  0.00    +0.000 C 
BRANCH  28  30
ATOM     30  C   UNL     1       4.584  16.240  19.144  0.00  0.00    +0.000 C 
ATOM     31  O   UNL     1       4.122  17.219  18.548  0.00  0.00    +0.000 OA
ATOM     32  N   UNL     1       5.948  16.039  19.218  0.00  0.00    +0.000 N 
ATOM     33  C   UNL     1       6.673  15.058  20.010  0.00  0.00    +0.000 C 
ATOM     34  C   UNL     1       7.864  15.853  20.512  0.00  0.00    +0.000 C 
ATOM     35  C   UNL     1       8.216  16.727  19.314  0.00  0.00    +0.000 C 
ATOM     36  C   UNL     1       6.868  17.013  18.653  0.00  0.00    +0.000 C 
ENDBRANCH  28  30
ENDBRANCH  26  28
ENDBRANCH  22  23
ENDBRANCH  20  22
ENDBRANCH   3  20
TORSDOF 11
ENDMDL
MODEL 8
REMARK VINA RESULT:      -7.0      6.012      9.007
REMARK  Name = 
REMARK  15 active torsions:
REMARK  status: ('A' for Active; 'I' for Inactive)
REMARK    1  A    between atoms: C_1  and  O_2
REMARK    2  A    between atoms: O_2  and  C_3
REMARK    3  A    between atoms: C_7  and  O_8
REMARK    4  A    between atoms: O_8  and  C_9
REMARK    5  A    between atoms: C_9  and  C_10
REMARK    6  A    between atoms: C_11  and  C_12
REMARK    7  A    between atoms: N_14  and  C_15
REMARK    8  A    between atoms: C_15  and  C_16
REMARK    9  A    between atoms: C_15  and  C_17
REMARK   10  A    between atoms: C_17  and  C_18
REMARK   11  A    between atoms: C_21  and  C_22
REMARK   12  A    between atoms: C_22  and  C_23
REMARK   13  A    between atoms: C_22  and  C_24
REMARK   14  A    between atoms: C_34  and  O_35
REMARK   15  A    between atoms: O_35  and  C_36
REMARK                            x       y       z     vdW  Elec       q    Type
REMARK                         _______ _______ _______ _____ _____    ______ ____
ROOT
ATOM      1  C   UNL     1       0.103   9.755  20.251  0.00  0.00    +0.000 A 
ATOM      2  C   UNL     1       1.121   9.405  19.413  0.00  0.00    +0.000 A 
ATOM      3  N   UNL     1       1.654   8.309  20.016  0.00  0.00    +0.000 N 
ATOM      4  N   UNL     1       1.100   8.103  21.230  0.00  0.00    +0.000 NA
ATOM      5  N   UNL     1       0.126   8.994  21.377  0.00  0.00    +0.000 NA
ENDROOT
BRANCH   1   7
ATOM      6  C   UNL     1      -1.801  11.609  19.711  0.00  0.00    +0.000 C 
ATOM      7  C   UNL     1      -0.881  10.729  19.994  0.00  0.00    +0.000 C 
BRANCH   6   8
ATOM      8  C   UNL     1      -2.872  12.636  19.381  0.00  0.00    +0.000 C 
BRANCH   8   9
ATOM      9  O   UNL     1      -3.345  13.249  20.575  0.00  0.00    +0.000 OA
BRANCH   9  14
ATOM     10  C   UNL     1      -1.151  14.803  23.176  0.00  0.00    +0.000 A 
ATOM     11  C   UNL     1      -0.616  15.823  22.376  0.00  0.00    +0.000 A 
ATOM     12  C   UNL     1      -1.013  15.974  21.049  0.00  0.00    +0.000 A 
ATOM     13  C   UNL     1      -1.935  15.087  20.504  0.00  0.00    +0.000 A 
ATOM     14  C   UNL     1      -2.433  14.022  21.262  0.00  0.00    +0.000 A 
ATOM     15  C   UNL     1      -2.052  13.873  22.619  0.00  0.00    +0.000 A 
BRANCH  10  17
ATOM     16  C   UNL     1      -1.311  15.664  25.375  0.00  0.00    +0.000 C 
ATOM     17  O   UNL     1      -0.788  14.676  24.492  0.00  0.00    +0.000 OA
ENDBRANCH  10  17
BRANCH  15  18
ATOM     18  O   UNL     1      -2.613  12.818  23.270  0.00  0.00    +0.000 OA
ATOM     19  C   UNL     1      -2.020  11.531  23.287  0.00  0.00    +0.000 C 
ENDBRANCH  15  18
ENDBRANCH   9  14
ENDBRANCH   8   9
ENDBRANCH   6   8
ENDBRANCH   1   7
BRANCH   3  20
ATOM     20  C   UNL     1       2.584   7.335  19.471  0.00  0.00    +0.000 C 
ATOM     21  C   UNL     1       2.466   7.286  17.947  0.00  0.00    +0.000 C 
BRANCH  20  22
ATOM     22  C   UNL     1       2.420   5.927  20.065  0.00  0.00    +0.000 C 
BRANCH  22  23
ATOM     23  C   UNL     1       1.615   4.941  19.209  0.00  0.00    +0.000 C 
ATOM     24  C   UNL     1       1.265   3.628  19.877  0.00  0.00    +0.000 C 
ATOM     25  C   UNL     1       1.194   2.689  18.697  0.00  0.00    +0.000 C 
ATOM     26  C   UNL     1       2.242   3.230  17.729  0.00  0.00    +0.000 C 
ATOM     27  O   UNL     1       2.396   4.623  18.047  0.00  0.00    +0.000 OA
BRANCH  26  28
ATOM     28  C   UNL     1       3.607   2.522  17.814  0.00  0.00    +0.000 C 
ATOM     29  C   UNL     1       3.612   1.236  18.642  0.00  0.00    +0.000 C 
BRANCH  28  30
ATOM     30  C   UNL     1       4.649   3.495  18.366  0.00  0.00    +0.000 C 
ATOM     31  O   UNL     1       4.932   3.519  19.568  0.00  0.00    +0.000 OA
ATOM     32  N   UNL     1       5.266   4.354  17.479  0.00  0.00    +0.000 N 
ATOM     33  C   UNL     1       5.194   4.354  16.026  0.00  0.00    +0.000 C 
ATOM     34  C   UNL     1       6.625   4.658  15.623  0.00  0.00    +0.000 C 
ATOM     35  C   UNL     1       7.062   5.676  16.670  0.00  0.00    +0.000 C 
ATOM     36  C   UNL     1       6.312   5.257  17.933  0.00  0.00    +0.000 C 
ENDBRANCH  28  30
ENDBRANCH  26  28
ENDBRANCH  22  23
ENDBRANCH  20  22
ENDBRANCH   3  20
TORSDOF 11
ENDMDL
MODEL 9
REMARK VINA RESULT:      -7.0      2.314      3.118
REMARK  Name = 
REMARK  15 active torsions:
REMARK  status: ('A' for Active; 'I' for Inactive)
REMARK    1  A    between atoms: C_1  and  O_2
REMARK    2  A    between atoms: O_2  and  C_3
REMARK    3  A    between atoms: C_7  and  O_8
REMARK    4  A    between atoms: O_8  and  C_9
REMARK    5  A    between atoms: C_9  and  C_10
REMARK    6  A    between atoms: C_11  and  C_12
REMARK    7  A    between atoms: N_14  and  C_15
REMARK    8  A    between atoms: C_15  and  C_16
REMARK    9  A    between atoms: C_15  and  C_17
REMARK   10  A    between atoms: C_17  and  C_18
REMARK   11  A    between atoms: C_21  and  C_22
REMARK   12  A    between atoms: C_22  and  C_23
REMARK   13  A    between atoms: C_22  and  C_24
REMARK   14  A    between atoms: C_34  and  O_35
REMARK   15  A    between atoms: O_35  and  C_36
REMARK                            x       y       z     vdW  Elec       q    Type
REMARK                         _______ _______ _______ _____ _____    ______ ____
ROOT
ATOM      1  C   UNL     1       7.845   6.559  18.045  0.00  0.00    +0.000 A 
ATOM      2  C   UNL     1       7.193   6.177  16.909  0.00  0.00    +0.000 A 
ATOM      3  N   UNL     1       6.849   4.888  17.170  0.00  0.00    +0.000 N 
ATOM      4  N   UNL     1       7.400   4.460  18.326  0.00  0.00    +0.000 NA
ATOM      5  N   UNL     1       8.012   5.501  18.881  0.00  0.00    +0.000 NA
ENDROOT
BRANCH   1   7
ATOM      6  C   UNL     1       8.680   9.069  18.641  0.00  0.00    +0.000 C 
ATOM      7  C   UNL     1       8.254   7.869  18.362  0.00  0.00    +0.000 C 
BRANCH   6   8
ATOM      8  C   UNL     1       9.176  10.469  18.966  0.00  0.00    +0.000 C 
BRANCH   8   9
ATOM      9  O   UNL     1       9.317  10.624  20.373  0.00  0.00    +0.000 OA
BRANCH   9  14
ATOM     10  C   UNL     1       9.278  13.940  22.105  0.00  0.00    +0.000 A 
ATOM     11  C   UNL     1      10.352  14.518  21.414  0.00  0.00    +0.000 A 
ATOM     12  C   UNL     1      11.013  13.819  20.406  0.00  0.00    +0.000 A 
ATOM     13  C   UNL     1      10.617  12.523  20.097  0.00  0.00    +0.000 A 
ATOM     14  C   UNL     1       9.592  11.900  20.818  0.00  0.00    +0.000 A 
ATOM     15  C   UNL     1       8.898  12.610  21.829  0.00  0.00    +0.000 A 
BRANCH  10  17
ATOM     16  C   UNL     1       9.347  15.667  23.723  0.00  0.00    +0.000 C 
ATOM     17  O   UNL     1       8.603  14.639  23.072  0.00  0.00    +0.000 OA
ENDBRANCH  10  17
BRANCH  15  18
ATOM     18  O   UNL     1       7.904  11.919  22.450  0.00  0.00    +0.000 OA
ATOM     19  C   UNL     1       7.997  11.501  23.801  0.00  0.00    +0.000 C 
ENDBRANCH  15  18
ENDBRANCH   9  14
ENDBRANCH   8   9
ENDBRANCH   6   8
ENDBRANCH   1   7
BRANCH   3  20
ATOM     20  C   UNL     1       5.910   4.037  16.459  0.00  0.00    +0.000 C 
ATOM     21  C   UNL     1       5.536   4.669  15.117  0.00  0.00    +0.000 C 
BRANCH  20  22
ATOM     22  C   UNL     1       4.642   3.710  17.266  0.00  0.00    +0.000 C 
BRANCH  22  23
ATOM     23  C   UNL     1       4.538   4.394  18.635  0.00  0.00    +0.000 C 
ATOM     24  C   UNL     1       3.504   3.815  19.577  0.00  0.00    +0.000 C 
ATOM     25  C   UNL     1       3.127   5.023  20.402  0.00  0.00    +0.000 C 
ATOM     26  C   UNL     1       3.254   6.191  19.428  0.00  0.00    +0.000 C 
ATOM     27  O   UNL     1       4.184   5.767  18.418  0.00  0.00    +0.000 OA
BRANCH  26  28
ATOM     28  C   UNL     1       1.926   6.613  18.771  0.00  0.00    +0.000 C 
ATOM     29  C   UNL     1       1.501   5.759  17.576  0.00  0.00    +0.000 C 
BRANCH  28  30
ATOM     30  C   UNL     1       2.013   8.081  18.351  0.00  0.00    +0.000 C 
ATOM     31  O   UNL     1       2.511   8.411  17.270  0.00  0.00    +0.000 OA
ATOM     32  N   UNL     1       1.522   9.033  19.222  0.00  0.00    +0.000 N 
ATOM     33  C   UNL     1       0.755   8.829  20.441  0.00  0.00    +0.000 C 
ATOM     34  C   UNL     1      -0.280   9.936  20.370  0.00  0.00    +0.000 C 
ATOM     35  C   UNL     1       0.511  11.102  19.789  0.00  0.00    +0.000 C 
ATOM     36  C   UNL     1       1.517  10.439  18.850  0.00  0.00    +0.000 C 
ENDBRANCH  28  30
ENDBRANCH  26  28
ENDBRANCH  22  23
ENDBRANCH  20  22
ENDBRANCH   3  20
TORSDOF 11
ENDMDL
