MODEL 1
REMARK VINA RESULT:      -6.9      0.000      0.000
REMARK  Name = 
REMARK  5 active torsions:
REMARK  status: ('A' for Active; 'I' for Inactive)
REMARK    1  A    between atoms: N_1  and  C_2
REMARK    2  A    between atoms: C_2  and  C_3
REMARK    3  A    between atoms: C_6  and  C_7
REMARK    4  A    between atoms: C_10  and  O_11
REMARK    5  A    between atoms: O_11  and  C_12
REMARK                            x       y       z     vdW  Elec       q    Type
REMARK                         _______ _______ _______ _____ _____    ______ ____
ROOT
ATOM      1  C   UNL     1       3.208   6.581  18.345  0.00  0.00    +0.000 A 
ATOM      2  C   UNL     1       2.684   7.885  18.258  0.00  0.00    +0.000 A 
ATOM      3  C   UNL     1       1.849   8.409  19.253  0.00  0.00    +0.000 A 
ATOM      4  C   UNL     1       1.487   7.620  20.339  0.00  0.00    +0.000 A 
ATOM      5  C   UNL     1       2.011   6.337  20.457  0.00  0.00    +0.000 A 
ATOM      6  C   UNL     1       2.858   5.822  19.473  0.00  0.00    +0.000 A 
ENDROOT
BRANCH   1  10
ATOM      7  C   UNL     1       5.759   5.023  15.372  0.00  0.00    +0.000 A 
ATOM      8  N   UNL     1       5.110   4.151  16.166  0.00  0.00    +0.000 NA
ATOM      9  C   UNL     1       4.287   4.683  17.092  0.00  0.00    +0.000 A 
ATOM     10  C   UNL     1       4.086   6.040  17.295  0.00  0.00    +0.000 A 
ATOM     11  C   UNL     1       4.806   6.832  16.413  0.00  0.00    +0.000 A 
ATOM     12  N   UNL     1       5.637   6.365  15.455  0.00  0.00    +0.000 NA
BRANCH   7  13
ATOM     13  C   UNL     1       6.733   4.475  14.348  0.00  0.00    +0.000 C 
BRANCH  13  14
ATOM     14  N   UNL     1       7.821   5.401  13.996  0.00  0.00    +0.000 NA
ATOM     15  H   UNL     1       8.277   5.708  14.853  0.00  0.00    +0.000 HD
ATOM     16  H   UNL     1       7.390   6.229  13.583  0.00  0.00    +0.000 HD
ENDBRANCH  13  14
ENDBRANCH   7  13
ENDBRANCH   1  10
BRANCH   4  17
ATOM     17  O   UNL     1       0.646   7.993  21.346  0.00  0.00    +0.000 OA
BRANCH  17  18
ATOM     18  C   UNL     1       0.659   9.362  21.738  0.00  0.00    +0.000 C 
ATOM     19  C   UNL     1      -0.370  10.232  21.043  0.00  0.00    +0.000 C 
ATOM     20  C   UNL     1      -0.574  11.345  22.045  0.00  0.00    +0.000 C 
ATOM     21  O   UNL     1      -0.378  10.778  23.348  0.00  0.00    +0.000 OA
ATOM     22  C   UNL     1       0.180   9.468  23.181  0.00  0.00    +0.000 C 
ENDBRANCH  17  18
ENDBRANCH   4  17
TORSDOF 5
ENDMDL
MODEL 2
REMARK VINA RESULT:      -6.9      0.761      1.297
REMARK  Name = 
REMARK  5 active torsions:
REMARK  status: ('A' for Active; 'I' for Inactive)
REMARK    1  A    between atoms: N_1  and  C_2
REMARK    2  A    between atoms: C_2  and  C_3
REMARK    3  A    between atoms: C_6  and  C_7
REMARK    4  A    between atoms: C_10  and  O_11
REMARK    5  A    between atoms: O_11  and  C_12
REMARK                            x       y       z     vdW  Elec       q    Type
REMARK                         _______ _______ _______ _____ _____    ______ ____
ROOT
ATOM      1  C   UNL     1       3.505   6.405  18.090  0.00  0.00    +0.000 A 
ATOM      2  C   UNL     1       2.934   7.687  17.968  0.00  0.00    +0.000 A 
ATOM      3  C   UNL     1       2.092   8.213  18.957  0.00  0.00    +0.000 A 
ATOM      4  C   UNL     1       1.772   7.448  20.072  0.00  0.00    +0.000 A 
ATOM      5  C   UNL     1       2.343   6.188  20.224  0.00  0.00    +0.000 A 
ATOM      6  C   UNL     1       3.196   5.671  19.246  0.00  0.00    +0.000 A 
ENDROOT
BRANCH   1  10
ATOM      7  C   UNL     1       6.000   4.854  15.066  0.00  0.00    +0.000 A 
ATOM      8  N   UNL     1       5.918   6.191  15.191  0.00  0.00    +0.000 NA
ATOM      9  C   UNL     1       5.127   6.653  16.181  0.00  0.00    +0.000 A 
ATOM     10  C   UNL     1       4.388   5.861  17.046  0.00  0.00    +0.000 A 
ATOM     11  C   UNL     1       4.561   4.503  16.819  0.00  0.00    +0.000 A 
ATOM     12  N   UNL     1       5.346   3.974  15.855  0.00  0.00    +0.000 NA
BRANCH   7  13
ATOM     13  C   UNL     1       6.837   4.288  13.937  0.00  0.00    +0.000 C 
BRANCH  13  14
ATOM     14  N   UNL     1       6.135   3.296  13.106  0.00  0.00    +0.000 NA
ATOM     15  H   UNL     1       6.794   2.908  12.435  0.00  0.00    +0.000 HD
ATOM     16  H   UNL     1       5.431   3.800  12.565  0.00  0.00    +0.000 HD
ENDBRANCH  13  14
ENDBRANCH   7  13
ENDBRANCH   1  10
BRANCH   4  17
ATOM     17  O   UNL     1       0.931   7.824  21.078  0.00  0.00    +0.000 OA
BRANCH  17  18
ATOM     18  C   UNL     1       0.875   9.209  21.402  0.00  0.00    +0.000 C 
ATOM     19  C   UNL     1      -0.302   9.955  20.806  0.00  0.00    +0.000 C 
ATOM     20  C   UNL     1      -0.476  11.102  21.775  0.00  0.00    +0.000 C 
ATOM     21  O   UNL     1      -0.073  10.626  23.066  0.00  0.00    +0.000 OA
ATOM     22  C   UNL     1       0.571   9.357  22.889  0.00  0.00    +0.000 C 
ENDBRANCH  17  18
ENDBRANCH   4  17
TORSDOF 5
ENDMDL
MODEL 3
REMARK VINA RESULT:      -6.8      0.761      1.682
REMARK  Name = 
REMARK  5 active torsions:
REMARK  status: ('A' for Active; 'I' for Inactive)
REMARK    1  A    between atoms: N_1  and  C_2
REMARK    2  A    between atoms: C_2  and  C_3
REMARK    3  A    between atoms: C_6  and  C_7
REMARK    4  A    between atoms: C_10  and  O_11
REMARK    5  A    between atoms: O_11  and  C_12
REMARK                            x       y       z     vdW  Elec       q    Type
REMARK                         _______ _______ _______ _____ _____    ______ ____
ROOT
ATOM      1  C   UNL     1       3.382   6.226  18.219  0.00  0.00    +0.000 A 
ATOM      2  C   UNL     1       3.015   5.374  19.278  0.00  0.00    +0.000 A 
ATOM      3  C   UNL     1       2.152   5.799  20.296  0.00  0.00    +0.000 A 
ATOM      4  C   UNL     1       1.669   7.101  20.296  0.00  0.00    +0.000 A 
ATOM      5  C   UNL     1       2.001   7.954  19.247  0.00  0.00    +0.000 A 
ATOM      6  C   UNL     1       2.848   7.524  18.223  0.00  0.00    +0.000 A 
ENDROOT
BRANCH   1  10
ATOM      7  C   UNL     1       5.945   4.930  15.132  0.00  0.00    +0.000 A 
ATOM      8  N   UNL     1       5.757   6.254  15.280  0.00  0.00    +0.000 NA
ATOM      9  C   UNL     1       4.949   6.634  16.290  0.00  0.00    +0.000 A 
ATOM     10  C   UNL     1       4.290   5.771  17.153  0.00  0.00    +0.000 A 
ATOM     11  C   UNL     1       4.568   4.436  16.900  0.00  0.00    +0.000 A 
ATOM     12  N   UNL     1       5.378   3.987  15.916  0.00  0.00    +0.000 NA
BRANCH   7  13
ATOM     13  C   UNL     1       6.807   4.451  13.981  0.00  0.00    +0.000 C 
BRANCH  13  14
ATOM     14  N   UNL     1       6.196   3.379  13.177  0.00  0.00    +0.000 NA
ATOM     15  H   UNL     1       6.793   2.556  13.225  0.00  0.00    +0.000 HD
ATOM     16  H   UNL     1       6.205   3.689  12.204  0.00  0.00    +0.000 HD
ENDBRANCH  13  14
ENDBRANCH   7  13
ENDBRANCH   1  10
BRANCH   4  17
ATOM     17  O   UNL     1       0.864   7.650  21.250  0.00  0.00    +0.000 OA
BRANCH  17  18
ATOM     18  C   UNL     1       0.874   9.068  21.379  0.00  0.00    +0.000 C 
ATOM     19  C   UNL     1      -0.306   9.773  20.740  0.00  0.00    +0.000 C 
ATOM     20  C   UNL     1      -0.389  11.050  21.545  0.00  0.00    +0.000 C 
ATOM     21  O   UNL     1       0.064  10.741  22.870  0.00  0.00    +0.000 OA
ATOM     22  C   UNL     1       0.653   9.434  22.843  0.00  0.00    +0.000 C 
ENDBRANCH  17  18
ENDBRANCH   4  17
TORSDOF 5
ENDMDL
MODEL 4
REMARK VINA RESULT:      -6.7      1.112      1.177
REMARK  Name = 
REMARK  5 active torsions:
REMARK  status: ('A' for Active; 'I' for Inactive)
REMARK    1  A    between atoms: N_1  and  C_2
REMARK    2  A    between atoms: C_2  and  C_3
REMARK    3  A    between atoms: C_6  and  C_7
REMARK    4  A    between atoms: C_10  and  O_11
REMARK    5  A    between atoms: O_11  and  C_12
REMARK                            x       y       z     vdW  Elec       q    Type
REMARK                         _______ _______ _______ _____ _____    ______ ____
ROOT
ATOM      1  C   UNL     1       3.663   6.011  17.967  0.00  0.00    +0.000 A 
ATOM      2  C   UNL     1       3.086   7.295  17.978  0.00  0.00    +0.000 A 
ATOM      3  C   UNL     1       2.301   7.739  19.050  0.00  0.00    +0.000 A 
ATOM      4  C   UNL     1       2.044   6.888  20.118  0.00  0.00    +0.000 A 
ATOM      5  C   UNL     1       2.622   5.622  20.139  0.00  0.00    +0.000 A 
ATOM      6  C   UNL     1       3.419   5.188  19.078  0.00  0.00    +0.000 A 
ENDROOT
BRANCH   1  10
ATOM      7  C   UNL     1       6.062   4.695  14.760  0.00  0.00    +0.000 A 
ATOM      8  N   UNL     1       5.513   3.763  15.559  0.00  0.00    +0.000 NA
ATOM      9  C   UNL     1       4.735   4.218  16.562  0.00  0.00    +0.000 A 
ATOM     10  C   UNL     1       4.487   5.554  16.836  0.00  0.00    +0.000 A 
ATOM     11  C   UNL     1       5.105   6.414  15.940  0.00  0.00    +0.000 A 
ATOM     12  N   UNL     1       5.885   6.026  14.908  0.00  0.00    +0.000 NA
BRANCH   7  13
ATOM     13  C   UNL     1       6.985   4.235  13.649  0.00  0.00    +0.000 C 
BRANCH  13  14
ATOM     14  N   UNL     1       6.384   3.248  12.737  0.00  0.00    +0.000 NA
ATOM     15  H   UNL     1       6.846   3.316  11.833  0.00  0.00    +0.000 HD
ATOM     16  H   UNL     1       5.413   3.527  12.589  0.00  0.00    +0.000 HD
ENDBRANCH  13  14
ENDBRANCH   7  13
ENDBRANCH   1  10
BRANCH   4  17
ATOM     17  O   UNL     1       1.259   7.180  21.195  0.00  0.00    +0.000 OA
BRANCH  17  18
ATOM     18  C   UNL     1       0.816   8.525  21.337  0.00  0.00    +0.000 C 
ATOM     19  C   UNL     1      -0.637   8.677  21.743  0.00  0.00    +0.000 C 
ATOM     20  C   UNL     1      -0.638  10.026  22.424  0.00  0.00    +0.000 C 
ATOM     21  O   UNL     1       0.651  10.191  23.032  0.00  0.00    +0.000 OA
ATOM     22  C   UNL     1       1.507   9.149  22.545  0.00  0.00    +0.000 C 
ENDBRANCH  17  18
ENDBRANCH   4  17
TORSDOF 5
ENDMDL
MODEL 5
REMARK VINA RESULT:      -6.7      4.815      8.450
REMARK  Name = 
REMARK  5 active torsions:
REMARK  status: ('A' for Active; 'I' for Inactive)
REMARK    1  A    between atoms: N_1  and  C_2
REMARK    2  A    between atoms: C_2  and  C_3
REMARK    3  A    between atoms: C_6  and  C_7
REMARK    4  A    between atoms: C_10  and  O_11
REMARK    5  A    between atoms: O_11  and  C_12
REMARK                            x       y       z     vdW  Elec       q    Type
REMARK                         _______ _______ _______ _____ _____    ______ ____
ROOT
ATOM      1  C   UNL     1       1.639   7.764  20.133  0.00  0.00    +0.000 A 
ATOM      2  C   UNL     1       1.767   6.465  20.660  0.00  0.00    +0.000 A 
ATOM      3  C   UNL     1       2.469   5.462  19.980  0.00  0.00    +0.000 A 
ATOM      4  C   UNL     1       3.024   5.729  18.734  0.00  0.00    +0.000 A 
ATOM      5  C   UNL     1       2.929   7.012  18.204  0.00  0.00    +0.000 A 
ATOM      6  C   UNL     1       2.244   8.016  18.892  0.00  0.00    +0.000 A 
ENDROOT
BRANCH   1  10
ATOM      7  C   UNL     1      -0.445  10.799  22.187  0.00  0.00    +0.000 A 
ATOM      8  N   UNL     1      -0.668  10.665  20.867  0.00  0.00    +0.000 NA
ATOM      9  C   UNL     1      -0.001   9.671  20.246  0.00  0.00    +0.000 A 
ATOM     10  C   UNL     1       0.900   8.812  20.856  0.00  0.00    +0.000 A 
ATOM     11  C   UNL     1       1.039   9.049  22.216  0.00  0.00    +0.000 A 
ATOM     12  N   UNL     1       0.392  10.017  22.902  0.00  0.00    +0.000 NA
BRANCH   7  13
ATOM     13  C   UNL     1      -1.134  11.933  22.920  0.00  0.00    +0.000 C 
BRANCH  13  14
ATOM     14  N   UNL     1      -0.333  13.165  23.012  0.00  0.00    +0.000 NA
ATOM     15  H   UNL     1      -0.139  13.354  23.993  0.00  0.00    +0.000 HD
ATOM     16  H   UNL     1      -0.919  13.931  22.678  0.00  0.00    +0.000 HD
ENDBRANCH  13  14
ENDBRANCH   7  13
ENDBRANCH   1  10
BRANCH   4  17
ATOM     17  O   UNL     1       3.687   4.831  17.951  0.00  0.00    +0.000 OA
BRANCH  17  18
ATOM     18  C   UNL     1       4.990   5.189  17.501  0.00  0.00    +0.000 C 
ATOM     19  C   UNL     1       6.113   4.824  18.452  0.00  0.00    +0.000 C 
ATOM     20  C   UNL     1       7.294   4.699  17.516  0.00  0.00    +0.000 C 
ATOM     21  O   UNL     1       6.785   4.239  16.257  0.00  0.00    +0.000 OA
ATOM     22  C   UNL     1       5.354   4.326  16.299  0.00  0.00    +0.000 C 
ENDBRANCH  17  18
ENDBRANCH   4  17
TORSDOF 5
ENDMDL
MODEL 6
REMARK VINA RESULT:      -6.7      5.186      8.642
REMARK  Name = 
REMARK  5 active torsions:
REMARK  status: ('A' for Active; 'I' for Inactive)
REMARK    1  A    between atoms: N_1  and  C_2
REMARK    2  A    between atoms: C_2  and  C_3
REMARK    3  A    between atoms: C_6  and  C_7
REMARK    4  A    between atoms: C_10  and  O_11
REMARK    5  A    between atoms: O_11  and  C_12
REMARK                            x       y       z     vdW  Elec       q    Type
REMARK                         _______ _______ _______ _____ _____    ______ ____
ROOT
ATOM      1  C   UNL     1       1.028   8.891  20.162  0.00  0.00    +0.000 A 
ATOM      2  C   UNL     1       1.347   9.199  18.825  0.00  0.00    +0.000 A 
ATOM      3  C   UNL     1       2.113   8.333  18.034  0.00  0.00    +0.000 A 
ATOM      4  C   UNL     1       2.612   7.157  18.580  0.00  0.00    +0.000 A 
ATOM      5  C   UNL     1       2.291   6.820  19.891  0.00  0.00    +0.000 A 
ATOM      6  C   UNL     1       1.512   7.676  20.673  0.00  0.00    +0.000 A 
ENDROOT
BRANCH   1  10
ATOM      7  C   UNL     1      -1.248  11.548  22.513  0.00  0.00    +0.000 A 
ATOM      8  N   UNL     1      -1.342  11.652  21.175  0.00  0.00    +0.000 NA
ATOM      9  C   UNL     1      -0.617  10.773  20.454  0.00  0.00    +0.000 A 
ATOM     10  C   UNL     1       0.222   9.806  20.985  0.00  0.00    +0.000 A 
ATOM     11  C   UNL     1       0.228   9.797  22.372  0.00  0.00    +0.000 A 
ATOM     12  N   UNL     1      -0.483  10.639  23.154  0.00  0.00    +0.000 NA
BRANCH   7  13
ATOM     13  C   UNL     1      -2.006  12.546  23.366  0.00  0.00    +0.000 C 
BRANCH  13  14
ATOM     14  N   UNL     1      -3.375  12.127  23.709  0.00  0.00    +0.000 NA
ATOM     15  H   UNL     1      -3.992  12.932  23.626  0.00  0.00    +0.000 HD
ATOM     16  H   UNL     1      -3.371  11.863  24.696  0.00  0.00    +0.000 HD
ENDBRANCH  13  14
ENDBRANCH   7  13
ENDBRANCH   1  10
BRANCH   4  17
ATOM     17  O   UNL     1       3.407   6.256  17.933  0.00  0.00    +0.000 OA
BRANCH  17  18
ATOM     18  C   UNL     1       3.254   4.883  18.275  0.00  0.00    +0.000 C 
ATOM     19  C   UNL     1       2.110   4.177  17.574  0.00  0.00    +0.000 C 
ATOM     20  C   UNL     1       2.568   2.736  17.589  0.00  0.00    +0.000 C 
ATOM     21  O   UNL     1       4.000   2.750  17.521  0.00  0.00    +0.000 OA
ATOM     22  C   UNL     1       4.440   4.100  17.725  0.00  0.00    +0.000 C 
ENDBRANCH  17  18
ENDBRANCH   4  17
TORSDOF 5
ENDMDL
MODEL 7
REMARK VINA RESULT:      -6.7      5.205      8.752
REMARK  Name = 
REMARK  5 active torsions:
REMARK  status: ('A' for Active; 'I' for Inactive)
REMARK    1  A    between atoms: N_1  and  C_2
REMARK    2  A    between atoms: C_2  and  C_3
REMARK    3  A    between atoms: C_6  and  C_7
REMARK    4  A    between atoms: C_10  and  O_11
REMARK    5  A    between atoms: O_11  and  C_12
REMARK                            x       y       z     vdW  Elec       q    Type
REMARK                         _______ _______ _______ _____ _____    ______ ____
ROOT
ATOM      1  C   UNL     1       0.966   9.080  20.262  0.00  0.00    +0.000 A 
ATOM      2  C   UNL     1       1.454   7.877  20.806  0.00  0.00    +0.000 A 
ATOM      3  C   UNL     1       2.209   6.978  20.042  0.00  0.00    +0.000 A 
ATOM      4  C   UNL     1       2.456   7.247  18.701  0.00  0.00    +0.000 A 
ATOM      5  C   UNL     1       2.002   8.440  18.148  0.00  0.00    +0.000 A 
ATOM      6  C   UNL     1       1.265   9.345  18.916  0.00  0.00    +0.000 A 
ENDROOT
BRANCH   1  10
ATOM      7  C   UNL     1      -1.336  11.736  22.590  0.00  0.00    +0.000 A 
ATOM      8  N   UNL     1      -0.617  10.798  23.232  0.00  0.00    +0.000 NA
ATOM      9  C   UNL     1       0.124   9.979  22.458  0.00  0.00    +0.000 A 
ATOM     10  C   UNL     1       0.175  10.020  21.073  0.00  0.00    +0.000 A 
ATOM     11  C   UNL     1      -0.605  11.032  20.532  0.00  0.00    +0.000 A 
ATOM     12  N   UNL     1      -1.359  11.894  21.249  0.00  0.00    +0.000 NA
BRANCH   7  13
ATOM     13  C   UNL     1      -2.223  12.649  23.413  0.00  0.00    +0.000 C 
BRANCH  13  14
ATOM     14  N   UNL     1      -3.588  12.137  23.620  0.00  0.00    +0.000 NA
ATOM     15  H   UNL     1      -3.999  12.618  24.417  0.00  0.00    +0.000 HD
ATOM     16  H   UNL     1      -3.504  11.154  23.883  0.00  0.00    +0.000 HD
ENDBRANCH  13  14
ENDBRANCH   7  13
ENDBRANCH   1  10
BRANCH   4  17
ATOM     17  O   UNL     1       3.132   6.434  17.840  0.00  0.00    +0.000 OA
BRANCH  17  18
ATOM     18  C   UNL     1       3.198   5.049  18.161  0.00  0.00    +0.000 C 
ATOM     19  C   UNL     1       2.045   4.218  17.632  0.00  0.00    +0.000 C 
ATOM     20  C   UNL     1       2.664   2.842  17.530  0.00  0.00    +0.000 C 
ATOM     21  O   UNL     1       4.055   3.029  17.233  0.00  0.00    +0.000 OA
ATOM     22  C   UNL     1       4.362   4.419  17.404  0.00  0.00    +0.000 C 
ENDBRANCH  17  18
ENDBRANCH   4  17
TORSDOF 5
ENDMDL
MODEL 8
REMARK VINA RESULT:      -6.6      4.809      8.435
REMARK  Name = 
REMARK  5 active torsions:
REMARK  status: ('A' for Active; 'I' for Inactive)
REMARK    1  A    between atoms: N_1  and  C_2
REMARK    2  A    between atoms: C_2  and  C_3
REMARK    3  A    between atoms: C_6  and  C_7
REMARK    4  A    between atoms: C_10  and  O_11
REMARK    5  A    between atoms: O_11  and  C_12
REMARK                            x       y       z     vdW  Elec       q    Type
REMARK                         _______ _______ _______ _____ _____    ______ ____
ROOT
ATOM      1  C   UNL     1       1.787   7.949  19.901  0.00  0.00    +0.000 A 
ATOM      2  C   UNL     1       2.020   6.663  20.424  0.00  0.00    +0.000 A 
ATOM      3  C   UNL     1       2.719   5.690  19.698  0.00  0.00    +0.000 A 
ATOM      4  C   UNL     1       3.165   5.973  18.413  0.00  0.00    +0.000 A 
ATOM      5  C   UNL     1       2.965   7.245  17.884  0.00  0.00    +0.000 A 
ATOM      6  C   UNL     1       2.284   8.220  18.616  0.00  0.00    +0.000 A 
ENDROOT
BRANCH   1  10
ATOM      7  C   UNL     1      -0.349  10.825  22.124  0.00  0.00    +0.000 A 
ATOM      8  N   UNL     1       0.513  10.031  22.785  0.00  0.00    +0.000 NA
ATOM      9  C   UNL     1       1.195   9.137  22.040  0.00  0.00    +0.000 A 
ATOM     10  C   UNL     1       1.053   8.965  20.672  0.00  0.00    +0.000 A 
ATOM     11  C   UNL     1       0.139   9.844  20.108  0.00  0.00    +0.000 A 
ATOM     12  N   UNL     1      -0.566  10.771  20.792  0.00  0.00    +0.000 NA
BRANCH   7  13
ATOM     13  C   UNL     1      -1.175  11.812  22.924  0.00  0.00    +0.000 C 
BRANCH  13  14
ATOM     14  N   UNL     1      -0.524  13.116  23.127  0.00  0.00    +0.000 NA
ATOM     15  H   UNL     1       0.465  13.024  22.909  0.00  0.00    +0.000 HD
ATOM     16  H   UNL     1      -0.585  13.332  24.123  0.00  0.00    +0.000 HD
ENDBRANCH  13  14
ENDBRANCH   7  13
ENDBRANCH   1  10
BRANCH   4  17
ATOM     17  O   UNL     1       3.812   5.102  17.586  0.00  0.00    +0.000 OA
BRANCH  17  18
ATOM     18  C   UNL     1       5.180   5.368  17.296  0.00  0.00    +0.000 C 
ATOM     19  C   UNL     1       6.153   4.954  18.382  0.00  0.00    +0.000 C 
ATOM     20  C   UNL     1       7.428   4.734  17.600  0.00  0.00    +0.000 C 
ATOM     21  O   UNL     1       7.047   4.279  16.294  0.00  0.00    +0.000 OA
ATOM     22  C   UNL     1       5.630   4.457  16.159  0.00  0.00    +0.000 C 
ENDBRANCH  17  18
ENDBRANCH   4  17
TORSDOF 5
ENDMDL
MODEL 9
REMARK VINA RESULT:      -6.6      4.893      8.459
REMARK  Name = 
REMARK  5 active torsions:
REMARK  status: ('A' for Active; 'I' for Inactive)
REMARK    1  A    between atoms: N_1  and  C_2
REMARK    2  A    between atoms: C_2  and  C_3
REMARK    3  A    between atoms: C_6  and  C_7
REMARK    4  A    between atoms: C_10  and  O_11
REMARK    5  A    between atoms: O_11  and  C_12
REMARK                            x       y       z     vdW  Elec       q    Type
REMARK                         _______ _______ _______ _____ _____    ______ ____
ROOT
ATOM      1  C   UNL     1       1.660   8.328  19.800  0.00  0.00    +0.000 A 
ATOM      2  C   UNL     1       2.068   8.701  18.505  0.00  0.00    +0.000 A 
ATOM      3  C   UNL     1       2.821   7.841  17.695  0.00  0.00    +0.000 A 
ATOM      4  C   UNL     1       3.218   6.602  18.183  0.00  0.00    +0.000 A 
ATOM      5  C   UNL     1       2.808   6.203  19.452  0.00  0.00    +0.000 A 
ATOM      6  C   UNL     1       2.042   7.054  20.251  0.00  0.00    +0.000 A 
ENDROOT
BRANCH   1  10
ATOM      7  C   UNL     1      -0.578  10.971  22.204  0.00  0.00    +0.000 A 
ATOM      8  N   UNL     1      -0.805  10.980  20.878  0.00  0.00    +0.000 NA
ATOM      9  C   UNL     1      -0.087  10.107  20.142  0.00  0.00    +0.000 A 
ATOM     10  C   UNL     1       0.868   9.237  20.644  0.00  0.00    +0.000 A 
ATOM     11  C   UNL     1       1.006   9.321  22.022  0.00  0.00    +0.000 A 
ATOM     12  N   UNL     1       0.311  10.161  22.819  0.00  0.00    +0.000 NA
BRANCH   7  13
ATOM     13  C   UNL     1      -1.325  11.968  23.067  0.00  0.00    +0.000 C 
BRANCH  13  14
ATOM     14  N   UNL     1      -0.613  13.240  23.271  0.00  0.00    +0.000 NA
ATOM     15  H   UNL     1       0.127  13.314  22.577  0.00  0.00    +0.000 HD
ATOM     16  H   UNL     1      -0.154  13.186  24.182  0.00  0.00    +0.000 HD
ENDBRANCH  13  14
ENDBRANCH   7  13
ENDBRANCH   1  10
BRANCH   4  17
ATOM     17  O   UNL     1       3.990   5.697  17.516  0.00  0.00    +0.000 OA
BRANCH  17  18
ATOM     18  C   UNL     1       5.402   5.808  17.661  0.00  0.00    +0.000 C 
ATOM     19  C   UNL     1       6.083   4.575  18.222  0.00  0.00    +0.000 C 
ATOM     20  C   UNL     1       7.484   4.706  17.670  0.00  0.00    +0.000 C 
ATOM     21  O   UNL     1       7.376   5.367  16.402  0.00  0.00    +0.000 OA
ATOM     22  C   UNL     1       6.038   5.868  16.277  0.00  0.00    +0.000 C 
ENDBRANCH  17  18
ENDBRANCH   4  17
TORSDOF 5
ENDMDL
