MODEL 1
REMARK VINA RESULT:      -8.6      0.000      0.000
REMARK  Name = 
REMARK  7 active torsions:
REMARK  status: ('A' for Active; 'I' for Inactive)
REMARK    1  A    between atoms: C_1  and  C_2
REMARK    2  A    between atoms: C_5  and  C_6
REMARK    3  A    between atoms: C_7  and  N_8
REMARK    4  A    between atoms: C_9  and  C_11
REMARK    5  A    between atoms: C_11  and  N_12
REMARK    6  A    between atoms: C_14  and  C_15
REMARK    7  A    between atoms: C_15  and  C_17
REMARK                            x       y       z     vdW  Elec       q    Type
REMARK                         _______ _______ _______ _____ _____    ______ ____
ROOT
ATOM      1  N   UNL     1       3.541   7.161  17.644  0.00  0.00    +0.000 N 
ATOM      2  C   UNL     1       2.553   6.230  17.860  0.00  0.00    +0.000 A 
ATOM      3  C   UNL     1       3.108   4.964  17.790  0.00  0.00    +0.000 A 
ATOM      4  C   UNL     1       4.509   5.155  17.525  0.00  0.00    +0.000 A 
ATOM      5  C   UNL     1       5.594   4.266  17.369  0.00  0.00    +0.000 A 
ATOM      6  C   UNL     1       6.869   4.762  17.077  0.00  0.00    +0.000 A 
ATOM      7  C   UNL     1       7.075   6.128  16.941  0.00  0.00    +0.000 A 
ATOM      8  C   UNL     1       6.023   7.036  17.103  0.00  0.00    +0.000 A 
ATOM      9  C   UNL     1       4.744   6.528  17.403  0.00  0.00    +0.000 A 
ENDROOT
BRANCH   3  10
ATOM     10  C   UNL     1       2.441   3.675  18.008  0.00  0.00    +0.000 C 
ATOM     11  O   UNL     1       2.097   2.991  17.046  0.00  0.00    +0.000 OA
BRANCH  10  12
ATOM     12  C   UNL     1       2.198   3.279  19.391  0.00  0.00    +0.000 A 
ATOM     13  C   UNL     1       1.031   3.246  20.137  0.00  0.00    +0.000 A 
ATOM     14  C   UNL     1       1.237   2.747  21.458  0.00  0.00    +0.000 A 
ATOM     15  C   UNL     1       2.548   2.395  21.678  0.00  0.00    +0.000 A 
ATOM     16  S   UNL     1       3.523   2.666  20.303  0.00  0.00    +0.000 S 
ENDBRANCH  10  12
ENDBRANCH   3  10
BRANCH   1  17
ATOM     17  C   UNL     1       3.312   8.597  17.648  0.00  0.00    +0.000 C 
BRANCH  17  19
ATOM     18  N   UNL     1       1.301  10.047  17.645  0.00  0.00    +0.000 N 
ATOM     19  C   UNL     1       2.020   9.065  18.300  0.00  0.00    +0.000 C 
ATOM     20  O   UNL     1       1.638   8.500  19.328  0.00  0.00    +0.000 OA
ATOM     21  H   UNL     1       1.497  10.189  16.661  0.00  0.00    +0.000 HD
BRANCH  18  28
ATOM     22  C   UNL     1      -3.667   9.894  17.674  0.00  0.00    +0.000 C 
ATOM     23  C   UNL     1      -2.377  10.503  18.140  0.00  0.00    +0.000 A 
ATOM     24  C   UNL     1      -2.374  11.557  19.055  0.00  0.00    +0.000 A 
ATOM     25  C   UNL     1      -1.169  12.095  19.508  0.00  0.00    +0.000 A 
ATOM     26  C   UNL     1       0.061  11.590  19.061  0.00  0.00    +0.000 A 
ATOM     27  C   UNL     1       1.334  12.242  19.526  0.00  0.00    +0.000 C 
ATOM     28  C   UNL     1       0.065  10.549  18.116  0.00  0.00    +0.000 A 
ATOM     29  C   UNL     1      -1.151  10.014  17.664  0.00  0.00    +0.000 A 
ENDBRANCH  18  28
ENDBRANCH  17  19
ENDBRANCH   1  17
TORSDOF 5
ENDMDL
MODEL 2
REMARK VINA RESULT:      -8.3      0.701      1.782
REMARK  Name = 
REMARK  7 active torsions:
REMARK  status: ('A' for Active; 'I' for Inactive)
REMARK    1  A    between atoms: C_1  and  C_2
REMARK    2  A    between atoms: C_5  and  C_6
REMARK    3  A    between atoms: C_7  and  N_8
REMARK    4  A    between atoms: C_9  and  C_11
REMARK    5  A    between atoms: C_11  and  N_12
REMARK    6  A    between atoms: C_14  and  C_15
REMARK    7  A    between atoms: C_15  and  C_17
REMARK                            x       y       z     vdW  Elec       q    Type
REMARK                         _______ _______ _______ _____ _____    ______ ____
ROOT
ATOM      1  N   UNL     1       3.371   7.176  17.537  0.00  0.00    +0.000 N 
ATOM      2  C   UNL     1       2.413   6.213  17.746  0.00  0.00    +0.000 A 
ATOM      3  C   UNL     1       3.024   4.972  17.772  0.00  0.00    +0.000 A 
ATOM      4  C   UNL     1       4.429   5.212  17.575  0.00  0.00    +0.000 A 
ATOM      5  C   UNL     1       5.558   4.366  17.525  0.00  0.00    +0.000 A 
ATOM      6  C   UNL     1       6.825   4.904  17.279  0.00  0.00    +0.000 A 
ATOM      7  C   UNL     1       6.981   6.270  17.084  0.00  0.00    +0.000 A 
ATOM      8  C   UNL     1       5.884   7.137  17.140  0.00  0.00    +0.000 A 
ATOM      9  C   UNL     1       4.612   6.587  17.395  0.00  0.00    +0.000 A 
ENDROOT
BRANCH   3  10
ATOM     10  C   UNL     1       2.400   3.666  18.019  0.00  0.00    +0.000 C 
ATOM     11  O   UNL     1       2.078   2.951  17.073  0.00  0.00    +0.000 OA
BRANCH  10  12
ATOM     12  C   UNL     1       2.173   3.292  19.412  0.00  0.00    +0.000 A 
ATOM     13  C   UNL     1       1.019   3.294  20.177  0.00  0.00    +0.000 A 
ATOM     14  C   UNL     1       1.237   2.806  21.501  0.00  0.00    +0.000 A 
ATOM     15  C   UNL     1       2.545   2.429  21.703  0.00  0.00    +0.000 A 
ATOM     16  S   UNL     1       3.501   2.663  20.308  0.00  0.00    +0.000 S 
ENDBRANCH  10  12
ENDBRANCH   3  10
BRANCH   1  17
ATOM     17  C   UNL     1       3.082   8.599  17.455  0.00  0.00    +0.000 C 
BRANCH  17  19
ATOM     18  N   UNL     1       1.315  10.247  18.008  0.00  0.00    +0.000 N 
ATOM     19  C   UNL     1       2.009   9.117  18.398  0.00  0.00    +0.000 C 
ATOM     20  O   UNL     1       1.755   8.471  19.418  0.00  0.00    +0.000 OA
ATOM     21  H   UNL     1       1.341  10.492  17.025  0.00  0.00    +0.000 HD
BRANCH  18  28
ATOM     22  C   UNL     1      -0.193  12.959  21.890  0.00  0.00    +0.000 C 
ATOM     23  C   UNL     1      -0.502  12.136  20.674  0.00  0.00    +0.000 A 
ATOM     24  C   UNL     1      -1.821  11.937  20.262  0.00  0.00    +0.000 A 
ATOM     25  C   UNL     1      -2.097  11.199  19.110  0.00  0.00    +0.000 A 
ATOM     26  C   UNL     1      -1.062  10.647  18.341  0.00  0.00    +0.000 A 
ATOM     27  C   UNL     1      -1.408   9.804  17.144  0.00  0.00    +0.000 C 
ATOM     28  C   UNL     1       0.267  10.817  18.768  0.00  0.00    +0.000 A 
ATOM     29  C   UNL     1       0.536  11.560  19.927  0.00  0.00    +0.000 A 
ENDBRANCH  18  28
ENDBRANCH  17  19
ENDBRANCH   1  17
TORSDOF 5
ENDMDL
MODEL 3
REMARK VINA RESULT:      -8.3      4.473      9.369
REMARK  Name = 
REMARK  7 active torsions:
REMARK  status: ('A' for Active; 'I' for Inactive)
REMARK    1  A    between atoms: C_1  and  C_2
REMARK    2  A    between atoms: C_5  and  C_6
REMARK    3  A    between atoms: C_7  and  N_8
REMARK    4  A    between atoms: C_9  and  C_11
REMARK    5  A    between atoms: C_11  and  N_12
REMARK    6  A    between atoms: C_14  and  C_15
REMARK    7  A    between atoms: C_15  and  C_17
REMARK                            x       y       z     vdW  Elec       q    Type
REMARK                         _______ _______ _______ _____ _____    ______ ____
ROOT
ATOM      1  N   UNL     1       0.012  10.637  22.078  0.00  0.00    +0.000 N 
ATOM      2  C   UNL     1      -0.968  10.988  22.974  0.00  0.00    +0.000 A 
ATOM      3  C   UNL     1      -1.704  12.034  22.446  0.00  0.00    +0.000 A 
ATOM      4  C   UNL     1      -1.132  12.316  21.156  0.00  0.00    +0.000 A 
ATOM      5  C   UNL     1      -1.449  13.241  20.138  0.00  0.00    +0.000 A 
ATOM      6  C   UNL     1      -0.668  13.301  18.980  0.00  0.00    +0.000 A 
ATOM      7  C   UNL     1       0.420  12.452  18.823  0.00  0.00    +0.000 A 
ATOM      8  C   UNL     1       0.752  11.515  19.808  0.00  0.00    +0.000 A 
ATOM      9  C   UNL     1      -0.044  11.457  20.968  0.00  0.00    +0.000 A 
ENDROOT
BRANCH   3  10
ATOM     10  C   UNL     1      -2.878  12.694  23.030  0.00  0.00    +0.000 C 
ATOM     11  O   UNL     1      -4.001  12.229  22.843  0.00  0.00    +0.000 OA
BRANCH  10  12
ATOM     12  C   UNL     1      -2.641  13.911  23.800  0.00  0.00    +0.000 A 
ATOM     13  C   UNL     1      -1.466  14.487  24.251  0.00  0.00    +0.000 A 
ATOM     14  C   UNL     1      -1.686  15.716  24.942  0.00  0.00    +0.000 A 
ATOM     15  C   UNL     1      -3.019  16.053  24.984  0.00  0.00    +0.000 A 
ATOM     16  S   UNL     1      -3.996  14.896  24.197  0.00  0.00    +0.000 S 
ENDBRANCH  10  12
ENDBRANCH   3  10
BRANCH   1  17
ATOM     17  C   UNL     1       0.973   9.570  22.308  0.00  0.00    +0.000 C 
BRANCH  17  19
ATOM     18  N   UNL     1       1.964   7.745  20.954  0.00  0.00    +0.000 N 
ATOM     19  C   UNL     1       0.811   8.330  21.443  0.00  0.00    +0.000 C 
ATOM     20  O   UNL     1      -0.319   7.863  21.282  0.00  0.00    +0.000 OA
ATOM     21  H   UNL     1       2.836   7.976  21.417  0.00  0.00    +0.000 HD
BRANCH  18  28
ATOM     22  C   UNL     1       1.331   2.829  20.579  0.00  0.00    +0.000 C 
ATOM     23  C   UNL     1       1.673   4.153  19.959  0.00  0.00    +0.000 A 
ATOM     24  C   UNL     1       1.978   4.248  18.600  0.00  0.00    +0.000 A 
ATOM     25  C   UNL     1       2.262   5.487  18.025  0.00  0.00    +0.000 A 
ATOM     26  C   UNL     1       2.242   6.661  18.793  0.00  0.00    +0.000 A 
ATOM     27  C   UNL     1       2.618   7.966  18.147  0.00  0.00    +0.000 C 
ATOM     28  C   UNL     1       1.967   6.568  20.168  0.00  0.00    +0.000 A 
ATOM     29  C   UNL     1       1.683   5.318  20.739  0.00  0.00    +0.000 A 
ENDBRANCH  18  28
ENDBRANCH  17  19
ENDBRANCH   1  17
TORSDOF 5
ENDMDL
MODEL 4
REMARK VINA RESULT:      -8.1      3.884      9.355
REMARK  Name = 
REMARK  7 active torsions:
REMARK  status: ('A' for Active; 'I' for Inactive)
REMARK    1  A    between atoms: C_1  and  C_2
REMARK    2  A    between atoms: C_5  and  C_6
REMARK    3  A    between atoms: C_7  and  N_8
REMARK    4  A    between atoms: C_9  and  C_11
REMARK    5  A    between atoms: C_11  and  N_12
REMARK    6  A    between atoms: C_14  and  C_15
REMARK    7  A    between atoms: C_15  and  C_17
REMARK                            x       y       z     vdW  Elec       q    Type
REMARK                         _______ _______ _______ _____ _____    ______ ____
ROOT
ATOM      1  N   UNL     1       0.510  10.739  21.338  0.00  0.00    +0.000 N 
ATOM      2  C   UNL     1       0.854  11.331  20.147  0.00  0.00    +0.000 A 
ATOM      3  C   UNL     1      -0.018  12.377  19.899  0.00  0.00    +0.000 A 
ATOM      4  C   UNL     1      -0.928  12.412  21.013  0.00  0.00    +0.000 A 
ATOM      5  C   UNL     1      -2.012  13.251  21.350  0.00  0.00    +0.000 A 
ATOM      6  C   UNL     1      -2.748  13.010  22.515  0.00  0.00    +0.000 A 
ATOM      7  C   UNL     1      -2.416  11.948  23.346  0.00  0.00    +0.000 A 
ATOM      8  C   UNL     1      -1.339  11.106  23.046  0.00  0.00    +0.000 A 
ATOM      9  C   UNL     1      -0.600  11.361  21.874  0.00  0.00    +0.000 A 
ENDROOT
BRANCH   3  10
ATOM     10  C   UNL     1       0.002  13.319  18.773  0.00  0.00    +0.000 C 
ATOM     11  O   UNL     1      -0.738  13.137  17.808  0.00  0.00    +0.000 OA
BRANCH  10  12
ATOM     12  C   UNL     1       0.940  14.434  18.857  0.00  0.00    +0.000 A 
ATOM     13  C   UNL     1       2.294  14.506  18.577  0.00  0.00    +0.000 A 
ATOM     14  C   UNL     1       2.823  15.819  18.758  0.00  0.00    +0.000 A 
ATOM     15  C   UNL     1       1.857  16.715  19.154  0.00  0.00    +0.000 A 
ATOM     16  S   UNL     1       0.325  15.978  19.305  0.00  0.00    +0.000 S 
ENDBRANCH  10  12
ENDBRANCH   3  10
BRANCH   1  17
ATOM     17  C   UNL     1       1.218   9.604  21.910  0.00  0.00    +0.000 C 
BRANCH  17  19
ATOM     18  N   UNL     1       2.114   7.609  20.743  0.00  0.00    +0.000 N 
ATOM     19  C   UNL     1       0.997   8.266  21.222  0.00  0.00    +0.000 C 
ATOM     20  O   UNL     1      -0.144   7.797  21.193  0.00  0.00    +0.000 OA
ATOM     21  H   UNL     1       3.014   7.886  21.118  0.00  0.00    +0.000 HD
BRANCH  18  28
ATOM     22  C   UNL     1       1.323   2.709  21.020  0.00  0.00    +0.000 C 
ATOM     23  C   UNL     1       1.690   3.930  20.227  0.00  0.00    +0.000 A 
ATOM     24  C   UNL     1       1.964   3.838  18.861  0.00  0.00    +0.000 A 
ATOM     25  C   UNL     1       2.271   4.984  18.126  0.00  0.00    +0.000 A 
ATOM     26  C   UNL     1       2.306   6.247  18.735  0.00  0.00    +0.000 A 
ATOM     27  C   UNL     1       2.705   7.445  17.918  0.00  0.00    +0.000 C 
ATOM     28  C   UNL     1       2.062   6.341  20.116  0.00  0.00    +0.000 A 
ATOM     29  C   UNL     1       1.754   5.185  20.850  0.00  0.00    +0.000 A 
ENDBRANCH  18  28
ENDBRANCH  17  19
ENDBRANCH   1  17
TORSDOF 5
ENDMDL
MODEL 5
REMARK VINA RESULT:      -8.1      2.219      4.178
REMARK  Name = 
REMARK  7 active torsions:
REMARK  status: ('A' for Active; 'I' for Inactive)
REMARK    1  A    between atoms: C_1  and  C_2
REMARK    2  A    between atoms: C_5  and  C_6
REMARK    3  A    between atoms: C_7  and  N_8
REMARK    4  A    between atoms: C_9  and  C_11
REMARK    5  A    between atoms: C_11  and  N_12
REMARK    6  A    between atoms: C_14  and  C_15
REMARK    7  A    between atoms: C_15  and  C_17
REMARK                            x       y       z     vdW  Elec       q    Type
REMARK                         _______ _______ _______ _____ _____    ______ ____
ROOT
ATOM      1  N   UNL     1       2.731   6.127  19.912  0.00  0.00    +0.000 N 
ATOM      2  C   UNL     1       4.028   6.210  19.466  0.00  0.00    +0.000 A 
ATOM      3  C   UNL     1       4.392   4.991  18.920  0.00  0.00    +0.000 A 
ATOM      4  C   UNL     1       3.240   4.138  19.041  0.00  0.00    +0.000 A 
ATOM      5  C   UNL     1       2.978   2.806  18.655  0.00  0.00    +0.000 A 
ATOM      6  C   UNL     1       1.740   2.223  18.946  0.00  0.00    +0.000 A 
ATOM      7  C   UNL     1       0.763   2.950  19.612  0.00  0.00    +0.000 A 
ATOM      8  C   UNL     1       0.987   4.278  19.997  0.00  0.00    +0.000 A 
ATOM      9  C   UNL     1       2.234   4.857  19.694  0.00  0.00    +0.000 A 
ENDROOT
BRANCH   3  10
ATOM     10  C   UNL     1       5.663   4.636  18.277  0.00  0.00    +0.000 C 
ATOM     11  O   UNL     1       6.643   4.359  18.966  0.00  0.00    +0.000 OA
BRANCH  10  12
ATOM     12  C   UNL     1       5.696   4.654  16.818  0.00  0.00    +0.000 A 
ATOM     13  C   UNL     1       5.899   3.638  15.900  0.00  0.00    +0.000 A 
ATOM     14  C   UNL     1       5.810   4.091  14.550  0.00  0.00    +0.000 A 
ATOM     15  C   UNL     1       5.524   5.434  14.474  0.00  0.00    +0.000 A 
ATOM     16  S   UNL     1       5.365   6.142  16.019  0.00  0.00    +0.000 S 
ENDBRANCH  10  12
ENDBRANCH   3  10
BRANCH   1  17
ATOM     17  C   UNL     1       2.022   7.229  20.543  0.00  0.00    +0.000 C 
BRANCH  17  19
ATOM     18  N   UNL     1       0.472   9.115  20.114  0.00  0.00    +0.000 N 
ATOM     19  C   UNL     1       1.443   8.275  19.604  0.00  0.00    +0.000 C 
ATOM     20  O   UNL     1       1.915   8.377  18.469  0.00  0.00    +0.000 OA
ATOM     21  H   UNL     1       0.407   9.194  21.123  0.00  0.00    +0.000 HD
BRANCH  18  28
ATOM     22  C   UNL     1      -2.661  10.590  16.548  0.00  0.00    +0.000 C 
ATOM     23  C   UNL     1      -1.651  10.907  17.612  0.00  0.00    +0.000 A 
ATOM     24  C   UNL     1      -1.302  12.230  17.894  0.00  0.00    +0.000 A 
ATOM     25  C   UNL     1      -0.387  12.517  18.908  0.00  0.00    +0.000 A 
ATOM     26  C   UNL     1       0.196  11.491  19.666  0.00  0.00    +0.000 A 
ATOM     27  C   UNL     1       1.226  11.842  20.705  0.00  0.00    +0.000 C 
ATOM     28  C   UNL     1      -0.127  10.157  19.367  0.00  0.00    +0.000 A 
ATOM     29  C   UNL     1      -1.048   9.875  18.345  0.00  0.00    +0.000 A 
ENDBRANCH  18  28
ENDBRANCH  17  19
ENDBRANCH   1  17
TORSDOF 5
ENDMDL
MODEL 6
REMARK VINA RESULT:      -8.0      1.989      2.565
REMARK  Name = 
REMARK  7 active torsions:
REMARK  status: ('A' for Active; 'I' for Inactive)
REMARK    1  A    between atoms: C_1  and  C_2
REMARK    2  A    between atoms: C_5  and  C_6
REMARK    3  A    between atoms: C_7  and  N_8
REMARK    4  A    between atoms: C_9  and  C_11
REMARK    5  A    between atoms: C_11  and  N_12
REMARK    6  A    between atoms: C_14  and  C_15
REMARK    7  A    between atoms: C_15  and  C_17
REMARK                            x       y       z     vdW  Elec       q    Type
REMARK                         _______ _______ _______ _____ _____    ______ ____
ROOT
ATOM      1  N   UNL     1       3.345   7.135  17.559  0.00  0.00    +0.000 N 
ATOM      2  C   UNL     1       2.441   6.122  17.767  0.00  0.00    +0.000 A 
ATOM      3  C   UNL     1       3.118   4.916  17.799  0.00  0.00    +0.000 A 
ATOM      4  C   UNL     1       4.509   5.232  17.606  0.00  0.00    +0.000 A 
ATOM      5  C   UNL     1       5.682   4.449  17.562  0.00  0.00    +0.000 A 
ATOM      6  C   UNL     1       6.919   5.055  17.319  0.00  0.00    +0.000 A 
ATOM      7  C   UNL     1       7.001   6.427  17.121  0.00  0.00    +0.000 A 
ATOM      8  C   UNL     1       5.857   7.233  17.171  0.00  0.00    +0.000 A 
ATOM      9  C   UNL     1       4.617   6.614  17.423  0.00  0.00    +0.000 A 
ENDROOT
BRANCH   3  10
ATOM     10  C   UNL     1       2.566   3.578  18.047  0.00  0.00    +0.000 C 
ATOM     11  O   UNL     1       2.263   2.854  17.101  0.00  0.00    +0.000 OA
BRANCH  10  12
ATOM     12  C   UNL     1       2.384   3.184  19.440  0.00  0.00    +0.000 A 
ATOM     13  C   UNL     1       3.298   2.772  20.396  0.00  0.00    +0.000 A 
ATOM     14  C   UNL     1       2.692   2.518  21.663  0.00  0.00    +0.000 A 
ATOM     15  C   UNL     1       1.338   2.760  21.644  0.00  0.00    +0.000 A 
ATOM     16  S   UNL     1       0.803   3.288  20.112  0.00  0.00    +0.000 S 
ENDBRANCH  10  12
ENDBRANCH   3  10
BRANCH   1  17
ATOM     17  C   UNL     1       2.979   8.540  17.472  0.00  0.00    +0.000 C 
BRANCH  17  19
ATOM     18  N   UNL     1       2.076   9.062  19.721  0.00  0.00    +0.000 N 
ATOM     19  C   UNL     1       1.831   8.986  18.363  0.00  0.00    +0.000 C 
ATOM     20  O   UNL     1       0.771   9.330  17.834  0.00  0.00    +0.000 OA
ATOM     21  H   UNL     1       3.045   9.107  20.017  0.00  0.00    +0.000 HD
BRANCH  18  28
ATOM     22  C   UNL     1      -0.514  12.745  21.825  0.00  0.00    +0.000 C 
ATOM     23  C   UNL     1      -0.164  11.289  21.721  0.00  0.00    +0.000 A 
ATOM     24  C   UNL     1      -0.793  10.343  22.532  0.00  0.00    +0.000 A 
ATOM     25  C   UNL     1      -0.484   8.988  22.404  0.00  0.00    +0.000 A 
ATOM     26  C   UNL     1       0.455   8.546  21.460  0.00  0.00    +0.000 A 
ATOM     27  C   UNL     1       0.803   7.084  21.401  0.00  0.00    +0.000 C 
ATOM     28  C   UNL     1       1.114   9.497  20.662  0.00  0.00    +0.000 A 
ATOM     29  C   UNL     1       0.799  10.858  20.796  0.00  0.00    +0.000 A 
ENDBRANCH  18  28
ENDBRANCH  17  19
ENDBRANCH   1  17
TORSDOF 5
ENDMDL
MODEL 7
REMARK VINA RESULT:      -8.0      3.367      8.385
REMARK  Name = 
REMARK  7 active torsions:
REMARK  status: ('A' for Active; 'I' for Inactive)
REMARK    1  A    between atoms: C_1  and  C_2
REMARK    2  A    between atoms: C_5  and  C_6
REMARK    3  A    between atoms: C_7  and  N_8
REMARK    4  A    between atoms: C_9  and  C_11
REMARK    5  A    between atoms: C_11  and  N_12
REMARK    6  A    between atoms: C_14  and  C_15
REMARK    7  A    between atoms: C_15  and  C_17
REMARK                            x       y       z     vdW  Elec       q    Type
REMARK                         _______ _______ _______ _____ _____    ______ ____
ROOT
ATOM      1  N   UNL     1       0.288  10.833  20.711  0.00  0.00    +0.000 N 
ATOM      2  C   UNL     1      -1.014  10.608  20.334  0.00  0.00    +0.000 A 
ATOM      3  C   UNL     1      -1.466  11.698  19.611  0.00  0.00    +0.000 A 
ATOM      4  C   UNL     1      -0.365  12.622  19.549  0.00  0.00    +0.000 A 
ATOM      5  C   UNL     1      -0.195  13.885  18.942  0.00  0.00    +0.000 A 
ATOM      6  C   UNL     1       1.013  14.575  19.088  0.00  0.00    +0.000 A 
ATOM      7  C   UNL     1       2.051  14.022  19.827  0.00  0.00    +0.000 A 
ATOM      8  C   UNL     1       1.918  12.765  20.429  0.00  0.00    +0.000 A 
ATOM      9  C   UNL     1       0.701  12.076  20.271  0.00  0.00    +0.000 A 
ENDROOT
BRANCH   3  10
ATOM     10  C   UNL     1      -2.774  11.872  18.967  0.00  0.00    +0.000 C 
ATOM     11  O   UNL     1      -3.674  12.466  19.557  0.00  0.00    +0.000 OA
BRANCH  10  12
ATOM     12  C   UNL     1      -2.941  11.296  17.637  0.00  0.00    +0.000 A 
ATOM     13  C   UNL     1      -2.090  10.520  16.869  0.00  0.00    +0.000 A 
ATOM     14  C   UNL     1      -2.672  10.130  15.626  0.00  0.00    +0.000 A 
ATOM     15  C   UNL     1      -3.957  10.604  15.488  0.00  0.00    +0.000 A 
ATOM     16  S   UNL     1      -4.454  11.511  16.845  0.00  0.00    +0.000 S 
ENDBRANCH  10  12
ENDBRANCH   3  10
BRANCH   1  17
ATOM     17  C   UNL     1       1.079   9.891  21.486  0.00  0.00    +0.000 C 
BRANCH  17  19
ATOM     18  N   UNL     1       2.074   7.921  20.356  0.00  0.00    +0.000 N 
ATOM     19  C   UNL     1       0.997   8.436  21.052  0.00  0.00    +0.000 C 
ATOM     20  O   UNL     1       0.020   7.769  21.402  0.00  0.00    +0.000 OA
ATOM     21  H   UNL     1       2.954   8.419  20.426  0.00  0.00    +0.000 HD
BRANCH  18  28
ATOM     22  C   UNL     1       1.364   3.081  21.235  0.00  0.00    +0.000 C 
ATOM     23  C   UNL     1       1.822   4.191  20.334  0.00  0.00    +0.000 A 
ATOM     24  C   UNL     1       2.308   3.918  19.054  0.00  0.00    +0.000 A 
ATOM     25  C   UNL     1       2.699   4.959  18.211  0.00  0.00    +0.000 A 
ATOM     26  C   UNL     1       2.609   6.296  18.625  0.00  0.00    +0.000 A 
ATOM     27  C   UNL     1       3.103   7.382  17.709  0.00  0.00    +0.000 C 
ATOM     28  C   UNL     1       2.150   6.576  19.924  0.00  0.00    +0.000 A 
ATOM     29  C   UNL     1       1.759   5.524  20.766  0.00  0.00    +0.000 A 
ENDBRANCH  18  28
ENDBRANCH  17  19
ENDBRANCH   1  17
TORSDOF 5
ENDMDL
MODEL 8
REMARK VINA RESULT:      -8.0      2.058      4.087
REMARK  Name = 
REMARK  7 active torsions:
REMARK  status: ('A' for Active; 'I' for Inactive)
REMARK    1  A    between atoms: C_1  and  C_2
REMARK    2  A    between atoms: C_5  and  C_6
REMARK    3  A    between atoms: C_7  and  N_8
REMARK    4  A    between atoms: C_9  and  C_11
REMARK    5  A    between atoms: C_11  and  N_12
REMARK    6  A    between atoms: C_14  and  C_15
REMARK    7  A    between atoms: C_15  and  C_17
REMARK                            x       y       z     vdW  Elec       q    Type
REMARK                         _______ _______ _______ _____ _____    ______ ____
ROOT
ATOM      1  N   UNL     1       2.099   6.908  20.123  0.00  0.00    +0.000 N 
ATOM      2  C   UNL     1       2.970   7.468  19.219  0.00  0.00    +0.000 A 
ATOM      3  C   UNL     1       3.297   6.519  18.267  0.00  0.00    +0.000 A 
ATOM      4  C   UNL     1       2.572   5.328  18.621  0.00  0.00    +0.000 A 
ATOM      5  C   UNL     1       2.470   4.048  18.037  0.00  0.00    +0.000 A 
ATOM      6  C   UNL     1       1.690   3.060  18.647  0.00  0.00    +0.000 A 
ATOM      7  C   UNL     1       1.011   3.333  19.827  0.00  0.00    +0.000 A 
ATOM      8  C   UNL     1       1.081   4.597  20.424  0.00  0.00    +0.000 A 
ATOM      9  C   UNL     1       1.864   5.587  19.799  0.00  0.00    +0.000 A 
ENDROOT
BRANCH   3  10
ATOM     10  C   UNL     1       4.152   6.687  17.085  0.00  0.00    +0.000 C 
ATOM     11  O   UNL     1       3.869   7.531  16.237  0.00  0.00    +0.000 OA
BRANCH  10  12
ATOM     12  C   UNL     1       5.308   5.803  16.971  0.00  0.00    +0.000 A 
ATOM     13  C   UNL     1       5.765   5.035  15.913  0.00  0.00    +0.000 A 
ATOM     14  C   UNL     1       6.973   4.341  16.220  0.00  0.00    +0.000 A 
ATOM     15  C   UNL     1       7.415   4.612  17.494  0.00  0.00    +0.000 A 
ATOM     16  S   UNL     1       6.379   5.693  18.313  0.00  0.00    +0.000 S 
ENDBRANCH  10  12
ENDBRANCH   3  10
BRANCH   1  17
ATOM     17  C   UNL     1       1.546   7.624  21.262  0.00  0.00    +0.000 C 
BRANCH  17  19
ATOM     18  N   UNL     1       0.419   9.513  20.118  0.00  0.00    +0.000 N 
ATOM     19  C   UNL     1       0.297   8.447  20.989  0.00  0.00    +0.000 C 
ATOM     20  O   UNL     1      -0.771   8.084  21.490  0.00  0.00    +0.000 OA
ATOM     21  H   UNL     1       1.219   9.516  19.497  0.00  0.00    +0.000 HD
BRANCH  18  28
ATOM     22  C   UNL     1      -3.302  10.568  16.995  0.00  0.00    +0.000 C 
ATOM     23  C   UNL     1      -2.494  10.887  18.220  0.00  0.00    +0.000 A 
ATOM     24  C   UNL     1      -2.812  11.988  19.017  0.00  0.00    +0.000 A 
ATOM     25  C   UNL     1      -2.076  12.258  20.173  0.00  0.00    +0.000 A 
ATOM     26  C   UNL     1      -1.011  11.431  20.560  0.00  0.00    +0.000 A 
ATOM     27  C   UNL     1      -0.205  11.796  21.777  0.00  0.00    +0.000 C 
ATOM     28  C   UNL     1      -0.667  10.340  19.745  0.00  0.00    +0.000 A 
ATOM     29  C   UNL     1      -1.410  10.075  18.584  0.00  0.00    +0.000 A 
ENDBRANCH  18  28
ENDBRANCH  17  19
ENDBRANCH   1  17
TORSDOF 5
ENDMDL
MODEL 9
REMARK VINA RESULT:      -8.0      2.457      4.514
REMARK  Name = 
REMARK  7 active torsions:
REMARK  status: ('A' for Active; 'I' for Inactive)
REMARK    1  A    between atoms: C_1  and  C_2
REMARK    2  A    between atoms: C_5  and  C_6
REMARK    3  A    between atoms: C_7  and  N_8
REMARK    4  A    between atoms: C_9  and  C_11
REMARK    5  A    between atoms: C_11  and  N_12
REMARK    6  A    between atoms: C_14  and  C_15
REMARK    7  A    between atoms: C_15  and  C_17
REMARK                            x       y       z     vdW  Elec       q    Type
REMARK                         _______ _______ _______ _____ _____    ______ ____
ROOT
ATOM      1  N   UNL     1       1.798   6.346  20.083  0.00  0.00    +0.000 N 
ATOM      2  C   UNL     1       2.693   7.083  19.346  0.00  0.00    +0.000 A 
ATOM      3  C   UNL     1       3.196   6.290  18.330  0.00  0.00    +0.000 A 
ATOM      4  C   UNL     1       2.556   5.008  18.467  0.00  0.00    +0.000 A 
ATOM      5  C   UNL     1       2.631   3.806  17.733  0.00  0.00    +0.000 A 
ATOM      6  C   UNL     1       1.894   2.689  18.141  0.00  0.00    +0.000 A 
ATOM      7  C   UNL     1       1.085   2.757  19.267  0.00  0.00    +0.000 A 
ATOM      8  C   UNL     1       0.979   3.939  20.009  0.00  0.00    +0.000 A 
ATOM      9  C   UNL     1       1.720   5.060  19.587  0.00  0.00    +0.000 A 
ENDROOT
BRANCH   3  10
ATOM     10  C   UNL     1       4.138   6.672  17.271  0.00  0.00    +0.000 C 
ATOM     11  O   UNL     1       3.906   7.653  16.567  0.00  0.00    +0.000 OA
BRANCH  10  12
ATOM     12  C   UNL     1       5.317   5.830  17.095  0.00  0.00    +0.000 A 
ATOM     13  C   UNL     1       5.806   5.170  15.980  0.00  0.00    +0.000 A 
ATOM     14  C   UNL     1       7.028   4.481  16.241  0.00  0.00    +0.000 A 
ATOM     15  C   UNL     1       7.447   4.648  17.541  0.00  0.00    +0.000 A 
ATOM     16  S   UNL     1       6.375   5.627  18.438  0.00  0.00    +0.000 S 
ENDBRANCH  10  12
ENDBRANCH   3  10
BRANCH   1  17
ATOM     17  C   UNL     1       1.075   6.868  21.233  0.00  0.00    +0.000 C 
BRANCH  17  19
ATOM     18  N   UNL     1       0.161   9.117  20.730  0.00  0.00    +0.000 N 
ATOM     19  C   UNL     1       1.109   8.377  21.412  0.00  0.00    +0.000 C 
ATOM     20  O   UNL     1       1.918   8.861  22.208  0.00  0.00    +0.000 OA
ATOM     21  H   UNL     1      -0.661   8.626  20.397  0.00  0.00    +0.000 HD
BRANCH  18  28
ATOM     22  C   UNL     1      -1.398  13.134  23.207  0.00  0.00    +0.000 C 
ATOM     23  C   UNL     1      -0.714  12.513  22.024  0.00  0.00    +0.000 A 
ATOM     24  C   UNL     1      -0.161  13.311  21.020  0.00  0.00    +0.000 A 
ATOM     25  C   UNL     1       0.502  12.725  19.940  0.00  0.00    +0.000 A 
ATOM     26  C   UNL     1       0.632  11.332  19.841  0.00  0.00    +0.000 A 
ATOM     27  C   UNL     1       1.298  10.743  18.628  0.00  0.00    +0.000 C 
ATOM     28  C   UNL     1       0.051  10.524  20.832  0.00  0.00    +0.000 A 
ATOM     29  C   UNL     1      -0.615  11.118  21.915  0.00  0.00    +0.000 A 
ENDBRANCH  18  28
ENDBRANCH  17  19
ENDBRANCH   1  17
TORSDOF 5
ENDMDL
