MODEL 1
REMARK VINA RESULT:      -8.5      0.000      0.000
REMARK  Name = 
REMARK  9 active torsions:
REMARK  status: ('A' for Active; 'I' for Inactive)
REMARK    1  A    between atoms: C_1  and  C_2
REMARK    2  A    between atoms: C_2  and  C_3
REMARK    3  A    between atoms: C_2  and  C_4
REMARK    4  A    between atoms: N_15  and  C_16
REMARK    5  A    between atoms: C_16  and  C_17
REMARK    6  A    between atoms: C_16  and  C_18
REMARK    7  A    between atoms: C_21  and  C_22
REMARK    8  A    between atoms: C_22  and  N_23
REMARK    9  A    between atoms: N_27  and  C_28
REMARK                            x       y       z     vdW  Elec       q    Type
REMARK                         _______ _______ _______ _____ _____    ______ ____
ROOT
ATOM      1  C   UNL     1       0.313  10.430  18.727  0.00  0.00    +0.000 C 
ATOM      2  C   UNL     1      -0.744  10.075  17.681  0.00  0.00    +0.000 C 
ENDROOT
BRANCH   1  14
ATOM      3  C   UNL     1      -1.432  14.451  21.095  0.00  0.00    +0.000 C 
ATOM      4  C   UNL     1      -2.402  15.573  21.436  0.00  0.00    +0.000 C 
ATOM      5  O   UNL     1      -2.344  16.483  20.331  0.00  0.00    +0.000 OA
ATOM      6  C   UNL     1      -1.179  16.250  19.655  0.00  0.00    +0.000 C 
ATOM      7  O   UNL     1      -0.791  16.964  18.743  0.00  0.00    +0.000 OA
ATOM      8  N   UNL     1      -0.579  15.108  20.151  0.00  0.00    +0.000 N 
ATOM      9  C   UNL     1       0.490  14.479  19.508  0.00  0.00    +0.000 A 
ATOM     10  C   UNL     1       1.650  15.184  19.292  0.00  0.00    +0.000 A 
ATOM     11  C   UNL     1       2.702  14.456  18.805  0.00  0.00    +0.000 A 
ATOM     12  N   UNL     1       2.595  13.166  18.459  0.00  0.00    +0.000 NA
ATOM     13  C   UNL     1       1.402  12.576  18.646  0.00  0.00    +0.000 A 
ATOM     14  N   UNL     1       1.300  11.306  18.128  0.00  0.00    +0.000 N 
ATOM     15  N   UNL     1       0.370  13.178  19.223  0.00  0.00    +0.000 NA
ATOM     16  H   UNL     1       2.241  10.935  18.047  0.00  0.00    +0.000 HD
BRANCH   3  18
ATOM     17  C   UNL     1      -1.063  14.494  23.648  0.00  0.00    +0.000 C 
ATOM     18  C   UNL     1      -0.657  13.864  22.307  0.00  0.00    +0.000 C 
ATOM     19  C   UNL     1      -0.785  12.342  22.404  0.00  0.00    +0.000 C 
ENDBRANCH   3  18
ENDBRANCH   1  14
BRANCH   1  20
ATOM     20  C   UNL     1       1.085   9.273  19.342  0.00  0.00    +0.000 A 
ATOM     21  C   UNL     1       1.875   8.499  18.481  0.00  0.00    +0.000 A 
ATOM     22  C   UNL     1       2.405   7.286  18.905  0.00  0.00    +0.000 A 
ATOM     23  C   UNL     1       2.181   6.792  20.205  0.00  0.00    +0.000 A 
ATOM     24  C   UNL     1       1.454   7.596  21.087  0.00  0.00    +0.000 A 
ATOM     25  C   UNL     1       0.898   8.817  20.655  0.00  0.00    +0.000 A 
BRANCH  23  26
ATOM     26  C   UNL     1       2.689   5.381  20.434  0.00  0.00    +0.000 C 
BRANCH  26  27
ATOM     27  N   UNL     1       1.807   4.272  20.844  0.00  0.00    +0.000 NA
ATOM     28  C   UNL     1       0.798   3.865  19.857  0.00  0.00    +0.000 C 
ATOM     29  C   UNL     1       1.484   2.996  18.803  0.00  0.00    +0.000 C 
ATOM     30  C   UNL     1       2.080   3.744  17.605  0.00  0.00    +0.000 C 
ATOM     31  N   UNL     1       3.512   3.633  17.753  0.00  0.00    +0.000 NA
ATOM     32  C   UNL     1       4.411   3.912  16.668  0.00  0.00    +0.000 C 
ATOM     33  C   UNL     1       3.912   2.667  18.746  0.00  0.00    +0.000 C 
ATOM     34  C   UNL     1       2.659   2.370  19.563  0.00  0.00    +0.000 C 
ATOM     35  C   UNL     1       2.624   3.031  20.953  0.00  0.00    +0.000 C 
ENDBRANCH  26  27
ENDBRANCH  23  26
ENDBRANCH   1  20
TORSDOF 5
ENDMDL
MODEL 2
REMARK VINA RESULT:      -8.5      1.269      2.109
REMARK  Name = 
REMARK  9 active torsions:
REMARK  status: ('A' for Active; 'I' for Inactive)
REMARK    1  A    between atoms: C_1  and  C_2
REMARK    2  A    between atoms: C_2  and  C_3
REMARK    3  A    between atoms: C_2  and  C_4
REMARK    4  A    between atoms: N_15  and  C_16
REMARK    5  A    between atoms: C_16  and  C_17
REMARK    6  A    between atoms: C_16  and  C_18
REMARK    7  A    between atoms: C_21  and  C_22
REMARK    8  A    between atoms: C_22  and  N_23
REMARK    9  A    between atoms: N_27  and  C_28
REMARK                            x       y       z     vdW  Elec       q    Type
REMARK                         _______ _______ _______ _____ _____    ______ ____
ROOT
ATOM      1  C   UNL     1      -0.238  11.038  18.832  0.00  0.00    +0.000 C 
ATOM      2  C   UNL     1      -1.477  10.700  18.002  0.00  0.00    +0.000 C 
ENDROOT
BRANCH   1  14
ATOM      3  C   UNL     1      -2.237  14.507  21.797  0.00  0.00    +0.000 C 
ATOM      4  C   UNL     1      -3.315  15.412  22.377  0.00  0.00    +0.000 C 
ATOM      5  O   UNL     1      -3.579  16.393  21.367  0.00  0.00    +0.000 OA
ATOM      6  C   UNL     1      -2.511  16.420  20.516  0.00  0.00    +0.000 C 
ATOM      7  O   UNL     1      -2.391  17.254  19.632  0.00  0.00    +0.000 OA
ATOM      8  N   UNL     1      -1.661  15.371  20.811  0.00  0.00    +0.000 N 
ATOM      9  C   UNL     1      -0.615  14.989  19.967  0.00  0.00    +0.000 A 
ATOM     10  C   UNL     1       0.365  15.902  19.660  0.00  0.00    +0.000 A 
ATOM     11  C   UNL     1       1.435  15.409  18.962  0.00  0.00    +0.000 A 
ATOM     12  N   UNL     1       1.491  14.148  18.512  0.00  0.00    +0.000 NA
ATOM     13  C   UNL     1       0.455  13.344  18.806  0.00  0.00    +0.000 A 
ATOM     14  N   UNL     1       0.486  12.116  18.187  0.00  0.00    +0.000 N 
ATOM     15  N   UNL     1      -0.561  13.711  19.577  0.00  0.00    +0.000 NA
ATOM     16  H   UNL     1       1.451  11.925  17.940  0.00  0.00    +0.000 HD
BRANCH   3  18
ATOM     17  C   UNL     1      -1.371  14.592  24.226  0.00  0.00    +0.000 C 
ATOM     18  C   UNL     1      -1.197  13.983  22.826  0.00  0.00    +0.000 C 
ATOM     19  C   UNL     1      -1.199  12.457  22.936  0.00  0.00    +0.000 C 
ENDBRANCH   3  18
ENDBRANCH   1  14
BRANCH   1  20
ATOM     20  C   UNL     1       0.768   9.919  19.051  0.00  0.00    +0.000 A 
ATOM     21  C   UNL     1       1.450   9.440  17.926  0.00  0.00    +0.000 A 
ATOM     22  C   UNL     1       2.188   8.264  17.992  0.00  0.00    +0.000 A 
ATOM     23  C   UNL     1       2.287   7.516  19.182  0.00  0.00    +0.000 A 
ATOM     24  C   UNL     1       1.666   8.030  20.323  0.00  0.00    +0.000 A 
ATOM     25  C   UNL     1       0.901   9.212  20.255  0.00  0.00    +0.000 A 
BRANCH  23  26
ATOM     26  C   UNL     1       2.988   6.180  19.024  0.00  0.00    +0.000 C 
BRANCH  26  27
ATOM     27  N   UNL     1       4.345   6.053  18.461  0.00  0.00    +0.000 NA
ATOM     28  C   UNL     1       5.261   5.175  19.203  0.00  0.00    +0.000 C 
ATOM     29  C   UNL     1       4.925   3.726  18.850  0.00  0.00    +0.000 C 
ATOM     30  C   UNL     1       3.867   3.053  19.732  0.00  0.00    +0.000 C 
ATOM     31  N   UNL     1       2.706   2.890  18.889  0.00  0.00    +0.000 NA
ATOM     32  C   UNL     1       1.630   2.007  19.240  0.00  0.00    +0.000 C 
ATOM     33  C   UNL     1       2.978   3.121  17.491  0.00  0.00    +0.000 C 
ATOM     34  C   UNL     1       4.328   3.828  17.442  0.00  0.00    +0.000 C 
ATOM     35  C   UNL     1       4.253   5.340  17.156  0.00  0.00    +0.000 C 
ENDBRANCH  26  27
ENDBRANCH  23  26
ENDBRANCH   1  20
TORSDOF 5
ENDMDL
MODEL 3
REMARK VINA RESULT:      -8.4      0.826      1.934
REMARK  Name = 
REMARK  9 active torsions:
REMARK  status: ('A' for Active; 'I' for Inactive)
REMARK    1  A    between atoms: C_1  and  C_2
REMARK    2  A    between atoms: C_2  and  C_3
REMARK    3  A    between atoms: C_2  and  C_4
REMARK    4  A    between atoms: N_15  and  C_16
REMARK    5  A    between atoms: C_16  and  C_17
REMARK    6  A    between atoms: C_16  and  C_18
REMARK    7  A    between atoms: C_21  and  C_22
REMARK    8  A    between atoms: C_22  and  N_23
REMARK    9  A    between atoms: N_27  and  C_28
REMARK                            x       y       z     vdW  Elec       q    Type
REMARK                         _______ _______ _______ _____ _____    ______ ____
ROOT
ATOM      1  C   UNL     1       0.574  10.527  18.840  0.00  0.00    +0.000 C 
ATOM      2  C   UNL     1      -0.636  10.401  17.914  0.00  0.00    +0.000 C 
ENDROOT
BRANCH   1  14
ATOM      3  C   UNL     1      -1.763  14.095  21.415  0.00  0.00    +0.000 C 
ATOM      4  C   UNL     1      -2.885  15.050  21.797  0.00  0.00    +0.000 C 
ATOM      5  O   UNL     1      -2.920  16.038  20.760  0.00  0.00    +0.000 OA
ATOM      6  C   UNL     1      -1.717  16.013  20.114  0.00  0.00    +0.000 C 
ATOM      7  O   UNL     1      -1.403  16.837  19.268  0.00  0.00    +0.000 OA
ATOM      8  N   UNL     1      -0.982  14.928  20.551  0.00  0.00    +0.000 N 
ATOM      9  C   UNL     1       0.180  14.495  19.906  0.00  0.00    +0.000 A 
ATOM     10  C   UNL     1       1.239  15.362  19.782  0.00  0.00    +0.000 A 
ATOM     11  C   UNL     1       2.393  14.819  19.285  0.00  0.00    +0.000 A 
ATOM     12  N   UNL     1       2.471  13.554  18.847  0.00  0.00    +0.000 NA
ATOM     13  C   UNL     1       1.364  12.799  18.948  0.00  0.00    +0.000 A 
ATOM     14  N   UNL     1       1.449  11.569  18.340  0.00  0.00    +0.000 N 
ATOM     15  N   UNL     1       0.245  13.215  19.527  0.00  0.00    +0.000 NA
ATOM     16  H   UNL     1       2.434  11.333  18.268  0.00  0.00    +0.000 HD
BRANCH   3  18
ATOM     17  C   UNL     1      -1.313  14.181  23.954  0.00  0.00    +0.000 C 
ATOM     18  C   UNL     1      -0.949  13.528  22.611  0.00  0.00    +0.000 C 
ATOM     19  C   UNL     1      -1.073  12.009  22.738  0.00  0.00    +0.000 C 
ENDBRANCH   3  18
ENDBRANCH   1  14
BRANCH   1  20
ATOM     20  C   UNL     1       1.438   9.288  19.012  0.00  0.00    +0.000 A 
ATOM     21  C   UNL     1       2.244   8.912  17.929  0.00  0.00    +0.000 A 
ATOM     22  C   UNL     1       2.863   7.668  17.905  0.00  0.00    +0.000 A 
ATOM     23  C   UNL     1       2.717   6.745  18.960  0.00  0.00    +0.000 A 
ATOM     24  C   UNL     1       1.973   7.147  20.072  0.00  0.00    +0.000 A 
ATOM     25  C   UNL     1       1.327   8.400  20.092  0.00  0.00    +0.000 A 
BRANCH  23  26
ATOM     26  C   UNL     1       3.320   5.381  18.686  0.00  0.00    +0.000 C 
BRANCH  26  27
ATOM     27  N   UNL     1       2.974   4.580  17.496  0.00  0.00    +0.000 NA
ATOM     28  C   UNL     1       3.537   3.224  17.458  0.00  0.00    +0.000 C 
ATOM     29  C   UNL     1       2.694   2.330  18.368  0.00  0.00    +0.000 C 
ATOM     30  C   UNL     1       3.133   2.267  19.835  0.00  0.00    +0.000 C 
ATOM     31  N   UNL     1       2.106   2.959  20.577  0.00  0.00    +0.000 NA
ATOM     32  C   UNL     1       1.980   2.830  22.002  0.00  0.00    +0.000 C 
ATOM     33  C   UNL     1       0.917   3.217  19.803  0.00  0.00    +0.000 C 
ATOM     34  C   UNL     1       1.314   2.996  18.347  0.00  0.00    +0.000 C 
ATOM     35  C   UNL     1       1.514   4.287  17.531  0.00  0.00    +0.000 C 
ENDBRANCH  26  27
ENDBRANCH  23  26
ENDBRANCH   1  20
TORSDOF 5
ENDMDL
MODEL 4
REMARK VINA RESULT:      -8.3      1.316      1.599
REMARK  Name = 
REMARK  9 active torsions:
REMARK  status: ('A' for Active; 'I' for Inactive)
REMARK    1  A    between atoms: C_1  and  C_2
REMARK    2  A    between atoms: C_2  and  C_3
REMARK    3  A    between atoms: C_2  and  C_4
REMARK    4  A    between atoms: N_15  and  C_16
REMARK    5  A    between atoms: C_16  and  C_17
REMARK    6  A    between atoms: C_16  and  C_18
REMARK    7  A    between atoms: C_21  and  C_22
REMARK    8  A    between atoms: C_22  and  N_23
REMARK    9  A    between atoms: N_27  and  C_28
REMARK                            x       y       z     vdW  Elec       q    Type
REMARK                         _______ _______ _______ _____ _____    ______ ____
ROOT
ATOM      1  C   UNL     1      -0.380  10.998  18.783  0.00  0.00    +0.000 C 
ATOM      2  C   UNL     1      -1.524  10.577  17.860  0.00  0.00    +0.000 C 
ENDROOT
BRANCH   1  14
ATOM      3  C   UNL     1      -2.214  14.540  21.770  0.00  0.00    +0.000 C 
ATOM      4  C   UNL     1      -3.248  15.488  22.359  0.00  0.00    +0.000 C 
ATOM      5  O   UNL     1      -3.473  16.485  21.354  0.00  0.00    +0.000 OA
ATOM      6  C   UNL     1      -2.408  16.468  20.498  0.00  0.00    +0.000 C 
ATOM      7  O   UNL     1      -2.255  17.299  19.617  0.00  0.00    +0.000 OA
ATOM      8  N   UNL     1      -1.604  15.381  20.785  0.00  0.00    +0.000 N 
ATOM      9  C   UNL     1      -0.579  14.957  19.936  0.00  0.00    +0.000 A 
ATOM     10  C   UNL     1       0.439  15.828  19.628  0.00  0.00    +0.000 A 
ATOM     11  C   UNL     1       1.484  15.291  18.925  0.00  0.00    +0.000 A 
ATOM     12  N   UNL     1       1.483  14.031  18.469  0.00  0.00    +0.000 NA
ATOM     13  C   UNL     1       0.414  13.272  18.764  0.00  0.00    +0.000 A 
ATOM     14  N   UNL     1       0.388  12.047  18.140  0.00  0.00    +0.000 N 
ATOM     15  N   UNL     1      -0.582  13.680  19.541  0.00  0.00    +0.000 NA
ATOM     16  H   UNL     1       1.343  11.814  17.889  0.00  0.00    +0.000 HD
BRANCH   3  18
ATOM     17  C   UNL     1      -1.308  14.606  24.185  0.00  0.00    +0.000 C 
ATOM     18  C   UNL     1      -1.194  13.966  22.793  0.00  0.00    +0.000 C 
ATOM     19  C   UNL     1      -1.291  12.445  22.928  0.00  0.00    +0.000 C 
ENDBRANCH   3  18
ENDBRANCH   1  14
BRANCH   1  20
ATOM     20  C   UNL     1       0.616   9.919  19.179  0.00  0.00    +0.000 A 
ATOM     21  C   UNL     1       1.419   9.384  18.164  0.00  0.00    +0.000 A 
ATOM     22  C   UNL     1       2.165   8.232  18.384  0.00  0.00    +0.000 A 
ATOM     23  C   UNL     1       2.153   7.567  19.626  0.00  0.00    +0.000 A 
ATOM     24  C   UNL     1       1.409   8.140  20.661  0.00  0.00    +0.000 A 
ATOM     25  C   UNL     1       0.635   9.296  20.435  0.00  0.00    +0.000 A 
BRANCH  23  26
ATOM     26  C   UNL     1       2.888   6.239  19.631  0.00  0.00    +0.000 C 
BRANCH  26  27
ATOM     27  N   UNL     1       2.232   4.964  19.287  0.00  0.00    +0.000 NA
ATOM     28  C   UNL     1       2.138   4.666  17.851  0.00  0.00    +0.000 C 
ATOM     29  C   UNL     1       3.498   4.152  17.378  0.00  0.00    +0.000 C 
ATOM     30  C   UNL     1       4.485   5.222  16.898  0.00  0.00    +0.000 C 
ATOM     31  N   UNL     1       5.527   5.264  17.898  0.00  0.00    +0.000 NA
ATOM     32  C   UNL     1       6.793   5.893  17.649  0.00  0.00    +0.000 C 
ATOM     33  C   UNL     1       5.479   4.157  18.821  0.00  0.00    +0.000 C 
ATOM     34  C   UNL     1       4.102   3.525  18.639  0.00  0.00    +0.000 C 
ATOM     35  C   UNL     1       3.094   3.845  19.759  0.00  0.00    +0.000 C 
ENDBRANCH  26  27
ENDBRANCH  23  26
ENDBRANCH   1  20
TORSDOF 5
ENDMDL
MODEL 5
REMARK VINA RESULT:      -8.3      2.787      4.233
REMARK  Name = 
REMARK  9 active torsions:
REMARK  status: ('A' for Active; 'I' for Inactive)
REMARK    1  A    between atoms: C_1  and  C_2
REMARK    2  A    between atoms: C_2  and  C_3
REMARK    3  A    between atoms: C_2  and  C_4
REMARK    4  A    between atoms: N_15  and  C_16
REMARK    5  A    between atoms: C_16  and  C_17
REMARK    6  A    between atoms: C_16  and  C_18
REMARK    7  A    between atoms: C_21  and  C_22
REMARK    8  A    between atoms: C_22  and  N_23
REMARK    9  A    between atoms: N_27  and  C_28
REMARK                            x       y       z     vdW  Elec       q    Type
REMARK                         _______ _______ _______ _____ _____    ______ ____
ROOT
ATOM      1  C   UNL     1      -0.035  11.561  19.395  0.00  0.00    +0.000 C 
ATOM      2  C   UNL     1       0.444  12.804  18.646  0.00  0.00    +0.000 C 
ENDROOT
BRANCH   1  14
ATOM      3  C   UNL     1      -4.892  12.590  18.977  0.00  0.00    +0.000 C 
ATOM      4  C   UNL     1      -6.138  13.359  18.560  0.00  0.00    +0.000 C 
ATOM      5  O   UNL     1      -6.151  14.540  19.371  0.00  0.00    +0.000 OA
ATOM      6  C   UNL     1      -5.351  14.314  20.456  0.00  0.00    +0.000 C 
ATOM      7  O   UNL     1      -5.274  15.094  21.393  0.00  0.00    +0.000 OA
ATOM      8  N   UNL     1      -4.669  13.124  20.286  0.00  0.00    +0.000 N 
ATOM      9  C   UNL     1      -3.602  12.744  21.103  0.00  0.00    +0.000 A 
ATOM     10  C   UNL     1      -3.807  12.615  22.456  0.00  0.00    +0.000 A 
ATOM     11  C   UNL     1      -2.762  12.087  23.165  0.00  0.00    +0.000 A 
ATOM     12  N   UNL     1      -1.575  11.806  22.610  0.00  0.00    +0.000 NA
ATOM     13  C   UNL     1      -1.446  12.026  21.290  0.00  0.00    +0.000 A 
ATOM     14  N   UNL     1      -0.169  11.877  20.804  0.00  0.00    +0.000 N 
ATOM     15  N   UNL     1      -2.446  12.422  20.513  0.00  0.00    +0.000 NA
ATOM     16  H   UNL     1       0.333  11.275  21.449  0.00  0.00    +0.000 HD
BRANCH   3  18
ATOM     17  C   UNL     1      -6.502  10.579  18.814  0.00  0.00    +0.000 C 
ATOM     18  C   UNL     1      -5.045  11.043  18.971  0.00  0.00    +0.000 C 
ATOM     19  C   UNL     1      -4.184  10.372  17.900  0.00  0.00    +0.000 C 
ENDBRANCH   3  18
ENDBRANCH   1  14
BRANCH   1  20
ATOM     20  C   UNL     1       0.850  10.327  19.315  0.00  0.00    +0.000 A 
ATOM     21  C   UNL     1       1.420  10.027  18.072  0.00  0.00    +0.000 A 
ATOM     22  C   UNL     1       2.026   8.795  17.849  0.00  0.00    +0.000 A 
ATOM     23  C   UNL     1       2.101   7.812  18.856  0.00  0.00    +0.000 A 
ATOM     24  C   UNL     1       1.597   8.139  20.118  0.00  0.00    +0.000 A 
ATOM     25  C   UNL     1       0.964   9.378  20.342  0.00  0.00    +0.000 A 
BRANCH  23  26
ATOM     26  C   UNL     1       2.641   6.475  18.386  0.00  0.00    +0.000 C 
BRANCH  26  27
ATOM     27  N   UNL     1       4.085   6.196  18.268  0.00  0.00    +0.000 NA
ATOM     28  C   UNL     1       4.667   5.395  19.354  0.00  0.00    +0.000 C 
ATOM     29  C   UNL     1       4.312   3.928  19.110  0.00  0.00    +0.000 C 
ATOM     30  C   UNL     1       2.990   3.451  19.721  0.00  0.00    +0.000 C 
ATOM     31  N   UNL     1       2.106   3.222  18.602  0.00  0.00    +0.000 NA
ATOM     32  C   UNL     1       0.897   2.458  18.734  0.00  0.00    +0.000 C 
ATOM     33  C   UNL     1       2.783   3.224  17.329  0.00  0.00    +0.000 C 
ATOM     34  C   UNL     1       4.151   3.846  17.588  0.00  0.00    +0.000 C 
ATOM     35  C   UNL     1       4.301   5.299  17.099  0.00  0.00    +0.000 C 
ENDBRANCH  26  27
ENDBRANCH  23  26
ENDBRANCH   1  20
TORSDOF 5
ENDMDL
MODEL 6
REMARK VINA RESULT:      -8.2      2.933      4.385
REMARK  Name = 
REMARK  9 active torsions:
REMARK  status: ('A' for Active; 'I' for Inactive)
REMARK    1  A    between atoms: C_1  and  C_2
REMARK    2  A    between atoms: C_2  and  C_3
REMARK    3  A    between atoms: C_2  and  C_4
REMARK    4  A    between atoms: N_15  and  C_16
REMARK    5  A    between atoms: C_16  and  C_17
REMARK    6  A    between atoms: C_16  and  C_18
REMARK    7  A    between atoms: C_21  and  C_22
REMARK    8  A    between atoms: C_22  and  N_23
REMARK    9  A    between atoms: N_27  and  C_28
REMARK                            x       y       z     vdW  Elec       q    Type
REMARK                         _______ _______ _______ _____ _____    ______ ____
ROOT
ATOM      1  C   UNL     1      -0.347  11.403  19.727  0.00  0.00    +0.000 C 
ATOM      2  C   UNL     1       0.154  12.589  18.903  0.00  0.00    +0.000 C 
ENDROOT
BRANCH   1  14
ATOM      3  C   UNL     1      -5.104  12.549  18.794  0.00  0.00    +0.000 C 
ATOM      4  C   UNL     1      -6.278  13.320  18.206  0.00  0.00    +0.000 C 
ATOM      5  O   UNL     1      -6.315  14.564  18.916  0.00  0.00    +0.000 OA
ATOM      6  C   UNL     1      -5.622  14.404  20.083  0.00  0.00    +0.000 C 
ATOM      7  O   UNL     1      -5.595  15.256  20.958  0.00  0.00    +0.000 OA
ATOM      8  N   UNL     1      -4.975  13.183  20.071  0.00  0.00    +0.000 N 
ATOM      9  C   UNL     1      -3.999  12.838  21.008  0.00  0.00    +0.000 A 
ATOM     10  C   UNL     1      -4.326  12.828  22.343  0.00  0.00    +0.000 A 
ATOM     11  C   UNL     1      -3.368  12.327  23.183  0.00  0.00    +0.000 A 
ATOM     12  N   UNL     1      -2.149  11.963  22.761  0.00  0.00    +0.000 NA
ATOM     13  C   UNL     1      -1.897  12.069  21.445  0.00  0.00    +0.000 A 
ATOM     14  N   UNL     1      -0.589  11.838  21.089  0.00  0.00    +0.000 N 
ATOM     15  N   UNL     1      -2.810  12.431  20.552  0.00  0.00    +0.000 NA
ATOM     16  H   UNL     1      -0.169  11.277  21.822  0.00  0.00    +0.000 HD
BRANCH   3  18
ATOM     17  C   UNL     1      -6.788  10.593  18.743  0.00  0.00    +0.000 C 
ATOM     18  C   UNL     1      -5.317  11.012  18.898  0.00  0.00    +0.000 C 
ATOM     19  C   UNL     1      -4.462  10.233  17.898  0.00  0.00    +0.000 C 
ENDBRANCH   3  18
ENDBRANCH   1  14
BRANCH   1  20
ATOM     20  C   UNL     1       0.573  10.195  19.822  0.00  0.00    +0.000 A 
ATOM     21  C   UNL     1       1.188   9.763  18.640  0.00  0.00    +0.000 A 
ATOM     22  C   UNL     1       1.833   8.532  18.586  0.00  0.00    +0.000 A 
ATOM     23  C   UNL     1       1.902   7.681  19.707  0.00  0.00    +0.000 A 
ATOM     24  C   UNL     1       1.353   8.143  20.906  0.00  0.00    +0.000 A 
ATOM     25  C   UNL     1       0.681   9.381  20.960  0.00  0.00    +0.000 A 
BRANCH  23  26
ATOM     26  C   UNL     1       2.492   6.314  19.418  0.00  0.00    +0.000 C 
BRANCH  26  27
ATOM     27  N   UNL     1       2.662   5.792  18.049  0.00  0.00    +0.000 NA
ATOM     28  C   UNL     1       3.740   4.810  17.873  0.00  0.00    +0.000 C 
ATOM     29  C   UNL     1       3.241   3.457  18.380  0.00  0.00    +0.000 C 
ATOM     30  C   UNL     1       3.481   3.172  19.867  0.00  0.00    +0.000 C 
ATOM     31  N   UNL     1       2.175   3.202  20.483  0.00  0.00    +0.000 NA
ATOM     32  C   UNL     1       1.940   2.658  21.791  0.00  0.00    +0.000 C 
ATOM     33  C   UNL     1       1.093   3.193  19.530  0.00  0.00    +0.000 C 
ATOM     34  C   UNL     1       1.724   3.537  18.184  0.00  0.00    +0.000 C 
ATOM     35  C   UNL     1       1.465   4.976  17.700  0.00  0.00    +0.000 C 
ENDBRANCH  26  27
ENDBRANCH  23  26
ENDBRANCH   1  20
TORSDOF 5
ENDMDL
MODEL 7
REMARK VINA RESULT:      -8.1      2.952      4.193
REMARK  Name = 
REMARK  9 active torsions:
REMARK  status: ('A' for Active; 'I' for Inactive)
REMARK    1  A    between atoms: C_1  and  C_2
REMARK    2  A    between atoms: C_2  and  C_3
REMARK    3  A    between atoms: C_2  and  C_4
REMARK    4  A    between atoms: N_15  and  C_16
REMARK    5  A    between atoms: C_16  and  C_17
REMARK    6  A    between atoms: C_16  and  C_18
REMARK    7  A    between atoms: C_21  and  C_22
REMARK    8  A    between atoms: C_22  and  N_23
REMARK    9  A    between atoms: N_27  and  C_28
REMARK                            x       y       z     vdW  Elec       q    Type
REMARK                         _______ _______ _______ _____ _____    ______ ____
ROOT
ATOM      1  C   UNL     1      -0.230  11.445  19.493  0.00  0.00    +0.000 C 
ATOM      2  C   UNL     1       0.428  12.636  18.797  0.00  0.00    +0.000 C 
ENDROOT
BRANCH   1  14
ATOM      3  C   UNL     1      -4.971  12.975  19.424  0.00  0.00    +0.000 C 
ATOM      4  C   UNL     1      -6.152  13.889  19.125  0.00  0.00    +0.000 C 
ATOM      5  O   UNL     1      -6.000  15.012  20.002  0.00  0.00    +0.000 OA
ATOM      6  C   UNL     1      -5.171  14.641  21.022  0.00  0.00    +0.000 C 
ATOM      7  O   UNL     1      -4.964  15.350  21.996  0.00  0.00    +0.000 OA
ATOM      8  N   UNL     1      -4.625  13.403  20.745  0.00  0.00    +0.000 N 
ATOM      9  C   UNL     1      -3.560  12.868  21.475  0.00  0.00    +0.000 A 
ATOM     10  C   UNL     1      -3.705  12.676  22.828  0.00  0.00    +0.000 A 
ATOM     11  C   UNL     1      -2.683  12.004  23.443  0.00  0.00    +0.000 A 
ATOM     12  N   UNL     1      -1.562  11.642  22.803  0.00  0.00    +0.000 NA
ATOM     13  C   UNL     1      -1.483  11.929  21.492  0.00  0.00    +0.000 A 
ATOM     14  N   UNL     1      -0.255  11.684  20.923  0.00  0.00    +0.000 N 
ATOM     15  N   UNL     1      -2.477  12.470  20.800  0.00  0.00    +0.000 NA
ATOM     16  H   UNL     1       0.216  10.997  21.502  0.00  0.00    +0.000 HD
BRANCH   3  18
ATOM     17  C   UNL     1      -6.754  11.121  19.634  0.00  0.00    +0.000 C 
ATOM     18  C   UNL     1      -5.283  11.454  19.340  0.00  0.00    +0.000 C 
ATOM     19  C   UNL     1      -4.886  10.848  17.992  0.00  0.00    +0.000 C 
ENDBRANCH   3  18
ENDBRANCH   1  14
BRANCH   1  20
ATOM     20  C   UNL     1       0.426  10.088  19.298  0.00  0.00    +0.000 A 
ATOM     21  C   UNL     1       0.646   9.310  20.442  0.00  0.00    +0.000 A 
ATOM     22  C   UNL     1       1.460   8.184  20.389  0.00  0.00    +0.000 A 
ATOM     23  C   UNL     1       2.084   7.776  19.194  0.00  0.00    +0.000 A 
ATOM     24  C   UNL     1       1.808   8.509  18.036  0.00  0.00    +0.000 A 
ATOM     25  C   UNL     1       1.000   9.663  18.090  0.00  0.00    +0.000 A 
BRANCH  23  26
ATOM     26  C   UNL     1       3.066   6.632  19.360  0.00  0.00    +0.000 C 
BRANCH  26  27
ATOM     27  N   UNL     1       2.694   5.223  19.133  0.00  0.00    +0.000 NA
ATOM     28  C   UNL     1       2.678   4.789  17.729  0.00  0.00    +0.000 C 
ATOM     29  C   UNL     1       4.120   4.531  17.292  0.00  0.00    +0.000 C 
ATOM     30  C   UNL     1       4.869   5.738  16.714  0.00  0.00    +0.000 C 
ATOM     31  N   UNL     1       5.868   6.082  17.698  0.00  0.00    +0.000 NA
ATOM     32  C   UNL     1       6.978   6.937  17.385  0.00  0.00    +0.000 C 
ATOM     33  C   UNL     1       6.042   5.073  18.713  0.00  0.00    +0.000 C 
ATOM     34  C   UNL     1       4.829   4.155  18.598  0.00  0.00    +0.000 C 
ATOM     35  C   UNL     1       3.765   4.353  19.694  0.00  0.00    +0.000 C 
ENDBRANCH  26  27
ENDBRANCH  23  26
ENDBRANCH   1  20
TORSDOF 5
ENDMDL
MODEL 8
REMARK VINA RESULT:      -7.9      1.096      2.231
REMARK  Name = 
REMARK  9 active torsions:
REMARK  status: ('A' for Active; 'I' for Inactive)
REMARK    1  A    between atoms: C_1  and  C_2
REMARK    2  A    between atoms: C_2  and  C_3
REMARK    3  A    between atoms: C_2  and  C_4
REMARK    4  A    between atoms: N_15  and  C_16
REMARK    5  A    between atoms: C_16  and  C_17
REMARK    6  A    between atoms: C_16  and  C_18
REMARK    7  A    between atoms: C_21  and  C_22
REMARK    8  A    between atoms: C_22  and  N_23
REMARK    9  A    between atoms: N_27  and  C_28
REMARK                            x       y       z     vdW  Elec       q    Type
REMARK                         _______ _______ _______ _____ _____    ______ ____
ROOT
ATOM      1  C   UNL     1       0.788  11.077  19.015  0.00  0.00    +0.000 C 
ATOM      2  C   UNL     1      -0.631  11.375  18.532  0.00  0.00    +0.000 C 
ENDROOT
BRANCH   1  14
ATOM      3  C   UNL     1      -1.048  15.429  20.599  0.00  0.00    +0.000 C 
ATOM      4  C   UNL     1      -2.050  16.565  20.742  0.00  0.00    +0.000 C 
ATOM      5  O   UNL     1      -2.048  17.242  19.479  0.00  0.00    +0.000 OA
ATOM      6  C   UNL     1      -0.890  16.917  18.829  0.00  0.00    +0.000 C 
ATOM      7  O   UNL     1      -0.547  17.450  17.785  0.00  0.00    +0.000 OA
ATOM      8  N   UNL     1      -0.240  15.914  19.521  0.00  0.00    +0.000 N 
ATOM      9  C   UNL     1       0.837  15.204  18.985  0.00  0.00    +0.000 A 
ATOM     10  C   UNL     1       1.967  15.888  18.603  0.00  0.00    +0.000 A 
ATOM     11  C   UNL     1       3.033  15.112  18.238  0.00  0.00    +0.000 A 
ATOM     12  N   UNL     1       2.965  13.776  18.154  0.00  0.00    +0.000 NA
ATOM     13  C   UNL     1       1.798  13.198  18.486  0.00  0.00    +0.000 A 
ATOM     14  N   UNL     1       1.731  11.849  18.228  0.00  0.00    +0.000 N 
ATOM     15  N   UNL     1       0.758  13.870  18.962  0.00  0.00    +0.000 NA
ATOM     16  H   UNL     1       2.682  11.498  18.195  0.00  0.00    +0.000 HD
BRANCH   3  18
ATOM     17  C   UNL     1      -0.504  16.093  23.032  0.00  0.00    +0.000 C 
ATOM     18  C   UNL     1      -0.227  15.115  21.881  0.00  0.00    +0.000 C 
ATOM     19  C   UNL     1      -0.435  13.682  22.374  0.00  0.00    +0.000 C 
ENDBRANCH   3  18
ENDBRANCH   1  14
BRANCH   1  20
ATOM     20  C   UNL     1       1.250   9.630  18.936  0.00  0.00    +0.000 A 
ATOM     21  C   UNL     1       1.250   8.891  20.126  0.00  0.00    +0.000 A 
ATOM     22  C   UNL     1       1.889   7.658  20.194  0.00  0.00    +0.000 A 
ATOM     23  C   UNL     1       2.547   7.101  19.080  0.00  0.00    +0.000 A 
ATOM     24  C   UNL     1       2.485   7.803  17.873  0.00  0.00    +0.000 A 
ATOM     25  C   UNL     1       1.856   9.063  17.805  0.00  0.00    +0.000 A 
BRANCH  23  26
ATOM     26  C   UNL     1       3.329   5.837  19.384  0.00  0.00    +0.000 C 
BRANCH  26  27
ATOM     27  N   UNL     1       4.088   5.102  18.354  0.00  0.00    +0.000 NA
ATOM     28  C   UNL     1       5.003   4.069  18.857  0.00  0.00    +0.000 C 
ATOM     29  C   UNL     1       4.180   2.829  19.206  0.00  0.00    +0.000 C 
ATOM     30  C   UNL     1       3.633   2.772  20.636  0.00  0.00    +0.000 C 
ATOM     31  N   UNL     1       2.204   2.942  20.512  0.00  0.00    +0.000 NA
ATOM     32  C   UNL     1       1.304   2.617  21.583  0.00  0.00    +0.000 C 
ATOM     33  C   UNL     1       1.730   2.820  19.155  0.00  0.00    +0.000 C 
ATOM     34  C   UNL     1       2.969   2.928  18.272  0.00  0.00    +0.000 C 
ATOM     35  C   UNL     1       3.134   4.282  17.556  0.00  0.00    +0.000 C 
ENDBRANCH  26  27
ENDBRANCH  23  26
ENDBRANCH   1  20
TORSDOF 5
ENDMDL
MODEL 9
REMARK VINA RESULT:      -7.9      1.773      2.438
REMARK  Name = 
REMARK  9 active torsions:
REMARK  status: ('A' for Active; 'I' for Inactive)
REMARK    1  A    between atoms: C_1  and  C_2
REMARK    2  A    between atoms: C_2  and  C_3
REMARK    3  A    between atoms: C_2  and  C_4
REMARK    4  A    between atoms: N_15  and  C_16
REMARK    5  A    between atoms: C_16  and  C_17
REMARK    6  A    between atoms: C_16  and  C_18
REMARK    7  A    between atoms: C_21  and  C_22
REMARK    8  A    between atoms: C_22  and  N_23
REMARK    9  A    between atoms: N_27  and  C_28
REMARK                            x       y       z     vdW  Elec       q    Type
REMARK                         _______ _______ _______ _____ _____    ______ ____
ROOT
ATOM      1  C   UNL     1      -0.893  10.706  18.638  0.00  0.00    +0.000 C 
ATOM      2  C   UNL     1      -1.884  10.187  17.596  0.00  0.00    +0.000 C 
ENDROOT
BRANCH   1  14
ATOM      3  C   UNL     1      -3.272  13.331  22.142  0.00  0.00    +0.000 C 
ATOM      4  C   UNL     1      -4.448  13.970  22.867  0.00  0.00    +0.000 C 
ATOM      5  O   UNL     1      -4.868  15.058  22.034  0.00  0.00    +0.000 OA
ATOM      6  C   UNL     1      -3.835  15.371  21.198  0.00  0.00    +0.000 C 
ATOM      7  O   UNL     1      -3.851  16.348  20.464  0.00  0.00    +0.000 OA
ATOM      8  N   UNL     1      -2.843  14.416  21.312  0.00  0.00    +0.000 N 
ATOM      9  C   UNL     1      -1.776  14.326  20.415  0.00  0.00    +0.000 A 
ATOM     10  C   UNL     1      -0.937  15.404  20.262  0.00  0.00    +0.000 A 
ATOM     11  C   UNL     1       0.172  15.185  19.491  0.00  0.00    +0.000 A 
ATOM     12  N   UNL     1       0.388  14.035  18.837  0.00  0.00    +0.000 NA
ATOM     13  C   UNL     1      -0.521  13.058  18.995  0.00  0.00    +0.000 A 
ATOM     14  N   UNL     1      -0.339  11.965  18.181  0.00  0.00    +0.000 N 
ATOM     15  N   UNL     1      -1.558  13.150  19.818  0.00  0.00    +0.000 NA
ATOM     16  H   UNL     1       0.637  11.952  17.903  0.00  0.00    +0.000 HD
BRANCH   3  18
ATOM     17  C   UNL     1      -1.414  11.574  22.486  0.00  0.00    +0.000 C 
ATOM     18  C   UNL     1      -2.145  12.793  23.068  0.00  0.00    +0.000 C 
ATOM     19  C   UNL     1      -1.122  13.870  23.433  0.00  0.00    +0.000 C 
ENDBRANCH   3  18
ENDBRANCH   1  14
BRANCH   1  20
ATOM     20  C   UNL     1       0.291   9.811  18.965  0.00  0.00    +0.000 A 
ATOM     21  C   UNL     1       1.063   9.351  17.891  0.00  0.00    +0.000 A 
ATOM     22  C   UNL     1       1.997   8.336  18.072  0.00  0.00    +0.000 A 
ATOM     23  C   UNL     1       2.210   7.741  19.331  0.00  0.00    +0.000 A 
ATOM     24  C   UNL     1       1.493   8.248  20.417  0.00  0.00    +0.000 A 
ATOM     25  C   UNL     1       0.531   9.263  20.234  0.00  0.00    +0.000 A 
BRANCH  23  26
ATOM     26  C   UNL     1       3.138   6.541  19.306  0.00  0.00    +0.000 C 
BRANCH  26  27
ATOM     27  N   UNL     1       2.650   5.160  19.132  0.00  0.00    +0.000 NA
ATOM     28  C   UNL     1       2.558   4.690  17.743  0.00  0.00    +0.000 C 
ATOM     29  C   UNL     1       3.962   4.306  17.274  0.00  0.00    +0.000 C 
ATOM     30  C   UNL     1       4.784   5.433  16.638  0.00  0.00    +0.000 C 
ATOM     31  N   UNL     1       5.837   5.725  17.582  0.00  0.00    +0.000 NA
ATOM     32  C   UNL     1       7.000   6.481  17.212  0.00  0.00    +0.000 C 
ATOM     33  C   UNL     1       5.962   4.735  18.622  0.00  0.00    +0.000 C 
ATOM     34  C   UNL     1       4.679   3.912  18.569  0.00  0.00    +0.000 C 
ATOM     35  C   UNL     1       3.668   4.224  19.688  0.00  0.00    +0.000 C 
ENDBRANCH  26  27
ENDBRANCH  23  26
ENDBRANCH   1  20
TORSDOF 5
ENDMDL
