MODEL 1
REMARK VINA RESULT:      -7.9      0.000      0.000
REMARK  Name = 
REMARK  8 active torsions:
REMARK  status: ('A' for Active; 'I' for Inactive)
REMARK    1  A    between atoms: C_2  and  O_3
REMARK    2  A    between atoms: C_2  and  C_4
REMARK    3  A    between atoms: C_4  and  O_5
REMARK    4  A    between atoms: O_5  and  C_6
REMARK    5  A    between atoms: C_6  and  C_7
REMARK    6  A    between atoms: N_12  and  C_13
REMARK    7  A    between atoms: C_13  and  C_14
REMARK    8  A    between atoms: C_13  and  C_20
REMARK                            x       y       z     vdW  Elec       q    Type
REMARK                         _______ _______ _______ _____ _____    ______ ____
ROOT
ATOM      1  C   UNL     1       7.024   5.876  16.681  0.00  0.00    +0.000 C 
ATOM      2  O   UNL     1       7.755   6.859  16.549  0.00  0.00    +0.000 OA
ATOM      3  N   UNL     1       5.800   5.941  17.333  0.00  0.00    +0.000 N 
ATOM      4  C   UNL     1       5.290   7.240  17.767  0.00  0.00    +0.000 C 
ATOM      5  C   UNL     1       3.793   7.387  17.416  0.00  0.00    +0.000 C 
ATOM      6  N   UNL     1       2.922   6.271  17.898  0.00  0.00    +0.000 NA
ATOM      7  C   UNL     1       3.499   5.011  17.377  0.00  0.00    +0.000 C 
ATOM      8  C   UNL     1       4.981   4.790  17.735  0.00  0.00    +0.000 C 
ENDROOT
BRANCH   1   9
ATOM      9  C   UNL     1       7.447   4.524  16.101  0.00  0.00    +0.000 C 
BRANCH   9  10
ATOM     10  O   UNL     1       7.542   4.597  14.677  0.00  0.00    +0.000 OA
BRANCH  10  11
ATOM     11  C   UNL     1       6.307   4.223  14.054  0.00  0.00    +0.000 C 
BRANCH  11  13
ATOM     12  O   UNL     1       7.249   4.425  11.827  0.00  0.00    +0.000 OA
ATOM     13  C   UNL     1       6.604   3.771  12.634  0.00  0.00    +0.000 C 
BRANCH  13  14
ATOM     14  O   UNL     1       6.094   2.545  12.362  0.00  0.00    +0.000 OA
ATOM     15  H   UNL     1       6.598   2.169  11.603  0.00  0.00    +0.000 HD
ENDBRANCH  13  14
ENDBRANCH  11  13
ENDBRANCH  10  11
ENDBRANCH   9  10
ENDBRANCH   1   9
BRANCH   6  16
ATOM     16  C   UNL     1       2.772   6.294  19.386  0.00  0.00    +0.000 C 
BRANCH  16  17
ATOM     17  C   UNL     1       1.962   7.526  19.827  0.00  0.00    +0.000 A 
ATOM     18  C   UNL     1       1.350   7.586  21.091  0.00  0.00    +0.000 A 
ATOM     19  C   UNL     1       0.505   8.642  21.433  0.00  0.00    +0.000 A 
ATOM     20  C   UNL     1       0.239   9.646  20.508  0.00  0.00    +0.000 A 
ATOM     21  C   UNL     1       0.837   9.608  19.250  0.00  0.00    +0.000 A 
ATOM     22  C   UNL     1       1.702   8.563  18.914  0.00  0.00    +0.000 A 
ENDBRANCH  16  17
BRANCH  16  23
ATOM     23  C   UNL     1       2.224   4.994  19.998  0.00  0.00    +0.000 A 
ATOM     24  C   UNL     1       2.807   4.472  21.170  0.00  0.00    +0.000 A 
ATOM     25  C   UNL     1       2.302   3.316  21.773  0.00  0.00    +0.000 A 
ATOM     26  C   UNL     1       1.198   2.667  21.227  0.00  0.00    +0.000 A 
ATOM     27  C   UNL     1       0.620   3.155  20.059  0.00  0.00    +0.000 A 
ATOM     28  C   UNL     1       1.142   4.294  19.440  0.00  0.00    +0.000 A 
ENDBRANCH  16  23
ENDBRANCH   6  16
TORSDOF 8
ENDMDL
MODEL 2
REMARK VINA RESULT:      -7.9      1.357      4.003
REMARK  Name = 
REMARK  8 active torsions:
REMARK  status: ('A' for Active; 'I' for Inactive)
REMARK    1  A    between atoms: C_2  and  O_3
REMARK    2  A    between atoms: C_2  and  C_4
REMARK    3  A    between atoms: C_4  and  O_5
REMARK    4  A    between atoms: O_5  and  C_6
REMARK    5  A    between atoms: C_6  and  C_7
REMARK    6  A    between atoms: N_12  and  C_13
REMARK    7  A    between atoms: C_13  and  C_14
REMARK    8  A    between atoms: C_13  and  C_20
REMARK                            x       y       z     vdW  Elec       q    Type
REMARK                         _______ _______ _______ _____ _____    ______ ____
ROOT
ATOM      1  C   UNL     1       6.045   4.217  15.245  0.00  0.00    +0.000 C 
ATOM      2  O   UNL     1       6.204   2.999  15.155  0.00  0.00    +0.000 OA
ATOM      3  N   UNL     1       5.235   4.792  16.215  0.00  0.00    +0.000 N 
ATOM      4  C   UNL     1       4.649   3.943  17.251  0.00  0.00    +0.000 C 
ATOM      5  C   UNL     1       4.789   4.600  18.642  0.00  0.00    +0.000 C 
ATOM      6  N   UNL     1       4.275   6.001  18.730  0.00  0.00    +0.000 NA
ATOM      7  C   UNL     1       4.953   6.782  17.671  0.00  0.00    +0.000 C 
ATOM      8  C   UNL     1       4.809   6.197  16.254  0.00  0.00    +0.000 C 
ENDROOT
BRANCH   1   9
ATOM      9  C   UNL     1       6.767   5.158  14.277  0.00  0.00    +0.000 C 
BRANCH   9  10
ATOM     10  O   UNL     1       7.567   4.413  13.358  0.00  0.00    +0.000 OA
BRANCH  10  11
ATOM     11  C   UNL     1       7.012   4.450  12.037  0.00  0.00    +0.000 C 
BRANCH  11  13
ATOM     12  O   UNL     1       4.862   3.340  11.852  0.00  0.00    +0.000 OA
ATOM     13  C   UNL     1       6.082   3.259  11.874  0.00  0.00    +0.000 C 
BRANCH  13  14
ATOM     14  O   UNL     1       6.755   2.091  11.729  0.00  0.00    +0.000 OA
ATOM     15  H   UNL     1       6.735   1.622  12.595  0.00  0.00    +0.000 HD
ENDBRANCH  13  14
ENDBRANCH  11  13
ENDBRANCH  10  11
ENDBRANCH   9  10
ENDBRANCH   1   9
BRANCH   6  16
ATOM     16  C   UNL     1       2.782   6.045  18.648  0.00  0.00    +0.000 C 
BRANCH  16  17
ATOM     17  C   UNL     1       2.162   4.933  19.512  0.00  0.00    +0.000 A 
ATOM     18  C   UNL     1       2.538   4.752  20.855  0.00  0.00    +0.000 A 
ATOM     19  C   UNL     1       2.078   3.661  21.591  0.00  0.00    +0.000 A 
ATOM     20  C   UNL     1       1.249   2.718  20.991  0.00  0.00    +0.000 A 
ATOM     21  C   UNL     1       0.860   2.879  19.663  0.00  0.00    +0.000 A 
ATOM     22  C   UNL     1       1.302   3.984  18.930  0.00  0.00    +0.000 A 
ENDBRANCH  16  17
BRANCH  16  23
ATOM     23  C   UNL     1       2.161   7.420  18.945  0.00  0.00    +0.000 A 
ATOM     24  C   UNL     1       1.980   8.347  17.900  0.00  0.00    +0.000 A 
ATOM     25  C   UNL     1       1.378   9.588  18.133  0.00  0.00    +0.000 A 
ATOM     26  C   UNL     1       0.933   9.921  19.409  0.00  0.00    +0.000 A 
ATOM     27  C   UNL     1       1.121   9.028  20.460  0.00  0.00    +0.000 A 
ATOM     28  C   UNL     1       1.747   7.800  20.233  0.00  0.00    +0.000 A 
ENDBRANCH  16  23
ENDBRANCH   6  16
TORSDOF 8
ENDMDL
MODEL 3
REMARK VINA RESULT:      -7.7      0.516      1.402
REMARK  Name = 
REMARK  8 active torsions:
REMARK  status: ('A' for Active; 'I' for Inactive)
REMARK    1  A    between atoms: C_2  and  O_3
REMARK    2  A    between atoms: C_2  and  C_4
REMARK    3  A    between atoms: C_4  and  O_5
REMARK    4  A    between atoms: O_5  and  C_6
REMARK    5  A    between atoms: C_6  and  C_7
REMARK    6  A    between atoms: N_12  and  C_13
REMARK    7  A    between atoms: C_13  and  C_14
REMARK    8  A    between atoms: C_13  and  C_20
REMARK                            x       y       z     vdW  Elec       q    Type
REMARK                         _______ _______ _______ _____ _____    ______ ____
ROOT
ATOM      1  C   UNL     1       6.788   5.640  16.505  0.00  0.00    +0.000 C 
ATOM      2  O   UNL     1       7.555   6.585  16.317  0.00  0.00    +0.000 OA
ATOM      3  N   UNL     1       5.606   5.771  17.221  0.00  0.00    +0.000 N 
ATOM      4  C   UNL     1       5.182   7.099  17.661  0.00  0.00    +0.000 C 
ATOM      5  C   UNL     1       3.676   7.311  17.390  0.00  0.00    +0.000 C 
ATOM      6  N   UNL     1       2.783   6.245  17.937  0.00  0.00    +0.000 NA
ATOM      7  C   UNL     1       3.271   4.952  17.405  0.00  0.00    +0.000 C 
ATOM      8  C   UNL     1       4.758   4.666  17.685  0.00  0.00    +0.000 C 
ENDROOT
BRANCH   1   9
ATOM      9  C   UNL     1       7.115   4.262  15.924  0.00  0.00    +0.000 C 
BRANCH   9  10
ATOM     10  O   UNL     1       7.076   4.296  14.497  0.00  0.00    +0.000 OA
BRANCH  10  11
ATOM     11  C   UNL     1       5.772   3.966  14.004  0.00  0.00    +0.000 C 
BRANCH  11  13
ATOM     12  O   UNL     1       6.964   3.400  11.968  0.00  0.00    +0.000 OA
ATOM     13  C   UNL     1       5.898   3.561  12.545  0.00  0.00    +0.000 C 
BRANCH  13  14
ATOM     14  O   UNL     1       4.693   3.371  11.953  0.00  0.00    +0.000 OA
ATOM     15  H   UNL     1       4.137   2.834  12.564  0.00  0.00    +0.000 HD
ENDBRANCH  13  14
ENDBRANCH  11  13
ENDBRANCH  10  11
ENDBRANCH   9  10
ENDBRANCH   1   9
BRANCH   6  16
ATOM     16  C   UNL     1       2.716   6.295  19.430  0.00  0.00    +0.000 C 
BRANCH  16  17
ATOM     17  C   UNL     1       1.907   7.519  19.892  0.00  0.00    +0.000 A 
ATOM     18  C   UNL     1       1.616   8.579  19.015  0.00  0.00    +0.000 A 
ATOM     19  C   UNL     1       1.003   9.746  19.472  0.00  0.00    +0.000 A 
ATOM     20  C   UNL     1       0.691   9.883  20.821  0.00  0.00    +0.000 A 
ATOM     21  C   UNL     1       0.968   8.844  21.708  0.00  0.00    +0.000 A 
ATOM     22  C   UNL     1       1.560   7.666  21.247  0.00  0.00    +0.000 A 
ENDBRANCH  16  17
BRANCH  16  23
ATOM     23  C   UNL     1       2.230   4.997  20.097  0.00  0.00    +0.000 A 
ATOM     24  C   UNL     1       1.026   4.401  19.675  0.00  0.00    +0.000 A 
ATOM     25  C   UNL     1       0.581   3.198  20.232  0.00  0.00    +0.000 A 
ATOM     26  C   UNL     1       1.337   2.561  21.212  0.00  0.00    +0.000 A 
ATOM     27  C   UNL     1       2.520   3.143  21.658  0.00  0.00    +0.000 A 
ATOM     28  C   UNL     1       2.950   4.358  21.120  0.00  0.00    +0.000 A 
ENDBRANCH  16  23
ENDBRANCH   6  16
TORSDOF 8
ENDMDL
MODEL 4
REMARK VINA RESULT:      -7.6      0.402      1.135
REMARK  Name = 
REMARK  8 active torsions:
REMARK  status: ('A' for Active; 'I' for Inactive)
REMARK    1  A    between atoms: C_2  and  O_3
REMARK    2  A    between atoms: C_2  and  C_4
REMARK    3  A    between atoms: C_4  and  O_5
REMARK    4  A    between atoms: O_5  and  C_6
REMARK    5  A    between atoms: C_6  and  C_7
REMARK    6  A    between atoms: N_12  and  C_13
REMARK    7  A    between atoms: C_13  and  C_14
REMARK    8  A    between atoms: C_13  and  C_20
REMARK                            x       y       z     vdW  Elec       q    Type
REMARK                         _______ _______ _______ _____ _____    ______ ____
ROOT
ATOM      1  C   UNL     1       6.854   5.783  16.539  0.00  0.00    +0.000 C 
ATOM      2  O   UNL     1       7.594   6.749  16.353  0.00  0.00    +0.000 OA
ATOM      3  N   UNL     1       5.664   5.881  17.247  0.00  0.00    +0.000 N 
ATOM      4  C   UNL     1       5.198   7.197  17.680  0.00  0.00    +0.000 C 
ATOM      5  C   UNL     1       3.688   7.364  17.399  0.00  0.00    +0.000 C 
ATOM      6  N   UNL     1       2.823   6.273  17.943  0.00  0.00    +0.000 NA
ATOM      7  C   UNL     1       3.353   4.993  17.419  0.00  0.00    +0.000 C 
ATOM      8  C   UNL     1       4.846   4.753  17.709  0.00  0.00    +0.000 C 
ENDROOT
BRANCH   1   9
ATOM      9  C   UNL     1       7.225   4.413  15.965  0.00  0.00    +0.000 C 
BRANCH   9  10
ATOM     10  O   UNL     1       7.091   4.412  14.543  0.00  0.00    +0.000 OA
BRANCH  10  11
ATOM     11  C   UNL     1       6.043   3.530  14.121  0.00  0.00    +0.000 C 
BRANCH  11  13
ATOM     12  O   UNL     1       4.892   3.383  11.989  0.00  0.00    +0.000 OA
ATOM     13  C   UNL     1       5.920   3.619  12.609  0.00  0.00    +0.000 C 
BRANCH  13  14
ATOM     14  O   UNL     1       7.074   4.015  12.016  0.00  0.00    +0.000 OA
ATOM     15  H   UNL     1       7.798   3.931  12.679  0.00  0.00    +0.000 HD
ENDBRANCH  13  14
ENDBRANCH  11  13
ENDBRANCH  10  11
ENDBRANCH   9  10
ENDBRANCH   1   9
BRANCH   6  16
ATOM     16  C   UNL     1       2.745   6.325  19.435  0.00  0.00    +0.000 C 
BRANCH  16  17
ATOM     17  C   UNL     1       1.966   7.571  19.890  0.00  0.00    +0.000 A 
ATOM     18  C   UNL     1       1.440   7.672  21.191  0.00  0.00    +0.000 A 
ATOM     19  C   UNL     1       0.618   8.739  21.556  0.00  0.00    +0.000 A 
ATOM     20  C   UNL     1       0.289   9.713  20.619  0.00  0.00    +0.000 A 
ATOM     21  C   UNL     1       0.801   9.635  19.325  0.00  0.00    +0.000 A 
ATOM     22  C   UNL     1       1.643   8.579  18.965  0.00  0.00    +0.000 A 
ENDBRANCH  16  17
BRANCH  16  23
ATOM     23  C   UNL     1       2.220   5.041  20.099  0.00  0.00    +0.000 A 
ATOM     24  C   UNL     1       1.056   4.422  19.601  0.00  0.00    +0.000 A 
ATOM     25  C   UNL     1       0.580   3.230  20.156  0.00  0.00    +0.000 A 
ATOM     26  C   UNL     1       1.262   2.627  21.208  0.00  0.00    +0.000 A 
ATOM     27  C   UNL     1       2.402   3.233  21.728  0.00  0.00    +0.000 A 
ATOM     28  C   UNL     1       2.863   4.438  21.192  0.00  0.00    +0.000 A 
ENDBRANCH  16  23
ENDBRANCH   6  16
TORSDOF 8
ENDMDL
MODEL 5
REMARK VINA RESULT:      -7.4      1.362      3.930
REMARK  Name = 
REMARK  8 active torsions:
REMARK  status: ('A' for Active; 'I' for Inactive)
REMARK    1  A    between atoms: C_2  and  O_3
REMARK    2  A    between atoms: C_2  and  C_4
REMARK    3  A    between atoms: C_4  and  O_5
REMARK    4  A    between atoms: O_5  and  C_6
REMARK    5  A    between atoms: C_6  and  C_7
REMARK    6  A    between atoms: N_12  and  C_13
REMARK    7  A    between atoms: C_13  and  C_14
REMARK    8  A    between atoms: C_13  and  C_20
REMARK                            x       y       z     vdW  Elec       q    Type
REMARK                         _______ _______ _______ _____ _____    ______ ____
ROOT
ATOM      1  C   UNL     1       6.356   4.414  15.141  0.00  0.00    +0.000 C 
ATOM      2  O   UNL     1       6.588   3.209  15.043  0.00  0.00    +0.000 OA
ATOM      3  N   UNL     1       5.491   4.932  16.095  0.00  0.00    +0.000 N 
ATOM      4  C   UNL     1       4.929   4.040  17.108  0.00  0.00    +0.000 C 
ATOM      5  C   UNL     1       4.996   4.689  18.508  0.00  0.00    +0.000 C 
ATOM      6  N   UNL     1       4.400   6.057  18.596  0.00  0.00    +0.000 NA
ATOM      7  C   UNL     1       5.059   6.887  17.561  0.00  0.00    +0.000 C 
ATOM      8  C   UNL     1       4.984   6.309  16.135  0.00  0.00    +0.000 C 
ENDROOT
BRANCH   1   9
ATOM      9  C   UNL     1       7.048   5.405  14.201  0.00  0.00    +0.000 C 
BRANCH   9  10
ATOM     10  O   UNL     1       7.844   4.712  13.239  0.00  0.00    +0.000 OA
BRANCH  10  11
ATOM     11  C   UNL     1       7.189   4.655  11.965  0.00  0.00    +0.000 C 
BRANCH  11  13
ATOM     12  O   UNL     1       7.439   2.339  11.286  0.00  0.00    +0.000 OA
ATOM     13  C   UNL     1       6.725   3.228  11.728  0.00  0.00    +0.000 C 
BRANCH  13  14
ATOM     14  O   UNL     1       5.431   3.036  12.084  0.00  0.00    +0.000 OA
ATOM     15  H   UNL     1       5.370   3.128  13.064  0.00  0.00    +0.000 HD
ENDBRANCH  13  14
ENDBRANCH  11  13
ENDBRANCH  10  11
ENDBRANCH   9  10
ENDBRANCH   1   9
BRANCH   6  16
ATOM     16  C   UNL     1       2.910   6.017  18.476  0.00  0.00    +0.000 C 
BRANCH  16  17
ATOM     17  C   UNL     1       2.336   4.844  19.290  0.00  0.00    +0.000 A 
ATOM     18  C   UNL     1       1.426   3.933  18.722  0.00  0.00    +0.000 A 
ATOM     19  C   UNL     1       0.804   2.956  19.499  0.00  0.00    +0.000 A 
ATOM     20  C   UNL     1       1.064   2.886  20.864  0.00  0.00    +0.000 A 
ATOM     21  C   UNL     1       1.963   3.776  21.447  0.00  0.00    +0.000 A 
ATOM     22  C   UNL     1       2.605   4.741  20.666  0.00  0.00    +0.000 A 
ENDBRANCH  16  17
BRANCH  16  23
ATOM     23  C   UNL     1       2.202   7.343  18.798  0.00  0.00    +0.000 A 
ATOM     24  C   UNL     1       1.831   7.635  20.125  0.00  0.00    +0.000 A 
ATOM     25  C   UNL     1       1.226   8.852  20.454  0.00  0.00    +0.000 A 
ATOM     26  C   UNL     1       0.991   9.805  19.468  0.00  0.00    +0.000 A 
ATOM     27  C   UNL     1       1.331   9.529  18.146  0.00  0.00    +0.000 A 
ATOM     28  C   UNL     1       1.910   8.302  17.813  0.00  0.00    +0.000 A 
ENDBRANCH  16  23
ENDBRANCH   6  16
TORSDOF 8
ENDMDL
MODEL 6
REMARK VINA RESULT:      -7.3      1.392      4.018
REMARK  Name = 
REMARK  8 active torsions:
REMARK  status: ('A' for Active; 'I' for Inactive)
REMARK    1  A    between atoms: C_2  and  O_3
REMARK    2  A    between atoms: C_2  and  C_4
REMARK    3  A    between atoms: C_4  and  O_5
REMARK    4  A    between atoms: O_5  and  C_6
REMARK    5  A    between atoms: C_6  and  C_7
REMARK    6  A    between atoms: N_12  and  C_13
REMARK    7  A    between atoms: C_13  and  C_14
REMARK    8  A    between atoms: C_13  and  C_20
REMARK                            x       y       z     vdW  Elec       q    Type
REMARK                         _______ _______ _______ _____ _____    ______ ____
ROOT
ATOM      1  C   UNL     1       6.409   4.221  15.338  0.00  0.00    +0.000 C 
ATOM      2  O   UNL     1       6.607   3.006  15.311  0.00  0.00    +0.000 OA
ATOM      3  N   UNL     1       5.539   4.815  16.242  0.00  0.00    +0.000 N 
ATOM      4  C   UNL     1       4.929   3.996  17.288  0.00  0.00    +0.000 C 
ATOM      5  C   UNL     1       4.985   4.719  18.652  0.00  0.00    +0.000 C 
ATOM      6  N   UNL     1       4.428   6.106  18.652  0.00  0.00    +0.000 NA
ATOM      7  C   UNL     1       5.133   6.859  17.589  0.00  0.00    +0.000 C 
ATOM      8  C   UNL     1       5.073   6.206  16.196  0.00  0.00    +0.000 C 
ENDROOT
BRANCH   1   9
ATOM      9  C   UNL     1       7.150   5.139  14.362  0.00  0.00    +0.000 C 
BRANCH   9  10
ATOM     10  O   UNL     1       6.414   5.274  13.145  0.00  0.00    +0.000 OA
BRANCH  10  11
ATOM     11  C   UNL     1       6.835   4.308  12.173  0.00  0.00    +0.000 C 
BRANCH  11  13
ATOM     12  O   UNL     1       4.580   3.576  11.656  0.00  0.00    +0.000 OA
ATOM     13  C   UNL     1       5.720   3.291  11.994  0.00  0.00    +0.000 C 
BRANCH  13  14
ATOM     14  O   UNL     1       6.133   2.020  12.224  0.00  0.00    +0.000 OA
ATOM     15  H   UNL     1       6.993   2.065  12.704  0.00  0.00    +0.000 HD
ENDBRANCH  13  14
ENDBRANCH  11  13
ENDBRANCH  10  11
ENDBRANCH   9  10
ENDBRANCH   1   9
BRANCH   6  16
ATOM     16  C   UNL     1       2.940   6.102  18.499  0.00  0.00    +0.000 C 
BRANCH  16  17
ATOM     17  C   UNL     1       2.326   4.902  19.241  0.00  0.00    +0.000 A 
ATOM     18  C   UNL     1       1.462   4.002  18.591  0.00  0.00    +0.000 A 
ATOM     19  C   UNL     1       0.801   2.998  19.298  0.00  0.00    +0.000 A 
ATOM     20  C   UNL     1       0.975   2.889  20.674  0.00  0.00    +0.000 A 
ATOM     21  C   UNL     1       1.829   3.768  21.339  0.00  0.00    +0.000 A 
ATOM     22  C   UNL     1       2.510   4.760  20.628  0.00  0.00    +0.000 A 
ENDBRANCH  16  17
BRANCH  16  23
ATOM     23  C   UNL     1       2.251   7.425  18.873  0.00  0.00    +0.000 A 
ATOM     24  C   UNL     1       1.969   8.374  17.872  0.00  0.00    +0.000 A 
ATOM     25  C   UNL     1       1.303   9.567  18.174  0.00  0.00    +0.000 A 
ATOM     26  C   UNL     1       0.895   9.827  19.479  0.00  0.00    +0.000 A 
ATOM     27  C   UNL     1       1.181   8.911  20.487  0.00  0.00    +0.000 A 
ATOM     28  C   UNL     1       1.871   7.733  20.190  0.00  0.00    +0.000 A 
ENDBRANCH  16  23
ENDBRANCH   6  16
TORSDOF 8
ENDMDL
MODEL 7
REMARK VINA RESULT:      -7.1      4.081      7.729
REMARK  Name = 
REMARK  8 active torsions:
REMARK  status: ('A' for Active; 'I' for Inactive)
REMARK    1  A    between atoms: C_2  and  O_3
REMARK    2  A    between atoms: C_2  and  C_4
REMARK    3  A    between atoms: C_4  and  O_5
REMARK    4  A    between atoms: O_5  and  C_6
REMARK    5  A    between atoms: C_6  and  C_7
REMARK    6  A    between atoms: N_12  and  C_13
REMARK    7  A    between atoms: C_13  and  C_14
REMARK    8  A    between atoms: C_13  and  C_20
REMARK                            x       y       z     vdW  Elec       q    Type
REMARK                         _______ _______ _______ _____ _____    ______ ____
ROOT
ATOM      1  C   UNL     1       1.431   8.768  19.776  0.00  0.00    +0.000 C 
ATOM      2  O   UNL     1       1.108   9.810  19.204  0.00  0.00    +0.000 OA
ATOM      3  N   UNL     1       2.193   7.786  19.159  0.00  0.00    +0.000 N 
ATOM      4  C   UNL     1       2.747   8.041  17.831  0.00  0.00    +0.000 C 
ATOM      5  C   UNL     1       4.223   7.590  17.757  0.00  0.00    +0.000 C 
ATOM      6  N   UNL     1       4.472   6.181  18.189  0.00  0.00    +0.000 NA
ATOM      7  C   UNL     1       3.909   6.037  19.552  0.00  0.00    +0.000 C 
ATOM      8  C   UNL     1       2.426   6.431  19.676  0.00  0.00    +0.000 C 
ENDROOT
BRANCH   1   9
ATOM      9  C   UNL     1       1.005   8.527  21.226  0.00  0.00    +0.000 C 
BRANCH   9  10
ATOM     10  O   UNL     1      -0.365   8.889  21.414  0.00  0.00    +0.000 OA
BRANCH  10  11
ATOM     11  C   UNL     1      -0.506   9.874  22.445  0.00  0.00    +0.000 C 
BRANCH  11  13
ATOM     12  O   UNL     1       0.016  12.236  22.257  0.00  0.00    +0.000 OA
ATOM     13  C   UNL     1      -0.536  11.247  21.795  0.00  0.00    +0.000 C 
BRANCH  13  14
ATOM     14  O   UNL     1      -1.225  11.255  20.628  0.00  0.00    +0.000 OA
ATOM     15  H   UNL     1      -1.903  11.968  20.681  0.00  0.00    +0.000 HD
ENDBRANCH  13  14
ENDBRANCH  11  13
ENDBRANCH  10  11
ENDBRANCH   9  10
ENDBRANCH   1   9
BRANCH   6  16
ATOM     16  C   UNL     1       3.923   5.198  17.205  0.00  0.00    +0.000 C 
BRANCH  16  17
ATOM     17  C   UNL     1       4.999   4.807  16.177  0.00  0.00    +0.000 A 
ATOM     18  C   UNL     1       6.359   5.090  16.396  0.00  0.00    +0.000 A 
ATOM     19  C   UNL     1       7.312   4.859  15.404  0.00  0.00    +0.000 A 
ATOM     20  C   UNL     1       6.918   4.361  14.166  0.00  0.00    +0.000 A 
ATOM     21  C   UNL     1       5.576   4.070  13.928  0.00  0.00    +0.000 A 
ATOM     22  C   UNL     1       4.624   4.279  14.929  0.00  0.00    +0.000 A 
ENDBRANCH  16  17
BRANCH  16  23
ATOM     23  C   UNL     1       3.249   3.965  17.832  0.00  0.00    +0.000 A 
ATOM     24  C   UNL     1       1.845   3.862  17.837  0.00  0.00    +0.000 A 
ATOM     25  C   UNL     1       1.206   2.733  18.361  0.00  0.00    +0.000 A 
ATOM     26  C   UNL     1       1.958   1.681  18.877  0.00  0.00    +0.000 A 
ATOM     27  C   UNL     1       3.346   1.773  18.900  0.00  0.00    +0.000 A 
ATOM     28  C   UNL     1       3.983   2.912  18.403  0.00  0.00    +0.000 A 
ENDBRANCH  16  23
ENDBRANCH   6  16
TORSDOF 8
ENDMDL
MODEL 8
REMARK VINA RESULT:      -7.0      4.228      7.962
REMARK  Name = 
REMARK  8 active torsions:
REMARK  status: ('A' for Active; 'I' for Inactive)
REMARK    1  A    between atoms: C_2  and  O_3
REMARK    2  A    between atoms: C_2  and  C_4
REMARK    3  A    between atoms: C_4  and  O_5
REMARK    4  A    between atoms: O_5  and  C_6
REMARK    5  A    between atoms: C_6  and  C_7
REMARK    6  A    between atoms: N_12  and  C_13
REMARK    7  A    between atoms: C_13  and  C_14
REMARK    8  A    between atoms: C_13  and  C_20
REMARK                            x       y       z     vdW  Elec       q    Type
REMARK                         _______ _______ _______ _____ _____    ______ ____
ROOT
ATOM      1  C   UNL     1       1.424   8.637  19.907  0.00  0.00    +0.000 C 
ATOM      2  O   UNL     1       1.034   9.692  19.406  0.00  0.00    +0.000 OA
ATOM      3  N   UNL     1       2.205   7.725  19.211  0.00  0.00    +0.000 N 
ATOM      4  C   UNL     1       2.696   8.076  17.879  0.00  0.00    +0.000 C 
ATOM      5  C   UNL     1       4.186   7.698  17.728  0.00  0.00    +0.000 C 
ATOM      6  N   UNL     1       4.513   6.281  18.073  0.00  0.00    +0.000 NA
ATOM      7  C   UNL     1       4.011   6.039  19.445  0.00  0.00    +0.000 C 
ATOM      8  C   UNL     1       2.517   6.357  19.644  0.00  0.00    +0.000 C 
ENDROOT
BRANCH   1   9
ATOM      9  C   UNL     1       1.065   8.300  21.357  0.00  0.00    +0.000 C 
BRANCH   9  10
ATOM     10  O   UNL     1       0.947   9.493  22.135  0.00  0.00    +0.000 OA
BRANCH  10  11
ATOM     11  C   UNL     1      -0.334   9.571  22.773  0.00  0.00    +0.000 C 
BRANCH  11  13
ATOM     12  O   UNL     1      -1.801  11.429  23.307  0.00  0.00    +0.000 OA
ATOM     13  C   UNL     1      -0.799  11.018  22.741  0.00  0.00    +0.000 C 
BRANCH  13  14
ATOM     14  O   UNL     1       0.038  11.816  22.033  0.00  0.00    +0.000 OA
ATOM     15  H   UNL     1       0.295  11.333  21.213  0.00  0.00    +0.000 HD
ENDBRANCH  13  14
ENDBRANCH  11  13
ENDBRANCH  10  11
ENDBRANCH   9  10
ENDBRANCH   1   9
BRANCH   6  16
ATOM     16  C   UNL     1       3.971   5.327  17.057  0.00  0.00    +0.000 C 
BRANCH  16  17
ATOM     17  C   UNL     1       5.022   5.044  15.970  0.00  0.00    +0.000 A 
ATOM     18  C   UNL     1       4.675   4.412  14.762  0.00  0.00    +0.000 A 
ATOM     19  C   UNL     1       5.651   4.034  13.840  0.00  0.00    +0.000 A 
ATOM     20  C   UNL     1       6.995   4.261  14.119  0.00  0.00    +0.000 A 
ATOM     21  C   UNL     1       7.361   4.888  15.308  0.00  0.00    +0.000 A 
ATOM     22  C   UNL     1       6.383   5.288  16.223  0.00  0.00    +0.000 A 
ENDBRANCH  16  17
BRANCH  16  23
ATOM     23  C   UNL     1       3.380   4.032  17.640  0.00  0.00    +0.000 A 
ATOM     24  C   UNL     1       1.983   3.864  17.698  0.00  0.00    +0.000 A 
ATOM     25  C   UNL     1       1.418   2.680  18.182  0.00  0.00    +0.000 A 
ATOM     26  C   UNL     1       2.237   1.637  18.603  0.00  0.00    +0.000 A 
ATOM     27  C   UNL     1       3.620   1.789  18.573  0.00  0.00    +0.000 A 
ATOM     28  C   UNL     1       4.184   2.983  18.116  0.00  0.00    +0.000 A 
ENDBRANCH  16  23
ENDBRANCH   6  16
TORSDOF 8
ENDMDL
MODEL 9
REMARK VINA RESULT:      -7.0      4.155      7.809
REMARK  Name = 
REMARK  8 active torsions:
REMARK  status: ('A' for Active; 'I' for Inactive)
REMARK    1  A    between atoms: C_2  and  O_3
REMARK    2  A    between atoms: C_2  and  C_4
REMARK    3  A    between atoms: C_4  and  O_5
REMARK    4  A    between atoms: O_5  and  C_6
REMARK    5  A    between atoms: C_6  and  C_7
REMARK    6  A    between atoms: N_12  and  C_13
REMARK    7  A    between atoms: C_13  and  C_14
REMARK    8  A    between atoms: C_13  and  C_20
REMARK                            x       y       z     vdW  Elec       q    Type
REMARK                         _______ _______ _______ _____ _____    ______ ____
ROOT
ATOM      1  C   UNL     1       1.487   9.399  18.883  0.00  0.00    +0.000 C 
ATOM      2  O   UNL     1       1.566  10.408  18.182  0.00  0.00    +0.000 OA
ATOM      3  N   UNL     1       2.159   8.224  18.576  0.00  0.00    +0.000 N 
ATOM      4  C   UNL     1       3.098   8.211  17.456  0.00  0.00    +0.000 C 
ATOM      5  C   UNL     1       4.405   7.483  17.844  0.00  0.00    +0.000 C 
ATOM      6  N   UNL     1       4.216   6.114  18.413  0.00  0.00    +0.000 NA
ATOM      7  C   UNL     1       3.284   6.241  19.556  0.00  0.00    +0.000 C 
ATOM      8  C   UNL     1       1.945   6.920  19.217  0.00  0.00    +0.000 C 
ENDROOT
BRANCH   1   9
ATOM      9  C   UNL     1       0.638   9.416  20.157  0.00  0.00    +0.000 C 
BRANCH   9  10
ATOM     10  O   UNL     1       0.553  10.740  20.686  0.00  0.00    +0.000 OA
BRANCH  10  11
ATOM     11  C   UNL     1      -0.732  10.985  21.270  0.00  0.00    +0.000 C 
BRANCH  11  13
ATOM     12  O   UNL     1      -0.172  10.173  23.487  0.00  0.00    +0.000 OA
ATOM     13  C   UNL     1      -0.563  11.088  22.777  0.00  0.00    +0.000 C 
BRANCH  13  14
ATOM     14  O   UNL     1      -0.871  12.321  23.251  0.00  0.00    +0.000 OA
ATOM     15  H   UNL     1      -0.079  12.895  23.137  0.00  0.00    +0.000 HD
ENDBRANCH  13  14
ENDBRANCH  11  13
ENDBRANCH  10  11
ENDBRANCH   9  10
ENDBRANCH   1   9
BRANCH   6  16
ATOM     16  C   UNL     1       3.760   5.143  17.370  0.00  0.00    +0.000 C 
BRANCH  16  17
ATOM     17  C   UNL     1       4.927   4.762  16.442  0.00  0.00    +0.000 A 
ATOM     18  C   UNL     1       6.261   4.804  16.886  0.00  0.00    +0.000 A 
ATOM     19  C   UNL     1       7.321   4.592  16.005  0.00  0.00    +0.000 A 
ATOM     20  C   UNL     1       7.067   4.356  14.658  0.00  0.00    +0.000 A 
ATOM     21  C   UNL     1       5.753   4.307  14.196  0.00  0.00    +0.000 A 
ATOM     22  C   UNL     1       4.689   4.496  15.082  0.00  0.00    +0.000 A 
ENDBRANCH  16  17
BRANCH  16  23
ATOM     23  C   UNL     1       3.031   3.905  17.918  0.00  0.00    +0.000 A 
ATOM     24  C   UNL     1       3.775   2.811  18.401  0.00  0.00    +0.000 A 
ATOM     25  C   UNL     1       3.140   1.690  18.945  0.00  0.00    +0.000 A 
ATOM     26  C   UNL     1       1.752   1.646  19.030  0.00  0.00    +0.000 A 
ATOM     27  C   UNL     1       0.997   2.708  18.540  0.00  0.00    +0.000 A 
ATOM     28  C   UNL     1       1.630   3.815  17.971  0.00  0.00    +0.000 A 
ENDBRANCH  16  23
ENDBRANCH   6  16
TORSDOF 8
ENDMDL
