MODEL 1
REMARK VINA RESULT:      -7.5      0.000      0.000
REMARK  Name = 
REMARK  5 active torsions:
REMARK  status: ('A' for Active; 'I' for Inactive)
REMARK    1  A    between atoms: C_1  and  N_2
REMARK    2  A    between atoms: N_2  and  C_3
REMARK    3  A    between atoms: C_3  and  C_4
REMARK    4  A    between atoms: C_4  and  C_5
REMARK    5  A    between atoms: C_7  and  C_9
REMARK                            x       y       z     vdW  Elec       q    Type
REMARK                         _______ _______ _______ _____ _____    ______ ____
ROOT
ATOM      1  C   UNL     1       4.558   3.753  18.821  0.00  0.00    +0.000 A 
ATOM      2  C   UNL     1       5.635   4.610  18.853  0.00  0.00    +0.000 A 
ATOM      3  C   UNL     1       6.175   4.928  17.556  0.00  0.00    +0.000 A 
ATOM      4  C   UNL     1       7.182   5.807  17.153  0.00  0.00    +0.000 A 
ATOM      5 CL   UNL     1       7.903   6.816  18.318  0.00  0.00    +0.000 Cl
ATOM      6  N   UNL     1       7.599   5.934  15.886  0.00  0.00    +0.000 NA
ATOM      7  C   UNL     1       7.047   5.162  14.946  0.00  0.00    +0.000 A 
ATOM      8  C   UNL     1       7.508   5.265  13.641  0.00  0.00    +0.000 A 
ATOM      9  C   UNL     1       6.983   4.476  12.612  0.00  0.00    +0.000 A 
ATOM     10  C   UNL     1       5.970   3.561  12.881  0.00  0.00    +0.000 A 
ATOM     11  C   UNL     1       5.478   3.440  14.176  0.00  0.00    +0.000 A 
ATOM     12  C   UNL     1       6.016   4.241  15.209  0.00  0.00    +0.000 A 
ATOM     13  C   UNL     1       5.571   4.158  16.559  0.00  0.00    +0.000 A 
ATOM     14  S   UNL     1       4.308   3.188  17.224  0.00  0.00    +0.000 S 
ENDROOT
BRANCH   1  17
ATOM     15  C   UNL     1       1.696   3.191  21.230  0.00  0.00    +0.000 C 
ATOM     16  N   UNL     1       2.477   3.844  20.188  0.00  0.00    +0.000 N 
ATOM     17  C   UNL     1       3.700   3.216  19.875  0.00  0.00    +0.000 C 
ATOM     18  O   UNL     1       4.015   2.191  20.486  0.00  0.00    +0.000 OA
BRANCH  16  19
ATOM     19  C   UNL     1       1.813   4.925  19.443  0.00  0.00    +0.000 C 
BRANCH  19  20
ATOM     20  C   UNL     1       2.243   6.333  19.851  0.00  0.00    +0.000 C 
BRANCH  20  21
ATOM     21  C   UNL     1       2.781   7.048  18.683  0.00  0.00    +0.000 C 
ATOM     22  N   UNL     1       3.186   7.614  17.757  0.00  0.00    +0.000 NA
ENDBRANCH  20  21
ENDBRANCH  19  20
ENDBRANCH  16  19
ENDBRANCH   1  17
TORSDOF 4
ENDMDL
MODEL 2
REMARK VINA RESULT:      -7.5      2.818      6.722
REMARK  Name = 
REMARK  5 active torsions:
REMARK  status: ('A' for Active; 'I' for Inactive)
REMARK    1  A    between atoms: C_1  and  N_2
REMARK    2  A    between atoms: N_2  and  C_3
REMARK    3  A    between atoms: C_3  and  C_4
REMARK    4  A    between atoms: C_4  and  C_5
REMARK    5  A    between atoms: C_7  and  C_9
REMARK                            x       y       z     vdW  Elec       q    Type
REMARK                         _______ _______ _______ _____ _____    ______ ____
ROOT
ATOM      1  C   UNL     1       5.556   5.405  16.261  0.00  0.00    +0.000 A 
ATOM      2  C   UNL     1       4.671   6.400  16.614  0.00  0.00    +0.000 A 
ATOM      3  C   UNL     1       3.733   6.018  17.637  0.00  0.00    +0.000 A 
ATOM      4  C   UNL     1       2.756   6.740  18.326  0.00  0.00    +0.000 A 
ATOM      5 CL   UNL     1       2.635   8.416  18.056  0.00  0.00    +0.000 Cl
ATOM      6  N   UNL     1       1.919   6.198  19.221  0.00  0.00    +0.000 NA
ATOM      7  C   UNL     1       1.995   4.887  19.461  0.00  0.00    +0.000 A 
ATOM      8  C   UNL     1       1.101   4.319  20.359  0.00  0.00    +0.000 A 
ATOM      9  C   UNL     1       1.116   2.950  20.644  0.00  0.00    +0.000 A 
ATOM     10  C   UNL     1       2.045   2.119  20.028  0.00  0.00    +0.000 A 
ATOM     11  C   UNL     1       2.963   2.656  19.130  0.00  0.00    +0.000 A 
ATOM     12  C   UNL     1       2.937   4.041  18.847  0.00  0.00    +0.000 A 
ATOM     13  C   UNL     1       3.836   4.656  17.929  0.00  0.00    +0.000 A 
ATOM     14  S   UNL     1       5.134   3.942  17.045  0.00  0.00    +0.000 S 
ENDROOT
BRANCH   1  17
ATOM     15  C   UNL     1       7.733   4.740  13.239  0.00  0.00    +0.000 C 
ATOM     16  N   UNL     1       6.566   4.661  14.108  0.00  0.00    +0.000 N 
ATOM     17  C   UNL     1       6.674   5.375  15.320  0.00  0.00    +0.000 C 
ATOM     18  O   UNL     1       7.714   5.994  15.553  0.00  0.00    +0.000 OA
BRANCH  16  19
ATOM     19  C   UNL     1       5.355   4.052  13.536  0.00  0.00    +0.000 C 
BRANCH  19  20
ATOM     20  C   UNL     1       5.600   3.210  12.285  0.00  0.00    +0.000 C 
BRANCH  20  21
ATOM     21  C   UNL     1       4.393   3.205  11.444  0.00  0.00    +0.000 C 
ATOM     22  N   UNL     1       3.449   3.219  10.772  0.00  0.00    +0.000 NA
ENDBRANCH  20  21
ENDBRANCH  19  20
ENDBRANCH  16  19
ENDBRANCH   1  17
TORSDOF 4
ENDMDL
MODEL 3
REMARK VINA RESULT:      -7.3      3.056      6.966
REMARK  Name = 
REMARK  5 active torsions:
REMARK  status: ('A' for Active; 'I' for Inactive)
REMARK    1  A    between atoms: C_1  and  N_2
REMARK    2  A    between atoms: N_2  and  C_3
REMARK    3  A    between atoms: C_3  and  C_4
REMARK    4  A    between atoms: C_4  and  C_5
REMARK    5  A    between atoms: C_7  and  C_9
REMARK                            x       y       z     vdW  Elec       q    Type
REMARK                         _______ _______ _______ _____ _____    ______ ____
ROOT
ATOM      1  C   UNL     1       5.710   4.683  15.899  0.00  0.00    +0.000 A 
ATOM      2  C   UNL     1       5.298   3.578  16.610  0.00  0.00    +0.000 A 
ATOM      3  C   UNL     1       4.285   3.854  17.595  0.00  0.00    +0.000 A 
ATOM      4  C   UNL     1       3.552   3.018  18.441  0.00  0.00    +0.000 A 
ATOM      5 CL   UNL     1       3.738   1.334  18.290  0.00  0.00    +0.000 Cl
ATOM      6  N   UNL     1       2.674   3.462  19.351  0.00  0.00    +0.000 NA
ATOM      7  C   UNL     1       2.499   4.779  19.487  0.00  0.00    +0.000 A 
ATOM      8  C   UNL     1       1.620   5.239  20.458  0.00  0.00    +0.000 A 
ATOM      9  C   UNL     1       1.402   6.605  20.664  0.00  0.00    +0.000 A 
ATOM     10  C   UNL     1       2.068   7.544  19.883  0.00  0.00    +0.000 A 
ATOM     11  C   UNL     1       2.949   7.117  18.894  0.00  0.00    +0.000 A 
ATOM     12  C   UNL     1       3.164   5.734  18.696  0.00  0.00    +0.000 A 
ATOM     13  C   UNL     1       4.060   5.227  17.713  0.00  0.00    +0.000 A 
ATOM     14  S   UNL     1       4.993   6.096  16.550  0.00  0.00    +0.000 S 
ENDROOT
BRANCH   1  17
ATOM     15  C   UNL     1       7.416   4.529  12.526  0.00  0.00    +0.000 C 
ATOM     16  N   UNL     1       6.408   4.263  13.545  0.00  0.00    +0.000 N 
ATOM     17  C   UNL     1       6.663   4.846  14.804  0.00  0.00    +0.000 C 
ATOM     18  O   UNL     1       7.687   5.517  14.951  0.00  0.00    +0.000 OA
BRANCH  16  19
ATOM     19  C   UNL     1       5.163   3.625  13.093  0.00  0.00    +0.000 C 
BRANCH  19  20
ATOM     20  C   UNL     1       5.261   2.934  11.734  0.00  0.00    +0.000 C 
BRANCH  20  21
ATOM     21  C   UNL     1       4.061   3.232  10.936  0.00  0.00    +0.000 C 
ATOM     22  N   UNL     1       3.128   3.466  10.291  0.00  0.00    +0.000 NA
ENDBRANCH  20  21
ENDBRANCH  19  20
ENDBRANCH  16  19
ENDBRANCH   1  17
TORSDOF 4
ENDMDL
MODEL 4
REMARK VINA RESULT:      -7.3      0.973      1.038
REMARK  Name = 
REMARK  5 active torsions:
REMARK  status: ('A' for Active; 'I' for Inactive)
REMARK    1  A    between atoms: C_1  and  N_2
REMARK    2  A    between atoms: N_2  and  C_3
REMARK    3  A    between atoms: C_3  and  C_4
REMARK    4  A    between atoms: C_4  and  C_5
REMARK    5  A    between atoms: C_7  and  C_9
REMARK                            x       y       z     vdW  Elec       q    Type
REMARK                         _______ _______ _______ _____ _____    ______ ____
ROOT
ATOM      1  C   UNL     1       4.485   3.954  18.736  0.00  0.00    +0.000 A 
ATOM      2  C   UNL     1       5.576   4.794  18.754  0.00  0.00    +0.000 A 
ATOM      3  C   UNL     1       6.141   5.055  17.456  0.00  0.00    +0.000 A 
ATOM      4  C   UNL     1       7.169   5.903  17.036  0.00  0.00    +0.000 A 
ATOM      5 CL   UNL     1       7.888   6.942  18.175  0.00  0.00    +0.000 Cl
ATOM      6  N   UNL     1       7.608   5.976  15.772  0.00  0.00    +0.000 NA
ATOM      7  C   UNL     1       7.057   5.180  14.853  0.00  0.00    +0.000 A 
ATOM      8  C   UNL     1       7.539   5.227  13.552  0.00  0.00    +0.000 A 
ATOM      9  C   UNL     1       7.018   4.409  12.545  0.00  0.00    +0.000 A 
ATOM     10  C   UNL     1       5.985   3.522  12.830  0.00  0.00    +0.000 A 
ATOM     11  C   UNL     1       5.471   3.456  14.121  0.00  0.00    +0.000 A 
ATOM     12  C   UNL     1       6.007   4.285  15.133  0.00  0.00    +0.000 A 
ATOM     13  C   UNL     1       5.539   4.260  16.478  0.00  0.00    +0.000 A 
ATOM     14  S   UNL     1       4.251   3.334  17.157  0.00  0.00    +0.000 S 
ENDROOT
BRANCH   1  17
ATOM     15  C   UNL     1       1.626   3.586  21.186  0.00  0.00    +0.000 C 
ATOM     16  N   UNL     1       2.443   4.192  20.142  0.00  0.00    +0.000 N 
ATOM     17  C   UNL     1       3.603   3.469  19.795  0.00  0.00    +0.000 C 
ATOM     18  O   UNL     1       3.840   2.411  20.381  0.00  0.00    +0.000 OA
BRANCH  16  19
ATOM     19  C   UNL     1       1.860   5.339  19.429  0.00  0.00    +0.000 C 
BRANCH  19  20
ATOM     20  C   UNL     1       2.529   6.680  19.731  0.00  0.00    +0.000 C 
BRANCH  20  21
ATOM     21  C   UNL     1       1.650   7.493  20.588  0.00  0.00    +0.000 C 
ATOM     22  N   UNL     1       0.972   8.148  21.259  0.00  0.00    +0.000 NA
ENDBRANCH  20  21
ENDBRANCH  19  20
ENDBRANCH  16  19
ENDBRANCH   1  17
TORSDOF 4
ENDMDL
MODEL 5
REMARK VINA RESULT:      -7.1      1.208      1.692
REMARK  Name = 
REMARK  5 active torsions:
REMARK  status: ('A' for Active; 'I' for Inactive)
REMARK    1  A    between atoms: C_1  and  N_2
REMARK    2  A    between atoms: N_2  and  C_3
REMARK    3  A    between atoms: C_3  and  C_4
REMARK    4  A    between atoms: C_4  and  C_5
REMARK    5  A    between atoms: C_7  and  C_9
REMARK                            x       y       z     vdW  Elec       q    Type
REMARK                         _______ _______ _______ _____ _____    ______ ____
ROOT
ATOM      1  C   UNL     1       4.826   3.738  18.940  0.00  0.00    +0.000 A 
ATOM      2  C   UNL     1       5.837   4.674  18.918  0.00  0.00    +0.000 A 
ATOM      3  C   UNL     1       6.308   5.003  17.598  0.00  0.00    +0.000 A 
ATOM      4  C   UNL     1       7.232   5.946  17.144  0.00  0.00    +0.000 A 
ATOM      5 CL   UNL     1       7.913   7.031  18.263  0.00  0.00    +0.000 Cl
ATOM      6  N   UNL     1       7.597   6.075  15.861  0.00  0.00    +0.000 NA
ATOM      7  C   UNL     1       7.073   5.245  14.956  0.00  0.00    +0.000 A 
ATOM      8  C   UNL     1       7.482   5.353  13.634  0.00  0.00    +0.000 A 
ATOM      9  C   UNL     1       6.984   4.505  12.639  0.00  0.00    +0.000 A 
ATOM     10  C   UNL     1       6.053   3.523  12.960  0.00  0.00    +0.000 A 
ATOM     11  C   UNL     1       5.613   3.393  14.274  0.00  0.00    +0.000 A 
ATOM     12  C   UNL     1       6.124   4.255  15.272  0.00  0.00    +0.000 A 
ATOM     13  C   UNL     1       5.731   4.169  16.638  0.00  0.00    +0.000 A 
ATOM     14  S   UNL     1       4.567   3.121  17.364  0.00  0.00    +0.000 S 
ENDROOT
BRANCH   1  17
ATOM     15  C   UNL     1       2.147   3.085  21.530  0.00  0.00    +0.000 C 
ATOM     16  N   UNL     1       2.851   3.778  20.458  0.00  0.00    +0.000 N 
ATOM     17  C   UNL     1       4.047   3.162  20.034  0.00  0.00    +0.000 C 
ATOM     18  O   UNL     1       4.403   2.116  20.581  0.00  0.00    +0.000 OA
BRANCH  16  19
ATOM     19  C   UNL     1       2.137   4.885  19.804  0.00  0.00    +0.000 C 
BRANCH  19  20
ATOM     20  C   UNL     1       1.570   4.546  18.426  0.00  0.00    +0.000 C 
BRANCH  20  21
ATOM     21  C   UNL     1       0.921   3.226  18.465  0.00  0.00    +0.000 C 
ATOM     22  N   UNL     1       0.396   2.193  18.482  0.00  0.00    +0.000 NA
ENDBRANCH  20  21
ENDBRANCH  19  20
ENDBRANCH  16  19
ENDBRANCH   1  17
TORSDOF 4
ENDMDL
MODEL 6
REMARK VINA RESULT:      -6.9      1.335      1.412
REMARK  Name = 
REMARK  5 active torsions:
REMARK  status: ('A' for Active; 'I' for Inactive)
REMARK    1  A    between atoms: C_1  and  N_2
REMARK    2  A    between atoms: N_2  and  C_3
REMARK    3  A    between atoms: C_3  and  C_4
REMARK    4  A    between atoms: C_4  and  C_5
REMARK    5  A    between atoms: C_7  and  C_9
REMARK                            x       y       z     vdW  Elec       q    Type
REMARK                         _______ _______ _______ _____ _____    ______ ____
ROOT
ATOM      1  C   UNL     1       3.954   4.473  18.151  0.00  0.00    +0.000 A 
ATOM      2  C   UNL     1       5.162   5.129  18.234  0.00  0.00    +0.000 A 
ATOM      3  C   UNL     1       5.870   5.220  16.984  0.00  0.00    +0.000 A 
ATOM      4  C   UNL     1       7.055   5.867  16.626  0.00  0.00    +0.000 A 
ATOM      5 CL   UNL     1       7.836   6.843  17.780  0.00  0.00    +0.000 Cl
ATOM      6  N   UNL     1       7.606   5.795  15.407  0.00  0.00    +0.000 NA
ATOM      7  C   UNL     1       7.013   5.043  14.476  0.00  0.00    +0.000 A 
ATOM      8  C   UNL     1       7.605   4.937  13.225  0.00  0.00    +0.000 A 
ATOM      9  C   UNL     1       7.045   4.155  12.210  0.00  0.00    +0.000 A 
ATOM     10  C   UNL     1       5.860   3.461  12.437  0.00  0.00    +0.000 A 
ATOM     11  C   UNL     1       5.234   3.554  13.676  0.00  0.00    +0.000 A 
ATOM     12  C   UNL     1       5.811   4.345  14.695  0.00  0.00    +0.000 A 
ATOM     13  C   UNL     1       5.232   4.474  15.990  0.00  0.00    +0.000 A 
ATOM     14  S   UNL     1       3.756   3.807  16.586  0.00  0.00    +0.000 S 
ENDROOT
BRANCH   1  17
ATOM     15  C   UNL     1       1.243   4.857  20.762  0.00  0.00    +0.000 C 
ATOM     16  N   UNL     1       2.286   5.259  19.827  0.00  0.00    +0.000 N 
ATOM     17  C   UNL     1       2.917   4.199  19.143  0.00  0.00    +0.000 C 
ATOM     18  O   UNL     1       2.555   3.043  19.378  0.00  0.00    +0.000 OA
BRANCH  16  19
ATOM     19  C   UNL     1       2.401   6.697  19.542  0.00  0.00    +0.000 C 
BRANCH  19  20
ATOM     20  C   UNL     1       1.690   7.602  20.548  0.00  0.00    +0.000 C 
BRANCH  20  21
ATOM     21  C   UNL     1       1.290   8.858  19.893  0.00  0.00    +0.000 C 
ATOM     22  N   UNL     1       0.965   9.852  19.395  0.00  0.00    +0.000 NA
ENDBRANCH  20  21
ENDBRANCH  19  20
ENDBRANCH  16  19
ENDBRANCH   1  17
TORSDOF 4
ENDMDL
MODEL 7
REMARK VINA RESULT:      -6.8      1.618      2.421
REMARK  Name = 
REMARK  5 active torsions:
REMARK  status: ('A' for Active; 'I' for Inactive)
REMARK    1  A    between atoms: C_1  and  N_2
REMARK    2  A    between atoms: N_2  and  C_3
REMARK    3  A    between atoms: C_3  and  C_4
REMARK    4  A    between atoms: C_4  and  C_5
REMARK    5  A    between atoms: C_7  and  C_9
REMARK                            x       y       z     vdW  Elec       q    Type
REMARK                         _______ _______ _______ _____ _____    ______ ____
ROOT
ATOM      1  C   UNL     1       3.941   5.202  18.700  0.00  0.00    +0.000 A 
ATOM      2  C   UNL     1       5.201   5.758  18.718  0.00  0.00    +0.000 A 
ATOM      3  C   UNL     1       5.885   5.709  17.452  0.00  0.00    +0.000 A 
ATOM      4  C   UNL     1       7.111   6.231  17.032  0.00  0.00    +0.000 A 
ATOM      5 CL   UNL     1       7.995   7.210  18.105  0.00  0.00    +0.000 Cl
ATOM      6  N   UNL     1       7.625   6.035  15.810  0.00  0.00    +0.000 NA
ATOM      7  C   UNL     1       6.950   5.278  14.941  0.00  0.00    +0.000 A 
ATOM      8  C   UNL     1       7.503   5.043  13.690  0.00  0.00    +0.000 A 
ATOM      9  C   UNL     1       6.857   4.247  12.738  0.00  0.00    +0.000 A 
ATOM     10  C   UNL     1       5.625   3.671  13.031  0.00  0.00    +0.000 A 
ATOM     11  C   UNL     1       5.037   3.895  14.272  0.00  0.00    +0.000 A 
ATOM     12  C   UNL     1       5.700   4.699  15.227  0.00  0.00    +0.000 A 
ATOM     13  C   UNL     1       5.165   4.958  16.521  0.00  0.00    +0.000 A 
ATOM     14  S   UNL     1       3.653   4.456  17.185  0.00  0.00    +0.000 S 
ENDROOT
BRANCH   1  17
ATOM     15  C   UNL     1       1.628   3.849  21.370  0.00  0.00    +0.000 C 
ATOM     16  N   UNL     1       2.654   3.832  20.335  0.00  0.00    +0.000 N 
ATOM     17  C   UNL     1       2.908   5.079  19.726  0.00  0.00    +0.000 C 
ATOM     18  O   UNL     1       2.265   6.063  20.098  0.00  0.00    +0.000 OA
BRANCH  16  19
ATOM     19  C   UNL     1       3.446   2.599  20.208  0.00  0.00    +0.000 C 
BRANCH  19  20
ATOM     20  C   UNL     1       2.984   1.662  19.093  0.00  0.00    +0.000 C 
BRANCH  20  21
ATOM     21  C   UNL     1       1.577   1.937  18.761  0.00  0.00    +0.000 C 
ATOM     22  N   UNL     1       0.470   2.138  18.486  0.00  0.00    +0.000 NA
ENDBRANCH  20  21
ENDBRANCH  19  20
ENDBRANCH  16  19
ENDBRANCH   1  17
TORSDOF 4
ENDMDL
MODEL 8
REMARK VINA RESULT:      -6.6      1.654      2.787
REMARK  Name = 
REMARK  5 active torsions:
REMARK  status: ('A' for Active; 'I' for Inactive)
REMARK    1  A    between atoms: C_1  and  N_2
REMARK    2  A    between atoms: N_2  and  C_3
REMARK    3  A    between atoms: C_3  and  C_4
REMARK    4  A    between atoms: C_4  and  C_5
REMARK    5  A    between atoms: C_7  and  C_9
REMARK                            x       y       z     vdW  Elec       q    Type
REMARK                         _______ _______ _______ _____ _____    ______ ____
ROOT
ATOM      1  C   UNL     1       3.802   4.736  18.263  0.00  0.00    +0.000 A 
ATOM      2  C   UNL     1       5.026   5.359  18.362  0.00  0.00    +0.000 A 
ATOM      3  C   UNL     1       5.769   5.398  17.130  0.00  0.00    +0.000 A 
ATOM      4  C   UNL     1       6.981   6.002  16.788  0.00  0.00    +0.000 A 
ATOM      5 CL   UNL     1       7.759   6.985  17.938  0.00  0.00    +0.000 Cl
ATOM      6  N   UNL     1       7.561   5.884  15.586  0.00  0.00    +0.000 NA
ATOM      7  C   UNL     1       6.971   5.127  14.658  0.00  0.00    +0.000 A 
ATOM      8  C   UNL     1       7.593   4.972  13.426  0.00  0.00    +0.000 A 
ATOM      9  C   UNL     1       7.036   4.180  12.416  0.00  0.00    +0.000 A 
ATOM     10  C   UNL     1       5.827   3.527  12.628  0.00  0.00    +0.000 A 
ATOM     11  C   UNL     1       5.171   3.668  13.847  0.00  0.00    +0.000 A 
ATOM     12  C   UNL     1       5.744   4.468  14.862  0.00  0.00    +0.000 A 
ATOM     13  C   UNL     1       5.136   4.646  16.138  0.00  0.00    +0.000 A 
ATOM     14  S   UNL     1       3.626   4.036  16.710  0.00  0.00    +0.000 S 
ENDROOT
BRANCH   1  17
ATOM     15  C   UNL     1       1.417   3.141  20.729  0.00  0.00    +0.000 C 
ATOM     16  N   UNL     1       2.484   3.222  19.740  0.00  0.00    +0.000 N 
ATOM     17  C   UNL     1       2.732   4.516  19.234  0.00  0.00    +0.000 C 
ATOM     18  O   UNL     1       2.051   5.456  19.648  0.00  0.00    +0.000 OA
BRANCH  16  19
ATOM     19  C   UNL     1       3.310   2.020  19.557  0.00  0.00    +0.000 C 
BRANCH  19  20
ATOM     20  C   UNL     1       4.802   2.231  19.808  0.00  0.00    +0.000 C 
BRANCH  20  21
ATOM     21  C   UNL     1       5.218   1.478  21.002  0.00  0.00    +0.000 C 
ATOM     22  N   UNL     1       5.539   0.901  21.954  0.00  0.00    +0.000 NA
ENDBRANCH  20  21
ENDBRANCH  19  20
ENDBRANCH  16  19
ENDBRANCH   1  17
TORSDOF 4
ENDMDL
MODEL 9
REMARK VINA RESULT:      -6.6      2.888      7.010
REMARK  Name = 
REMARK  5 active torsions:
REMARK  status: ('A' for Active; 'I' for Inactive)
REMARK    1  A    between atoms: C_1  and  N_2
REMARK    2  A    between atoms: N_2  and  C_3
REMARK    3  A    between atoms: C_3  and  C_4
REMARK    4  A    between atoms: C_4  and  C_5
REMARK    5  A    between atoms: C_7  and  C_9
REMARK                            x       y       z     vdW  Elec       q    Type
REMARK                         _______ _______ _______ _____ _____    ______ ____
ROOT
ATOM      1  C   UNL     1       5.822   4.966  16.207  0.00  0.00    +0.000 A 
ATOM      2  C   UNL     1       5.493   3.918  17.038  0.00  0.00    +0.000 A 
ATOM      3  C   UNL     1       4.447   4.218  17.979  0.00  0.00    +0.000 A 
ATOM      4  C   UNL     1       3.773   3.426  18.912  0.00  0.00    +0.000 A 
ATOM      5 CL   UNL     1       4.100   1.757  18.956  0.00  0.00    +0.000 Cl
ATOM      6  N   UNL     1       2.849   3.895  19.761  0.00  0.00    +0.000 NA
ATOM      7  C   UNL     1       2.563   5.199  19.745  0.00  0.00    +0.000 A 
ATOM      8  C   UNL     1       1.635   5.692  20.653  0.00  0.00    +0.000 A 
ATOM      9  C   UNL     1       1.302   7.049  20.699  0.00  0.00    +0.000 A 
ATOM     10  C   UNL     1       1.899   7.945  19.819  0.00  0.00    +0.000 A 
ATOM     11  C   UNL     1       2.826   7.484  18.889  0.00  0.00    +0.000 A 
ATOM     12  C   UNL     1       3.158   6.111  18.853  0.00  0.00    +0.000 A 
ATOM     13  C   UNL     1       4.107   5.572  17.938  0.00  0.00    +0.000 A 
ATOM     14  S   UNL     1       4.981   6.379  16.687  0.00  0.00    +0.000 S 
ENDROOT
BRANCH   1  17
ATOM     15  C   UNL     1       7.578   4.581  12.878  0.00  0.00    +0.000 C 
ATOM     16  N   UNL     1       6.581   4.349  13.915  0.00  0.00    +0.000 N 
ATOM     17  C   UNL     1       6.774   5.083  15.104  0.00  0.00    +0.000 C 
ATOM     18  O   UNL     1       7.742   5.843  15.182  0.00  0.00    +0.000 OA
BRANCH  16  19
ATOM     19  C   UNL     1       5.393   3.572  13.530  0.00  0.00    +0.000 C 
BRANCH  19  20
ATOM     20  C   UNL     1       5.165   3.470  12.022  0.00  0.00    +0.000 C 
BRANCH  20  21
ATOM     21  C   UNL     1       5.669   2.178  11.528  0.00  0.00    +0.000 C 
ATOM     22  N   UNL     1       6.082   1.172  11.131  0.00  0.00    +0.000 NA
ENDBRANCH  20  21
ENDBRANCH  19  20
ENDBRANCH  16  19
ENDBRANCH   1  17
TORSDOF 4
ENDMDL
