MODEL 1
REMARK VINA RESULT:      -5.1      0.000      0.000
REMARK  Name = 
REMARK  6 active torsions:
REMARK  status: ('A' for Active; 'I' for Inactive)
REMARK    1  A    between atoms: C_1  and  O_2
REMARK    2  A    between atoms: O_2  and  C_3
REMARK    3  A    between atoms: C_6  and  O_7
REMARK    4  A    between atoms: O_7  and  C_8
REMARK    5  A    between atoms: C_9  and  C_10
REMARK    6  A    between atoms: C_10  and  O_11
REMARK                            x       y       z     vdW  Elec       q    Type
REMARK                         _______ _______ _______ _____ _____    ______ ____
ROOT
ATOM      1  C   UNL     1       6.603   4.672  15.696  0.00  0.00    +0.000 A 
ATOM      2  C   UNL     1       5.342   4.187  16.019  0.00  0.00    +0.000 A 
ATOM      3  C   UNL     1       4.876   4.272  17.333  0.00  0.00    +0.000 A 
ATOM      4  C   UNL     1       5.667   4.821  18.353  0.00  0.00    +0.000 A 
ATOM      5  C   UNL     1       6.960   5.284  18.057  0.00  0.00    +0.000 A 
ATOM      6  C   UNL     1       7.398   5.212  16.709  0.00  0.00    +0.000 A 
ENDROOT
BRANCH   1   8
ATOM      7  C   UNL     1       6.089   3.787  13.550  0.00  0.00    +0.000 C 
ATOM      8  O   UNL     1       6.934   4.584  14.373  0.00  0.00    +0.000 OA
ENDBRANCH   1   8
BRANCH   4   9
ATOM      9  O   UNL     1       4.984   4.972  19.531  0.00  0.00    +0.000 OA
ATOM     10  C   UNL     1       3.670   5.506  19.471  0.00  0.00    +0.000 C 
ENDBRANCH   4   9
BRANCH   5  11
ATOM     11  C   UNL     1       7.858   5.993  19.041  0.00  0.00    +0.000 C 
BRANCH  11  12
ATOM     12  O   UNL     1       7.782   5.414  20.346  0.00  0.00    +0.000 OA
ATOM     13  H   UNL     1       6.868   5.093  20.448  0.00  0.00    +0.000 HD
ENDBRANCH  11  12
ENDBRANCH   5  11
TORSDOF 4
ENDMDL
MODEL 2
REMARK VINA RESULT:      -5.1      1.430      3.657
REMARK  Name = 
REMARK  6 active torsions:
REMARK  status: ('A' for Active; 'I' for Inactive)
REMARK    1  A    between atoms: C_1  and  O_2
REMARK    2  A    between atoms: O_2  and  C_3
REMARK    3  A    between atoms: C_6  and  O_7
REMARK    4  A    between atoms: O_7  and  C_8
REMARK    5  A    between atoms: C_9  and  C_10
REMARK    6  A    between atoms: C_10  and  O_11
REMARK                            x       y       z     vdW  Elec       q    Type
REMARK                         _______ _______ _______ _____ _____    ______ ____
ROOT
ATOM      1  C   UNL     1       4.447   3.946  18.447  0.00  0.00    +0.000 A 
ATOM      2  C   UNL     1       4.307   3.896  17.065  0.00  0.00    +0.000 A 
ATOM      3  C   UNL     1       5.269   4.487  16.244  0.00  0.00    +0.000 A 
ATOM      4  C   UNL     1       6.376   5.158  16.784  0.00  0.00    +0.000 A 
ATOM      5  C   UNL     1       6.519   5.254  18.179  0.00  0.00    +0.000 A 
ATOM      6  C   UNL     1       5.542   4.620  18.990  0.00  0.00    +0.000 A 
ENDROOT
BRANCH   1   8
ATOM      7  C   UNL     1       3.246   1.926  18.813  0.00  0.00    +0.000 C 
ATOM      8  O   UNL     1       3.475   3.290  19.150  0.00  0.00    +0.000 OA
ENDBRANCH   1   8
BRANCH   4   9
ATOM      9  O   UNL     1       7.290   5.524  15.832  0.00  0.00    +0.000 OA
ATOM     10  C   UNL     1       7.136   4.993  14.525  0.00  0.00    +0.000 C 
ENDBRANCH   4   9
BRANCH   5  11
ATOM     11  C   UNL     1       7.718   5.849  18.874  0.00  0.00    +0.000 C 
BRANCH  11  12
ATOM     12  O   UNL     1       7.767   5.490  20.256  0.00  0.00    +0.000 OA
ATOM     13  H   UNL     1       8.615   5.827  20.596  0.00  0.00    +0.000 HD
ENDBRANCH  11  12
ENDBRANCH   5  11
TORSDOF 4
ENDMDL
MODEL 3
REMARK VINA RESULT:      -5.1      1.681      4.069
REMARK  Name = 
REMARK  6 active torsions:
REMARK  status: ('A' for Active; 'I' for Inactive)
REMARK    1  A    between atoms: C_1  and  O_2
REMARK    2  A    between atoms: O_2  and  C_3
REMARK    3  A    between atoms: C_6  and  O_7
REMARK    4  A    between atoms: O_7  and  C_8
REMARK    5  A    between atoms: C_9  and  C_10
REMARK    6  A    between atoms: C_10  and  O_11
REMARK                            x       y       z     vdW  Elec       q    Type
REMARK                         _______ _______ _______ _____ _____    ______ ____
ROOT
ATOM      1  C   UNL     1       4.724   4.038  17.932  0.00  0.00    +0.000 A 
ATOM      2  C   UNL     1       5.343   4.933  18.797  0.00  0.00    +0.000 A 
ATOM      3  C   UNL     1       6.344   5.782  18.324  0.00  0.00    +0.000 A 
ATOM      4  C   UNL     1       6.764   5.742  16.985  0.00  0.00    +0.000 A 
ATOM      5  C   UNL     1       6.178   4.819  16.101  0.00  0.00    +0.000 A 
ATOM      6  C   UNL     1       5.143   3.986  16.602  0.00  0.00    +0.000 A 
ENDROOT
BRANCH   1   8
ATOM      7  C   UNL     1       2.853   2.609  17.596  0.00  0.00    +0.000 C 
ATOM      8  O   UNL     1       3.724   3.292  18.492  0.00  0.00    +0.000 OA
ENDBRANCH   1   8
BRANCH   4   9
ATOM      9  O   UNL     1       7.629   6.755  16.669  0.00  0.00    +0.000 OA
ATOM     10  C   UNL     1       7.742   7.839  17.579  0.00  0.00    +0.000 C 
ENDBRANCH   4   9
BRANCH   5  11
ATOM     11  C   UNL     1       6.464   4.758  14.621  0.00  0.00    +0.000 C 
BRANCH  11  12
ATOM     12  O   UNL     1       7.675   5.438  14.283  0.00  0.00    +0.000 OA
ATOM     13  H   UNL     1       7.884   6.013  15.040  0.00  0.00    +0.000 HD
ENDBRANCH  11  12
ENDBRANCH   5  11
TORSDOF 4
ENDMDL
MODEL 4
REMARK VINA RESULT:      -4.9      4.464      5.642
REMARK  Name = 
REMARK  6 active torsions:
REMARK  status: ('A' for Active; 'I' for Inactive)
REMARK    1  A    between atoms: C_1  and  O_2
REMARK    2  A    between atoms: O_2  and  C_3
REMARK    3  A    between atoms: C_6  and  O_7
REMARK    4  A    between atoms: O_7  and  C_8
REMARK    5  A    between atoms: C_9  and  C_10
REMARK    6  A    between atoms: C_10  and  O_11
REMARK                            x       y       z     vdW  Elec       q    Type
REMARK                         _______ _______ _______ _____ _____    ______ ____
ROOT
ATOM      1  C   UNL     1       2.631   6.375  18.529  0.00  0.00    +0.000 A 
ATOM      2  C   UNL     1       2.184   6.554  19.833  0.00  0.00    +0.000 A 
ATOM      3  C   UNL     1       1.680   5.469  20.554  0.00  0.00    +0.000 A 
ATOM      4  C   UNL     1       1.592   4.191  19.982  0.00  0.00    +0.000 A 
ATOM      5  C   UNL     1       2.003   3.994  18.653  0.00  0.00    +0.000 A 
ATOM      6  C   UNL     1       2.537   5.108  17.952  0.00  0.00    +0.000 A 
ENDROOT
BRANCH   1   8
ATOM      7  C   UNL     1       2.275   8.606  17.787  0.00  0.00    +0.000 C 
ATOM      8  O   UNL     1       3.150   7.493  17.939  0.00  0.00    +0.000 OA
ENDBRANCH   1   8
BRANCH   4   9
ATOM      9  O   UNL     1       1.233   3.229  20.887  0.00  0.00    +0.000 OA
ATOM     10  C   UNL     1       2.235   2.735  21.763  0.00  0.00    +0.000 C 
ENDBRANCH   4   9
BRANCH   5  11
ATOM     11  C   UNL     1       2.061   2.651  17.968  0.00  0.00    +0.000 C 
BRANCH  11  12
ATOM     12  O   UNL     1       1.165   1.710  18.564  0.00  0.00    +0.000 OA
ATOM     13  H   UNL     1       0.268   1.987  18.305  0.00  0.00    +0.000 HD
ENDBRANCH  11  12
ENDBRANCH   5  11
TORSDOF 4
ENDMDL
MODEL 5
REMARK VINA RESULT:      -4.9      1.822      3.971
REMARK  Name = 
REMARK  6 active torsions:
REMARK  status: ('A' for Active; 'I' for Inactive)
REMARK    1  A    between atoms: C_1  and  O_2
REMARK    2  A    between atoms: O_2  and  C_3
REMARK    3  A    between atoms: C_6  and  O_7
REMARK    4  A    between atoms: O_7  and  C_8
REMARK    5  A    between atoms: C_9  and  C_10
REMARK    6  A    between atoms: C_10  and  O_11
REMARK                            x       y       z     vdW  Elec       q    Type
REMARK                         _______ _______ _______ _____ _____    ______ ____
ROOT
ATOM      1  C   UNL     1       4.695   4.328  18.691  0.00  0.00    +0.000 A 
ATOM      2  C   UNL     1       4.306   3.973  17.405  0.00  0.00    +0.000 A 
ATOM      3  C   UNL     1       4.964   4.518  16.301  0.00  0.00    +0.000 A 
ATOM      4  C   UNL     1       6.008   5.443  16.457  0.00  0.00    +0.000 A 
ATOM      5  C   UNL     1       6.394   5.844  17.748  0.00  0.00    +0.000 A 
ATOM      6  C   UNL     1       5.726   5.254  18.853  0.00  0.00    +0.000 A 
ENDROOT
BRANCH   1   8
ATOM      7  C   UNL     1       4.379   2.345  19.966  0.00  0.00    +0.000 C 
ATOM      8  O   UNL     1       4.015   3.695  19.695  0.00  0.00    +0.000 OA
ENDBRANCH   1   8
BRANCH   4   9
ATOM      9  O   UNL     1       6.638   5.736  15.278  0.00  0.00    +0.000 OA
ATOM     10  C   UNL     1       6.815   4.684  14.341  0.00  0.00    +0.000 C 
ENDBRANCH   4   9
BRANCH   5  11
ATOM     11  C   UNL     1       7.569   6.742  18.046  0.00  0.00    +0.000 C 
BRANCH  11  12
ATOM     12  O   UNL     1       7.738   7.749  17.045  0.00  0.00    +0.000 OA
ATOM     13  H   UNL     1       6.851   7.926  16.684  0.00  0.00    +0.000 HD
ENDBRANCH  11  12
ENDBRANCH   5  11
TORSDOF 4
ENDMDL
MODEL 6
REMARK VINA RESULT:      -4.9      1.551      4.188
REMARK  Name = 
REMARK  6 active torsions:
REMARK  status: ('A' for Active; 'I' for Inactive)
REMARK    1  A    between atoms: C_1  and  O_2
REMARK    2  A    between atoms: O_2  and  C_3
REMARK    3  A    between atoms: C_6  and  O_7
REMARK    4  A    between atoms: O_7  and  C_8
REMARK    5  A    between atoms: C_9  and  C_10
REMARK    6  A    between atoms: C_10  and  O_11
REMARK                            x       y       z     vdW  Elec       q    Type
REMARK                         _______ _______ _______ _____ _____    ______ ____
ROOT
ATOM      1  C   UNL     1       3.836   5.148  18.903  0.00  0.00    +0.000 A 
ATOM      2  C   UNL     1       3.268   4.458  17.839  0.00  0.00    +0.000 A 
ATOM      3  C   UNL     1       4.074   4.000  16.795  0.00  0.00    +0.000 A 
ATOM      4  C   UNL     1       5.456   4.239  16.780  0.00  0.00    +0.000 A 
ATOM      5  C   UNL     1       6.046   4.968  17.828  0.00  0.00    +0.000 A 
ATOM      6  C   UNL     1       5.209   5.398  18.890  0.00  0.00    +0.000 A 
ENDROOT
BRANCH   1   8
ATOM      7  C   UNL     1       2.354   6.787  19.783  0.00  0.00    +0.000 C 
ATOM      8  O   UNL     1       2.961   5.504  19.892  0.00  0.00    +0.000 OA
ENDBRANCH   1   8
BRANCH   4   9
ATOM      9  O   UNL     1       6.099   3.575  15.770  0.00  0.00    +0.000 OA
ATOM     10  C   UNL     1       6.339   4.279  14.561  0.00  0.00    +0.000 C 
ENDBRANCH   4   9
BRANCH   5  11
ATOM     11  C   UNL     1       7.530   5.191  17.979  0.00  0.00    +0.000 C 
BRANCH  11  12
ATOM     12  O   UNL     1       8.281   4.012  17.680  0.00  0.00    +0.000 OA
ATOM     13  H   UNL     1       9.024   3.995  18.310  0.00  0.00    +0.000 HD
ENDBRANCH  11  12
ENDBRANCH   5  11
TORSDOF 4
ENDMDL
MODEL 7
REMARK VINA RESULT:      -4.9      4.588      5.463
REMARK  Name = 
REMARK  6 active torsions:
REMARK  status: ('A' for Active; 'I' for Inactive)
REMARK    1  A    between atoms: C_1  and  O_2
REMARK    2  A    between atoms: O_2  and  C_3
REMARK    3  A    between atoms: C_6  and  O_7
REMARK    4  A    between atoms: O_7  and  C_8
REMARK    5  A    between atoms: C_9  and  C_10
REMARK    6  A    between atoms: C_10  and  O_11
REMARK                            x       y       z     vdW  Elec       q    Type
REMARK                         _______ _______ _______ _____ _____    ______ ____
ROOT
ATOM      1  C   UNL     1       2.338   6.337  19.255  0.00  0.00    +0.000 A 
ATOM      2  C   UNL     1       2.587   5.689  18.051  0.00  0.00    +0.000 A 
ATOM      3  C   UNL     1       2.642   4.295  18.006  0.00  0.00    +0.000 A 
ATOM      4  C   UNL     1       2.473   3.520  19.163  0.00  0.00    +0.000 A 
ATOM      5  C   UNL     1       2.258   4.154  20.399  0.00  0.00    +0.000 A 
ATOM      6  C   UNL     1       2.178   5.572  20.412  0.00  0.00    +0.000 A 
ENDROOT
BRANCH   1   8
ATOM      7  C   UNL     1       2.519   8.282  17.900  0.00  0.00    +0.000 C 
ATOM      8  O   UNL     1       2.255   7.699  19.171  0.00  0.00    +0.000 OA
ENDBRANCH   1   8
BRANCH   4   9
ATOM      9  O   UNL     1       2.394   2.179  18.898  0.00  0.00    +0.000 OA
ATOM     10  C   UNL     1       3.487   1.569  18.229  0.00  0.00    +0.000 C 
ENDBRANCH   4   9
BRANCH   5  11
ATOM     11  C   UNL     1       1.952   3.430  21.687  0.00  0.00    +0.000 C 
BRANCH  11  12
ATOM     12  O   UNL     1       2.894   2.388  21.949  0.00  0.00    +0.000 OA
ATOM     13  H   UNL     1       2.384   1.558  21.967  0.00  0.00    +0.000 HD
ENDBRANCH  11  12
ENDBRANCH   5  11
TORSDOF 4
ENDMDL
MODEL 8
REMARK VINA RESULT:      -4.9      3.256      4.969
REMARK  Name = 
REMARK  6 active torsions:
REMARK  status: ('A' for Active; 'I' for Inactive)
REMARK    1  A    between atoms: C_1  and  O_2
REMARK    2  A    between atoms: O_2  and  C_3
REMARK    3  A    between atoms: C_6  and  O_7
REMARK    4  A    between atoms: O_7  and  C_8
REMARK    5  A    between atoms: C_9  and  C_10
REMARK    6  A    between atoms: C_10  and  O_11
REMARK                            x       y       z     vdW  Elec       q    Type
REMARK                         _______ _______ _______ _____ _____    ______ ____
ROOT
ATOM      1  C   UNL     1       3.347   6.007  18.105  0.00  0.00    +0.000 A 
ATOM      2  C   UNL     1       2.758   6.419  19.294  0.00  0.00    +0.000 A 
ATOM      3  C   UNL     1       1.998   5.521  20.045  0.00  0.00    +0.000 A 
ATOM      4  C   UNL     1       1.792   4.201  19.616  0.00  0.00    +0.000 A 
ATOM      5  C   UNL     1       2.347   3.773  18.398  0.00  0.00    +0.000 A 
ATOM      6  C   UNL     1       3.138   4.698  17.667  0.00  0.00    +0.000 A 
ENDROOT
BRANCH   1   8
ATOM      7  C   UNL     1       5.012   6.494  16.479  0.00  0.00    +0.000 C 
ATOM      8  O   UNL     1       4.109   6.953  17.479  0.00  0.00    +0.000 OA
ENDBRANCH   1   8
BRANCH   4   9
ATOM      9  O   UNL     1       1.167   3.428  20.557  0.00  0.00    +0.000 OA
ATOM     10  C   UNL     1       1.930   2.997  21.674  0.00  0.00    +0.000 C 
ENDBRANCH   4   9
BRANCH   5  11
ATOM     11  C   UNL     1       2.289   2.354  17.887  0.00  0.00    +0.000 C 
BRANCH  11  12
ATOM     12  O   UNL     1       1.260   1.598  18.530  0.00  0.00    +0.000 OA
ATOM     13  H   UNL     1       0.415   1.970  18.220  0.00  0.00    +0.000 HD
ENDBRANCH  11  12
ENDBRANCH   5  11
TORSDOF 4
ENDMDL
MODEL 9
REMARK VINA RESULT:      -4.8      1.913      4.240
REMARK  Name = 
REMARK  6 active torsions:
REMARK  status: ('A' for Active; 'I' for Inactive)
REMARK    1  A    between atoms: C_1  and  O_2
REMARK    2  A    between atoms: O_2  and  C_3
REMARK    3  A    between atoms: C_6  and  O_7
REMARK    4  A    between atoms: O_7  and  C_8
REMARK    5  A    between atoms: C_9  and  C_10
REMARK    6  A    between atoms: C_10  and  O_11
REMARK                            x       y       z     vdW  Elec       q    Type
REMARK                         _______ _______ _______ _____ _____    ______ ____
ROOT
ATOM      1  C   UNL     1       4.181   4.414  17.152  0.00  0.00    +0.000 A 
ATOM      2  C   UNL     1       4.607   5.365  18.071  0.00  0.00    +0.000 A 
ATOM      3  C   UNL     1       5.779   6.086  17.837  0.00  0.00    +0.000 A 
ATOM      4  C   UNL     1       6.560   5.859  16.695  0.00  0.00    +0.000 A 
ATOM      5  C   UNL     1       6.169   4.876  15.770  0.00  0.00    +0.000 A 
ATOM      6  C   UNL     1       4.958   4.176  16.018  0.00  0.00    +0.000 A 
ENDROOT
BRANCH   1   8
ATOM      7  C   UNL     1       1.935   4.648  17.898  0.00  0.00    +0.000 C 
ATOM      8  O   UNL     1       2.995   3.806  17.458  0.00  0.00    +0.000 OA
ENDBRANCH   1   8
BRANCH   4   9
ATOM      9  O   UNL     1       7.573   6.770  16.554  0.00  0.00    +0.000 OA
ATOM     10  C   UNL     1       7.687   7.791  17.534  0.00  0.00    +0.000 C 
ENDBRANCH   4   9
BRANCH   5  11
ATOM     11  C   UNL     1       6.862   4.619  14.455  0.00  0.00    +0.000 C 
BRANCH  11  12
ATOM     12  O   UNL     1       6.362   3.446  13.808  0.00  0.00    +0.000 OA
ATOM     13  H   UNL     1       6.055   2.854  14.518  0.00  0.00    +0.000 HD
ENDBRANCH  11  12
ENDBRANCH   5  11
TORSDOF 4
ENDMDL
