MODEL 1
REMARK VINA RESULT:      -7.6      0.000      0.000
REMARK  Name = 
REMARK  8 active torsions:
REMARK  status: ('A' for Active; 'I' for Inactive)
REMARK    1  A    between atoms: C_1  and  C_2
REMARK    2  A    between atoms: C_4  and  C_5
REMARK    3  A    between atoms: C_11  and  N_12
REMARK    4  A    between atoms: N_12  and  C_13
REMARK    5  A    between atoms: C_13  and  C_14
REMARK    6  A    between atoms: C_14  and  C_15
REMARK    7  A    between atoms: C_14  and  C_16
REMARK    8  A    between atoms: C_14  and  N_17
REMARK                            x       y       z     vdW  Elec       q    Type
REMARK                         _______ _______ _______ _____ _____    ______ ____
ROOT
ATOM      1  C   UNL     1      -1.969  13.441  20.665  0.00  0.00    +0.000 C 
ATOM      2  C   UNL     1      -1.170  12.216  20.917  0.00  0.00    +0.000 A 
ATOM      3  C   UNL     1      -1.097  11.459  22.099  0.00  0.00    +0.000 A 
ATOM      4  C   UNL     1      -0.224  10.427  21.819  0.00  0.00    +0.000 A 
ATOM      5  C   UNL     1       0.262   9.352  22.714  0.00  0.00    +0.000 C 
ATOM      6  N   UNL     1       0.159  10.577  20.491  0.00  0.00    +0.000 N 
ATOM      7  C   UNL     1       0.988   9.733  19.689  0.00  0.00    +0.000 A 
ATOM      8  C   UNL     1       1.265  10.135  18.387  0.00  0.00    +0.000 A 
ATOM      9  N   UNL     1       1.984   9.378  17.522  0.00  0.00    +0.000 NA
ATOM     10  C   UNL     1       2.396   8.187  18.015  0.00  0.00    +0.000 A 
ATOM     11  C   UNL     1       2.170   7.761  19.329  0.00  0.00    +0.000 A 
ATOM     12  N   UNL     1       1.458   8.542  20.177  0.00  0.00    +0.000 NA
ATOM     13  N   UNL     1      -0.398  11.708  19.955  0.00  0.00    +0.000 NA
ENDROOT
BRANCH  11  14
ATOM     14  N   UNL     1       2.608   6.470  19.718  0.00  0.00    +0.000 N 
ATOM     15  H   UNL     1       2.114   6.198  20.564  0.00  0.00    +0.000 HD
BRANCH  14  16
ATOM     16  C   UNL     1       2.422   5.473  18.653  0.00  0.00    +0.000 C 
BRANCH  16  17
ATOM     17  C   UNL     1       3.550   4.391  18.567  0.00  0.00    +0.000 C 
ATOM     18  C   UNL     1       4.006   4.261  17.088  0.00  0.00    +0.000 C 
ATOM     19  C   UNL     1       4.812   4.857  19.342  0.00  0.00    +0.000 C 
BRANCH  17  20
ATOM     20  N   UNL     1       3.151   3.033  19.063  0.00  0.00    +0.000 NA
ATOM     21  C   UNL     1       1.762   2.592  18.805  0.00  0.00    +0.000 C 
ATOM     22  C   UNL     1       0.739   2.976  19.889  0.00  0.00    +0.000 C 
ATOM     23  O   UNL     1       1.153   2.561  21.194  0.00  0.00    +0.000 OA
ATOM     24  C   UNL     1       2.447   3.077  21.514  0.00  0.00    +0.000 C 
ATOM     25  C   UNL     1       3.488   2.672  20.457  0.00  0.00    +0.000 C 
ENDBRANCH  17  20
ENDBRANCH  16  17
ENDBRANCH  14  16
ENDBRANCH  11  14
TORSDOF 4
ENDMDL
MODEL 2
REMARK VINA RESULT:      -7.3      2.121      3.238
REMARK  Name = 
REMARK  8 active torsions:
REMARK  status: ('A' for Active; 'I' for Inactive)
REMARK    1  A    between atoms: C_1  and  C_2
REMARK    2  A    between atoms: C_4  and  C_5
REMARK    3  A    between atoms: C_11  and  N_12
REMARK    4  A    between atoms: N_12  and  C_13
REMARK    5  A    between atoms: C_13  and  C_14
REMARK    6  A    between atoms: C_14  and  C_15
REMARK    7  A    between atoms: C_14  and  C_16
REMARK    8  A    between atoms: C_14  and  N_17
REMARK                            x       y       z     vdW  Elec       q    Type
REMARK                         _______ _______ _______ _____ _____    ______ ____
ROOT
ATOM      1  C   UNL     1      -2.263  12.970  20.803  0.00  0.00    +0.000 C 
ATOM      2  C   UNL     1      -1.344  11.834  21.061  0.00  0.00    +0.000 A 
ATOM      3  C   UNL     1      -1.107  11.171  22.277  0.00  0.00    +0.000 A 
ATOM      4  C   UNL     1      -0.175  10.195  21.987  0.00  0.00    +0.000 A 
ATOM      5  C   UNL     1       0.474   9.229  22.901  0.00  0.00    +0.000 C 
ATOM      6  N   UNL     1       0.080  10.280  20.623  0.00  0.00    +0.000 N 
ATOM      7  C   UNL     1       0.908   9.450  19.805  0.00  0.00    +0.000 A 
ATOM      8  C   UNL     1       1.039   9.779  18.461  0.00  0.00    +0.000 A 
ATOM      9  N   UNL     1       1.745   9.022  17.585  0.00  0.00    +0.000 NA
ATOM     10  C   UNL     1       2.297   7.906  18.115  0.00  0.00    +0.000 A 
ATOM     11  C   UNL     1       2.220   7.558  19.468  0.00  0.00    +0.000 A 
ATOM     12  N   UNL     1       1.518   8.338  20.325  0.00  0.00    +0.000 NA
ATOM     13  N   UNL     1      -0.615  11.321  20.068  0.00  0.00    +0.000 NA
ENDROOT
BRANCH  11  14
ATOM     14  N   UNL     1       2.798   6.336  19.898  0.00  0.00    +0.000 N 
ATOM     15  H   UNL     1       2.097   5.603  19.838  0.00  0.00    +0.000 HD
BRANCH  14  16
ATOM     16  C   UNL     1       4.000   5.986  19.127  0.00  0.00    +0.000 C 
BRANCH  16  17
ATOM     17  C   UNL     1       3.988   4.542  18.519  0.00  0.00    +0.000 C 
ATOM     18  C   UNL     1       3.936   3.512  19.679  0.00  0.00    +0.000 C 
ATOM     19  C   UNL     1       2.688   4.306  17.705  0.00  0.00    +0.000 C 
BRANCH  17  20
ATOM     20  N   UNL     1       5.169   4.223  17.651  0.00  0.00    +0.000 NA
ATOM     21  C   UNL     1       6.486   4.758  18.063  0.00  0.00    +0.000 C 
ATOM     22  C   UNL     1       6.824   6.158  17.520  0.00  0.00    +0.000 C 
ATOM     23  O   UNL     1       6.686   6.234  16.099  0.00  0.00    +0.000 OA
ATOM     24  C   UNL     1       5.377   5.835  15.685  0.00  0.00    +0.000 C 
ATOM     25  C   UNL     1       5.037   4.423  16.192  0.00  0.00    +0.000 C 
ENDBRANCH  17  20
ENDBRANCH  16  17
ENDBRANCH  14  16
ENDBRANCH  11  14
TORSDOF 4
ENDMDL
MODEL 3
REMARK VINA RESULT:      -7.2      3.015      5.375
REMARK  Name = 
REMARK  8 active torsions:
REMARK  status: ('A' for Active; 'I' for Inactive)
REMARK    1  A    between atoms: C_1  and  C_2
REMARK    2  A    between atoms: C_4  and  C_5
REMARK    3  A    between atoms: C_11  and  N_12
REMARK    4  A    between atoms: N_12  and  C_13
REMARK    5  A    between atoms: C_13  and  C_14
REMARK    6  A    between atoms: C_14  and  C_15
REMARK    7  A    between atoms: C_14  and  C_16
REMARK    8  A    between atoms: C_14  and  N_17
REMARK                            x       y       z     vdW  Elec       q    Type
REMARK                         _______ _______ _______ _____ _____    ______ ____
ROOT
ATOM      1  C   UNL     1       0.293   9.069  22.258  0.00  0.00    +0.000 C 
ATOM      2  C   UNL     1       0.968   8.293  21.189  0.00  0.00    +0.000 A 
ATOM      3  C   UNL     1       1.425   8.754  19.942  0.00  0.00    +0.000 A 
ATOM      4  C   UNL     1       1.976   7.650  19.323  0.00  0.00    +0.000 A 
ATOM      5  C   UNL     1       2.567   7.541  17.970  0.00  0.00    +0.000 C 
ATOM      6  N   UNL     1       1.866   6.593  20.220  0.00  0.00    +0.000 N 
ATOM      7  C   UNL     1       2.348   5.253  20.101  0.00  0.00    +0.000 A 
ATOM      8  C   UNL     1       2.061   4.360  21.128  0.00  0.00    +0.000 A 
ATOM      9  N   UNL     1       2.527   3.088  21.147  0.00  0.00    +0.000 NA
ATOM     10  C   UNL     1       3.312   2.755  20.096  0.00  0.00    +0.000 A 
ATOM     11  C   UNL     1       3.596   3.609  19.026  0.00  0.00    +0.000 A 
ATOM     12  N   UNL     1       3.109   4.874  19.026  0.00  0.00    +0.000 NA
ATOM     13  N   UNL     1       1.205   6.990  21.352  0.00  0.00    +0.000 NA
ENDROOT
BRANCH  11  14
ATOM     14  N   UNL     1       4.474   3.165  18.004  0.00  0.00    +0.000 N 
ATOM     15  H   UNL     1       4.238   2.206  17.764  0.00  0.00    +0.000 HD
BRANCH  14  16
ATOM     16  C   UNL     1       4.435   4.034  16.818  0.00  0.00    +0.000 C 
BRANCH  16  17
ATOM     17  C   UNL     1       5.654   5.007  16.680  0.00  0.00    +0.000 C 
ATOM     18  C   UNL     1       6.961   4.170  16.662  0.00  0.00    +0.000 C 
ATOM     19  C   UNL     1       5.617   5.734  15.309  0.00  0.00    +0.000 C 
BRANCH  17  20
ATOM     20  N   UNL     1       5.759   6.032  17.770  0.00  0.00    +0.000 NA
ATOM     21  C   UNL     1       6.203   7.392  17.389  0.00  0.00    +0.000 C 
ATOM     22  C   UNL     1       7.726   7.617  17.420  0.00  0.00    +0.000 C 
ATOM     23  O   UNL     1       8.301   7.245  18.676  0.00  0.00    +0.000 OA
ATOM     24  C   UNL     1       7.984   5.891  19.009  0.00  0.00    +0.000 C 
ATOM     25  C   UNL     1       6.464   5.659  19.015  0.00  0.00    +0.000 C 
ENDBRANCH  17  20
ENDBRANCH  16  17
ENDBRANCH  14  16
ENDBRANCH  11  14
TORSDOF 4
ENDMDL
MODEL 4
REMARK VINA RESULT:      -7.2      1.734      2.707
REMARK  Name = 
REMARK  8 active torsions:
REMARK  status: ('A' for Active; 'I' for Inactive)
REMARK    1  A    between atoms: C_1  and  C_2
REMARK    2  A    between atoms: C_4  and  C_5
REMARK    3  A    between atoms: C_11  and  N_12
REMARK    4  A    between atoms: N_12  and  C_13
REMARK    5  A    between atoms: C_13  and  C_14
REMARK    6  A    between atoms: C_14  and  C_15
REMARK    7  A    between atoms: C_14  and  C_16
REMARK    8  A    between atoms: C_14  and  N_17
REMARK                            x       y       z     vdW  Elec       q    Type
REMARK                         _______ _______ _______ _____ _____    ______ ____
ROOT
ATOM      1  C   UNL     1       0.013  13.740  18.528  0.00  0.00    +0.000 C 
ATOM      2  C   UNL     1       0.247  12.509  19.322  0.00  0.00    +0.000 A 
ATOM      3  C   UNL     1      -0.169  12.235  20.637  0.00  0.00    +0.000 A 
ATOM      4  C   UNL     1       0.295  10.964  20.911  0.00  0.00    +0.000 A 
ATOM      5  C   UNL     1       0.188  10.186  22.165  0.00  0.00    +0.000 C 
ATOM      6  N   UNL     1       0.928  10.514  19.758  0.00  0.00    +0.000 N 
ATOM      7  C   UNL     1       1.511   9.237  19.488  0.00  0.00    +0.000 A 
ATOM      8  C   UNL     1       2.136   9.049  18.260  0.00  0.00    +0.000 A 
ATOM      9  N   UNL     1       2.661   7.860  17.876  0.00  0.00    +0.000 NA
ATOM     10  C   UNL     1       2.512   6.858  18.774  0.00  0.00    +0.000 A 
ATOM     11  C   UNL     1       1.923   7.013  20.033  0.00  0.00    +0.000 A 
ATOM     12  N   UNL     1       1.416   8.216  20.397  0.00  0.00    +0.000 NA
ATOM     13  N   UNL     1       0.930  11.489  18.797  0.00  0.00    +0.000 NA
ENDROOT
BRANCH  11  14
ATOM     14  N   UNL     1       1.779   5.877  20.870  0.00  0.00    +0.000 N 
ATOM     15  H   UNL     1       0.841   5.501  20.754  0.00  0.00    +0.000 HD
BRANCH  14  16
ATOM     16  C   UNL     1       2.797   4.851  20.599  0.00  0.00    +0.000 C 
BRANCH  16  17
ATOM     17  C   UNL     1       2.230   3.407  20.385  0.00  0.00    +0.000 C 
ATOM     18  C   UNL     1       2.185   2.680  21.756  0.00  0.00    +0.000 C 
ATOM     19  C   UNL     1       0.754   3.467  19.907  0.00  0.00    +0.000 C 
BRANCH  17  20
ATOM     20  N   UNL     1       3.017   2.565  19.425  0.00  0.00    +0.000 NA
ATOM     21  C   UNL     1       4.463   2.849  19.292  0.00  0.00    +0.000 C 
ATOM     22  C   UNL     1       4.829   3.900  18.228  0.00  0.00    +0.000 C 
ATOM     23  O   UNL     1       4.269   3.592  16.949  0.00  0.00    +0.000 OA
ATOM     24  C   UNL     1       2.850   3.431  17.032  0.00  0.00    +0.000 C 
ATOM     25  C   UNL     1       2.470   2.359  18.067  0.00  0.00    +0.000 C 
ENDBRANCH  17  20
ENDBRANCH  16  17
ENDBRANCH  14  16
ENDBRANCH  11  14
TORSDOF 4
ENDMDL
MODEL 5
REMARK VINA RESULT:      -7.2      2.194      3.140
REMARK  Name = 
REMARK  8 active torsions:
REMARK  status: ('A' for Active; 'I' for Inactive)
REMARK    1  A    between atoms: C_1  and  C_2
REMARK    2  A    between atoms: C_4  and  C_5
REMARK    3  A    between atoms: C_11  and  N_12
REMARK    4  A    between atoms: N_12  and  C_13
REMARK    5  A    between atoms: C_13  and  C_14
REMARK    6  A    between atoms: C_14  and  C_15
REMARK    7  A    between atoms: C_14  and  C_16
REMARK    8  A    between atoms: C_14  and  N_17
REMARK                            x       y       z     vdW  Elec       q    Type
REMARK                         _______ _______ _______ _____ _____    ______ ____
ROOT
ATOM      1  C   UNL     1      -1.777  13.425  20.743  0.00  0.00    +0.000 C 
ATOM      2  C   UNL     1      -1.021  12.164  20.945  0.00  0.00    +0.000 A 
ATOM      3  C   UNL     1      -1.002  11.339  22.082  0.00  0.00    +0.000 A 
ATOM      4  C   UNL     1      -0.152  10.299  21.766  0.00  0.00    +0.000 A 
ATOM      5  C   UNL     1       0.278   9.160  22.609  0.00  0.00    +0.000 C 
ATOM      6  N   UNL     1       0.272  10.514  20.459  0.00  0.00    +0.000 N 
ATOM      7  C   UNL     1       1.099   9.692  19.632  0.00  0.00    +0.000 A 
ATOM      8  C   UNL     1       1.424  10.159  18.363  0.00  0.00    +0.000 A 
ATOM      9  N   UNL     1       2.145   9.432  17.475  0.00  0.00    +0.000 NA
ATOM     10  C   UNL     1       2.508   8.203  17.909  0.00  0.00    +0.000 A 
ATOM     11  C   UNL     1       2.233   7.709  19.189  0.00  0.00    +0.000 A 
ATOM     12  N   UNL     1       1.521   8.461  20.062  0.00  0.00    +0.000 NA
ATOM     13  N   UNL     1      -0.236  11.689  19.975  0.00  0.00    +0.000 NA
ENDROOT
BRANCH  11  14
ATOM     14  N   UNL     1       2.623   6.385  19.514  0.00  0.00    +0.000 N 
ATOM     15  H   UNL     1       2.037   6.048  20.273  0.00  0.00    +0.000 HD
BRANCH  14  16
ATOM     16  C   UNL     1       2.557   5.483  18.354  0.00  0.00    +0.000 C 
BRANCH  16  17
ATOM     17  C   UNL     1       3.897   4.743  18.025  0.00  0.00    +0.000 C 
ATOM     18  C   UNL     1       4.491   4.175  19.342  0.00  0.00    +0.000 C 
ATOM     19  C   UNL     1       3.628   3.503  17.131  0.00  0.00    +0.000 C 
BRANCH  17  20
ATOM     20  N   UNL     1       4.936   5.600  17.364  0.00  0.00    +0.000 NA
ATOM     21  C   UNL     1       5.273   5.302  15.954  0.00  0.00    +0.000 C 
ATOM     22  C   UNL     1       6.400   4.274  15.752  0.00  0.00    +0.000 C 
ATOM     23  O   UNL     1       7.584   4.621  16.477  0.00  0.00    +0.000 OA
ATOM     24  C   UNL     1       7.304   4.797  17.868  0.00  0.00    +0.000 C 
ATOM     25  C   UNL     1       6.202   5.846  18.088  0.00  0.00    +0.000 C 
ENDBRANCH  17  20
ENDBRANCH  16  17
ENDBRANCH  14  16
ENDBRANCH  11  14
TORSDOF 4
ENDMDL
MODEL 6
REMARK VINA RESULT:      -7.1      1.443      2.503
REMARK  Name = 
REMARK  8 active torsions:
REMARK  status: ('A' for Active; 'I' for Inactive)
REMARK    1  A    between atoms: C_1  and  C_2
REMARK    2  A    between atoms: C_4  and  C_5
REMARK    3  A    between atoms: C_11  and  N_12
REMARK    4  A    between atoms: N_12  and  C_13
REMARK    5  A    between atoms: C_13  and  C_14
REMARK    6  A    between atoms: C_14  and  C_15
REMARK    7  A    between atoms: C_14  and  C_16
REMARK    8  A    between atoms: C_14  and  N_17
REMARK                            x       y       z     vdW  Elec       q    Type
REMARK                         _______ _______ _______ _____ _____    ______ ____
ROOT
ATOM      1  C   UNL     1      -0.950  13.916  20.067  0.00  0.00    +0.000 C 
ATOM      2  C   UNL     1      -0.430  12.594  20.497  0.00  0.00    +0.000 A 
ATOM      3  C   UNL     1      -0.596  11.962  21.741  0.00  0.00    +0.000 A 
ATOM      4  C   UNL     1       0.074  10.760  21.633  0.00  0.00    +0.000 A 
ATOM      5  C   UNL     1       0.270   9.710  22.659  0.00  0.00    +0.000 C 
ATOM      6  N   UNL     1       0.577  10.699  20.339  0.00  0.00    +0.000 N 
ATOM      7  C   UNL     1       1.281   9.635  19.693  0.00  0.00    +0.000 A 
ATOM      8  C   UNL     1       1.728   9.841  18.393  0.00  0.00    +0.000 A 
ATOM      9  N   UNL     1       2.346   8.877  17.667  0.00  0.00    +0.000 NA
ATOM     10  C   UNL     1       2.476   7.687  18.297  0.00  0.00    +0.000 A 
ATOM     11  C   UNL     1       2.073   7.449  19.615  0.00  0.00    +0.000 A 
ATOM     12  N   UNL     1       1.468   8.433  20.324  0.00  0.00    +0.000 NA
ATOM     13  N   UNL     1       0.297  11.853  19.658  0.00  0.00    +0.000 NA
ENDROOT
BRANCH  11  14
ATOM     14  N   UNL     1       2.217   6.144  20.154  0.00  0.00    +0.000 N 
ATOM     15  H   UNL     1       1.587   6.046  20.946  0.00  0.00    +0.000 HD
BRANCH  14  16
ATOM     16  C   UNL     1       1.974   5.097  19.150  0.00  0.00    +0.000 C 
BRANCH  16  17
ATOM     17  C   UNL     1       2.068   3.633  19.698  0.00  0.00    +0.000 C 
ATOM     18  C   UNL     1       2.190   3.685  21.245  0.00  0.00    +0.000 C 
ATOM     19  C   UNL     1       0.750   2.861  19.419  0.00  0.00    +0.000 C 
BRANCH  17  20
ATOM     20  N   UNL     1       3.219   2.838  19.155  0.00  0.00    +0.000 NA
ATOM     21  C   UNL     1       4.575   3.182  19.636  0.00  0.00    +0.000 C 
ATOM     22  C   UNL     1       5.306   4.263  18.818  0.00  0.00    +0.000 C 
ATOM     23  O   UNL     1       5.342   3.952  17.423  0.00  0.00    +0.000 OA
ATOM     24  C   UNL     1       4.027   3.732  16.908  0.00  0.00    +0.000 C 
ATOM     25  C   UNL     1       3.296   2.630  17.693  0.00  0.00    +0.000 C 
ENDBRANCH  17  20
ENDBRANCH  16  17
ENDBRANCH  14  16
ENDBRANCH  11  14
TORSDOF 4
ENDMDL
MODEL 7
REMARK VINA RESULT:      -7.1      1.355      2.224
REMARK  Name = 
REMARK  8 active torsions:
REMARK  status: ('A' for Active; 'I' for Inactive)
REMARK    1  A    between atoms: C_1  and  C_2
REMARK    2  A    between atoms: C_4  and  C_5
REMARK    3  A    between atoms: C_11  and  N_12
REMARK    4  A    between atoms: N_12  and  C_13
REMARK    5  A    between atoms: C_13  and  C_14
REMARK    6  A    between atoms: C_14  and  C_15
REMARK    7  A    between atoms: C_14  and  C_16
REMARK    8  A    between atoms: C_14  and  N_17
REMARK                            x       y       z     vdW  Elec       q    Type
REMARK                         _______ _______ _______ _____ _____    ______ ____
ROOT
ATOM      1  C   UNL     1      -1.649  13.624  20.341  0.00  0.00    +0.000 C 
ATOM      2  C   UNL     1      -1.013  12.379  20.839  0.00  0.00    +0.000 A 
ATOM      3  C   UNL     1      -1.119  11.805  22.117  0.00  0.00    +0.000 A 
ATOM      4  C   UNL     1      -0.345  10.663  22.071  0.00  0.00    +0.000 A 
ATOM      5  C   UNL     1      -0.054   9.693  23.150  0.00  0.00    +0.000 C 
ATOM      6  N   UNL     1       0.160  10.576  20.778  0.00  0.00    +0.000 N 
ATOM      7  C   UNL     1       0.954   9.544  20.187  0.00  0.00    +0.000 A 
ATOM      8  C   UNL     1       1.380   9.718  18.874  0.00  0.00    +0.000 A 
ATOM      9  N   UNL     1       2.080   8.775  18.198  0.00  0.00    +0.000 NA
ATOM     10  C   UNL     1       2.317   7.638  18.892  0.00  0.00    +0.000 A 
ATOM     11  C   UNL     1       1.939   7.437  20.224  0.00  0.00    +0.000 A 
ATOM     12  N   UNL     1       1.250   8.401  20.881  0.00  0.00    +0.000 NA
ATOM     13  N   UNL     1      -0.224  11.661  20.037  0.00  0.00    +0.000 NA
ENDROOT
BRANCH  11  14
ATOM     14  N   UNL     1       2.199   6.182  20.831  0.00  0.00    +0.000 N 
ATOM     15  H   UNL     1       2.288   6.316  21.835  0.00  0.00    +0.000 HD
BRANCH  14  16
ATOM     16  C   UNL     1       1.164   5.185  20.520  0.00  0.00    +0.000 C 
BRANCH  16  17
ATOM     17  C   UNL     1       1.708   3.742  20.247  0.00  0.00    +0.000 C 
ATOM     18  C   UNL     1       1.704   2.947  21.581  0.00  0.00    +0.000 C 
ATOM     19  C   UNL     1       0.746   2.967  19.307  0.00  0.00    +0.000 C 
BRANCH  17  20
ATOM     20  N   UNL     1       3.091   3.696  19.669  0.00  0.00    +0.000 NA
ATOM     21  C   UNL     1       3.262   4.142  18.268  0.00  0.00    +0.000 C 
ATOM     22  C   UNL     1       3.088   3.043  17.205  0.00  0.00    +0.000 C 
ATOM     23  O   UNL     1       3.915   1.905  17.463  0.00  0.00    +0.000 OA
ATOM     24  C   UNL     1       3.680   1.382  18.773  0.00  0.00    +0.000 C 
ATOM     25  C   UNL     1       3.883   2.461  19.850  0.00  0.00    +0.000 C 
ENDBRANCH  17  20
ENDBRANCH  16  17
ENDBRANCH  14  16
ENDBRANCH  11  14
TORSDOF 4
ENDMDL
MODEL 8
REMARK VINA RESULT:      -6.7      2.541      7.698
REMARK  Name = 
REMARK  8 active torsions:
REMARK  status: ('A' for Active; 'I' for Inactive)
REMARK    1  A    between atoms: C_1  and  C_2
REMARK    2  A    between atoms: C_4  and  C_5
REMARK    3  A    between atoms: C_11  and  N_12
REMARK    4  A    between atoms: N_12  and  C_13
REMARK    5  A    between atoms: C_13  and  C_14
REMARK    6  A    between atoms: C_14  and  C_15
REMARK    7  A    between atoms: C_14  and  C_16
REMARK    8  A    between atoms: C_14  and  N_17
REMARK                            x       y       z     vdW  Elec       q    Type
REMARK                         _______ _______ _______ _____ _____    ______ ____
ROOT
ATOM      1  C   UNL     1       6.101   3.670  14.703  0.00  0.00    +0.000 C 
ATOM      2  C   UNL     1       5.452   4.537  15.718  0.00  0.00    +0.000 A 
ATOM      3  C   UNL     1       5.297   5.933  15.691  0.00  0.00    +0.000 A 
ATOM      4  C   UNL     1       4.632   6.250  16.859  0.00  0.00    +0.000 A 
ATOM      5  C   UNL     1       4.245   7.582  17.376  0.00  0.00    +0.000 C 
ATOM      6  N   UNL     1       4.383   5.049  17.514  0.00  0.00    +0.000 N 
ATOM      7  C   UNL     1       3.658   4.814  18.724  0.00  0.00    +0.000 A 
ATOM      8  C   UNL     1       3.595   3.511  19.205  0.00  0.00    +0.000 A 
ATOM      9  N   UNL     1       2.880   3.168  20.304  0.00  0.00    +0.000 NA
ATOM     10  C   UNL     1       2.213   4.189  20.889  0.00  0.00    +0.000 A 
ATOM     11  C   UNL     1       2.279   5.519  20.459  0.00  0.00    +0.000 A 
ATOM     12  N   UNL     1       3.010   5.838  19.364  0.00  0.00    +0.000 NA
ATOM     13  N   UNL     1       4.930   4.001  16.823  0.00  0.00    +0.000 NA
ENDROOT
BRANCH  11  14
ATOM     14  N   UNL     1       1.496   6.497  21.124  0.00  0.00    +0.000 N 
ATOM     15  H   UNL     1       1.767   6.525  22.103  0.00  0.00    +0.000 HD
BRANCH  14  16
ATOM     16  C   UNL     1       1.616   7.824  20.503  0.00  0.00    +0.000 C 
BRANCH  16  17
ATOM     17  C   UNL     1       0.835   8.964  21.240  0.00  0.00    +0.000 C 
ATOM     18  C   UNL     1      -0.584   8.447  21.599  0.00  0.00    +0.000 C 
ATOM     19  C   UNL     1       1.507   9.291  22.601  0.00  0.00    +0.000 C 
BRANCH  17  20
ATOM     20  N   UNL     1       0.695  10.233  20.453  0.00  0.00    +0.000 NA
ATOM     21  C   UNL     1      -0.665  10.798  20.302  0.00  0.00    +0.000 C 
ATOM     22  C   UNL     1      -1.455  10.289  19.083  0.00  0.00    +0.000 C 
ATOM     23  O   UNL     1      -0.723  10.438  17.864  0.00  0.00    +0.000 OA
ATOM     24  C   UNL     1       0.552   9.795  17.944  0.00  0.00    +0.000 C 
ATOM     25  C   UNL     1       1.367  10.318  19.139  0.00  0.00    +0.000 C 
ENDBRANCH  17  20
ENDBRANCH  16  17
ENDBRANCH  14  16
ENDBRANCH  11  14
TORSDOF 4
ENDMDL
MODEL 9
REMARK VINA RESULT:      -6.6      1.656      2.094
REMARK  Name = 
REMARK  8 active torsions:
REMARK  status: ('A' for Active; 'I' for Inactive)
REMARK    1  A    between atoms: C_1  and  C_2
REMARK    2  A    between atoms: C_4  and  C_5
REMARK    3  A    between atoms: C_11  and  N_12
REMARK    4  A    between atoms: N_12  and  C_13
REMARK    5  A    between atoms: C_13  and  C_14
REMARK    6  A    between atoms: C_14  and  C_15
REMARK    7  A    between atoms: C_14  and  C_16
REMARK    8  A    between atoms: C_14  and  N_17
REMARK                            x       y       z     vdW  Elec       q    Type
REMARK                         _______ _______ _______ _____ _____    ______ ____
ROOT
ATOM      1  C   UNL     1      -1.607  13.427  23.184  0.00  0.00    +0.000 C 
ATOM      2  C   UNL     1      -1.036  12.185  22.608  0.00  0.00    +0.000 A 
ATOM      3  C   UNL     1      -1.218  10.863  23.048  0.00  0.00    +0.000 A 
ATOM      4  C   UNL     1      -0.481  10.083  22.180  0.00  0.00    +0.000 A 
ATOM      5  C   UNL     1      -0.272   8.617  22.197  0.00  0.00    +0.000 C 
ATOM      6  N   UNL     1       0.077  10.946  21.244  0.00  0.00    +0.000 N 
ATOM      7  C   UNL     1       0.862  10.640  20.089  0.00  0.00    +0.000 A 
ATOM      8  C   UNL     1       1.351  11.699  19.332  0.00  0.00    +0.000 A 
ATOM      9  N   UNL     1       2.048  11.520  18.183  0.00  0.00    +0.000 NA
ATOM     10  C   UNL     1       2.216  10.229  17.816  0.00  0.00    +0.000 A 
ATOM     11  C   UNL     1       1.772   9.135  18.567  0.00  0.00    +0.000 A 
ATOM     12  N   UNL     1       1.087   9.340  19.717  0.00  0.00    +0.000 NA
ATOM     13  N   UNL     1      -0.237  12.245  21.541  0.00  0.00    +0.000 NA
ENDROOT
BRANCH  11  14
ATOM     14  N   UNL     1       1.963   7.826  18.054  0.00  0.00    +0.000 N 
ATOM     15  H   UNL     1       1.880   7.855  17.042  0.00  0.00    +0.000 HD
BRANCH  14  16
ATOM     16  C   UNL     1       3.251   7.249  18.465  0.00  0.00    +0.000 C 
BRANCH  16  17
ATOM     17  C   UNL     1       3.200   5.726  18.826  0.00  0.00    +0.000 C 
ATOM     18  C   UNL     1       4.616   5.269  19.270  0.00  0.00    +0.000 C 
ATOM     19  C   UNL     1       2.289   5.490  20.060  0.00  0.00    +0.000 C 
BRANCH  17  20
ATOM     20  N   UNL     1       2.741   4.836  17.709  0.00  0.00    +0.000 NA
ATOM     21  C   UNL     1       1.376   4.272  17.800  0.00  0.00    +0.000 C 
ATOM     22  C   UNL     1       1.271   2.925  18.536  0.00  0.00    +0.000 C 
ATOM     23  O   UNL     1       2.172   1.948  18.006  0.00  0.00    +0.000 OA
ATOM     24  C   UNL     1       3.519   2.427  18.020  0.00  0.00    +0.000 C 
ATOM     25  C   UNL     1       3.646   3.757  17.258  0.00  0.00    +0.000 C 
ENDBRANCH  17  20
ENDBRANCH  16  17
ENDBRANCH  14  16
ENDBRANCH  11  14
TORSDOF 4
ENDMDL
