MODEL 1
REMARK VINA RESULT:      -8.7      0.000      0.000
REMARK  Name = 
REMARK  9 active torsions:
REMARK  status: ('A' for Active; 'I' for Inactive)
REMARK    1  A    between atoms: C_1  and  C_2
REMARK    2  A    between atoms: C_2  and  C_3
REMARK    3  A    between atoms: C_8  and  N_9
REMARK    4  A    between atoms: C_10  and  S_11
REMARK    5  A    between atoms: S_11  and  C_12
REMARK    6  A    between atoms: C_12  and  C_13
REMARK    7  A    between atoms: N_15  and  C_16
REMARK    8  A    between atoms: C_19  and  C_20
REMARK    9  A    between atoms: C_27  and  C_28
REMARK                            x       y       z     vdW  Elec       q    Type
REMARK                         _______ _______ _______ _____ _____    ______ ____
ROOT
ATOM      1  N   UNL     1       3.697   5.343  18.987  0.00  0.00    +0.000 N 
ATOM      2  C   UNL     1       3.396   6.655  18.505  0.00  0.00    +0.000 A 
ATOM      3  N   UNL     1       4.132   7.329  17.653  0.00  0.00    +0.000 NA
ATOM      4  C   UNL     1       5.292   6.701  17.353  0.00  0.00    +0.000 A 
ATOM      5  N   UNL     1       6.249   7.193  16.518  0.00  0.00    +0.000 N 
ATOM      6  N   UNL     1       7.375   6.455  16.502  0.00  0.00    +0.000 NA
ATOM      7  C   UNL     1       7.117   5.444  17.347  0.00  0.00    +0.000 A 
ATOM      8  C   UNL     1       8.191   4.459  17.645  0.00  0.00    +0.000 C 
ATOM      9  C   UNL     1       5.793   5.526  17.860  0.00  0.00    +0.000 A 
ATOM     10  C   UNL     1       4.970   4.736  18.746  0.00  0.00    +0.000 A 
ATOM     11  N   UNL     1       5.431   3.610  19.186  0.00  0.00    +0.000 NA
ATOM     12  H   UNL     1       6.209   8.036  15.956  0.00  0.00    +0.000 HD
ATOM     13  H   UNL     1       6.375   3.413  18.858  0.00  0.00    +0.000 HD
ENDROOT
BRANCH   1  19
ATOM     14  C   UNL     1       1.765   3.678  19.050  0.00  0.00    +0.000 A 
ATOM     15  C   UNL     1       0.919   2.882  19.861  0.00  0.00    +0.000 A 
ATOM     16  C   UNL     1       1.061   2.820  21.248  0.00  0.00    +0.000 A 
ATOM     17  C   UNL     1       2.029   3.586  21.870  0.00  0.00    +0.000 A 
ATOM     18  C   UNL     1       2.822   4.438  21.103  0.00  0.00    +0.000 A 
ATOM     19  C   UNL     1       2.732   4.510  19.685  0.00  0.00    +0.000 A 
BRANCH  14  21
ATOM     20  C   UNL     1       2.635   3.000  16.694  0.00  0.00    +0.000 C 
ATOM     21  C   UNL     1       1.538   3.614  17.553  0.00  0.00    +0.000 C 
ENDBRANCH  14  21
ENDBRANCH   1  19
BRANCH   2  22
ATOM     22  S   UNL     1       1.993   7.601  19.141  0.00  0.00    +0.000 S 
BRANCH  22  23
ATOM     23  C   UNL     1       2.234   9.174  18.252  0.00  0.00    +0.000 C 
BRANCH  23  24
ATOM     24  C   UNL     1       1.018  10.102  18.240  0.00  0.00    +0.000 C 
ATOM     25  O   UNL     1       1.200  11.320  18.262  0.00  0.00    +0.000 OA
ATOM     26  N   UNL     1      -0.219   9.490  18.098  0.00  0.00    +0.000 N 
ATOM     27  H   UNL     1      -0.251   8.493  18.274  0.00  0.00    +0.000 HD
BRANCH  26  28
ATOM     28  C   UNL     1      -1.464  10.141  17.873  0.00  0.00    +0.000 A 
ATOM     29  C   UNL     1      -2.072  10.994  18.794  0.00  0.00    +0.000 A 
ATOM     30  C   UNL     1      -3.288  11.630  18.504  0.00  0.00    +0.000 A 
ATOM     31  C   UNL     1      -3.929  11.422  17.275  0.00  0.00    +0.000 A 
ATOM     32  C   UNL     1      -5.219  12.120  16.954  0.00  0.00    +0.000 C 
ATOM     33  C   UNL     1      -3.332  10.561  16.356  0.00  0.00    +0.000 A 
ATOM     34  C   UNL     1      -2.107   9.935  16.643  0.00  0.00    +0.000 A 
ENDBRANCH  26  28
ENDBRANCH  23  24
ENDBRANCH  22  23
ENDBRANCH   2  22
TORSDOF 6
ENDMDL
MODEL 2
REMARK VINA RESULT:      -8.5      2.356      3.125
REMARK  Name = 
REMARK  9 active torsions:
REMARK  status: ('A' for Active; 'I' for Inactive)
REMARK    1  A    between atoms: C_1  and  C_2
REMARK    2  A    between atoms: C_2  and  C_3
REMARK    3  A    between atoms: C_8  and  N_9
REMARK    4  A    between atoms: C_10  and  S_11
REMARK    5  A    between atoms: S_11  and  C_12
REMARK    6  A    between atoms: C_12  and  C_13
REMARK    7  A    between atoms: N_15  and  C_16
REMARK    8  A    between atoms: C_19  and  C_20
REMARK    9  A    between atoms: C_27  and  C_28
REMARK                            x       y       z     vdW  Elec       q    Type
REMARK                         _______ _______ _______ _____ _____    ______ ____
ROOT
ATOM      1  N   UNL     1       3.699   5.331  19.013  0.00  0.00    +0.000 N 
ATOM      2  C   UNL     1       3.414   6.650  18.541  0.00  0.00    +0.000 A 
ATOM      3  N   UNL     1       4.164   7.323  17.700  0.00  0.00    +0.000 NA
ATOM      4  C   UNL     1       5.319   6.686  17.403  0.00  0.00    +0.000 A 
ATOM      5  N   UNL     1       6.288   7.175  16.579  0.00  0.00    +0.000 N 
ATOM      6  N   UNL     1       7.406   6.426  16.565  0.00  0.00    +0.000 NA
ATOM      7  C   UNL     1       7.131   5.410  17.399  0.00  0.00    +0.000 A 
ATOM      8  C   UNL     1       8.192   4.411  17.696  0.00  0.00    +0.000 C 
ATOM      9  C   UNL     1       5.805   5.502  17.903  0.00  0.00    +0.000 A 
ATOM     10  C   UNL     1       4.966   4.712  18.776  0.00  0.00    +0.000 A 
ATOM     11  N   UNL     1       5.413   3.577  19.209  0.00  0.00    +0.000 NA
ATOM     12  H   UNL     1       6.260   8.024  16.025  0.00  0.00    +0.000 HD
ATOM     13  H   UNL     1       6.357   3.374  18.887  0.00  0.00    +0.000 HD
ENDROOT
BRANCH   1  19
ATOM     14  C   UNL     1       1.743   3.693  19.048  0.00  0.00    +0.000 A 
ATOM     15  C   UNL     1       0.883   2.898  19.845  0.00  0.00    +0.000 A 
ATOM     16  C   UNL     1       1.021   2.813  21.231  0.00  0.00    +0.000 A 
ATOM     17  C   UNL     1       1.997   3.556  21.867  0.00  0.00    +0.000 A 
ATOM     18  C   UNL     1       2.804   4.407  21.113  0.00  0.00    +0.000 A 
ATOM     19  C   UNL     1       2.720   4.502  19.697  0.00  0.00    +0.000 A 
BRANCH  14  21
ATOM     20  C   UNL     1       2.625   3.072  16.681  0.00  0.00    +0.000 C 
ATOM     21  C   UNL     1       1.519   3.654  17.549  0.00  0.00    +0.000 C 
ENDBRANCH  14  21
ENDBRANCH   1  19
BRANCH   2  22
ATOM     22  S   UNL     1       2.017   7.605  19.175  0.00  0.00    +0.000 S 
BRANCH  22  23
ATOM     23  C   UNL     1       1.945   8.936  17.932  0.00  0.00    +0.000 C 
BRANCH  23  24
ATOM     24  C   UNL     1       1.483  10.293  18.466  0.00  0.00    +0.000 C 
ATOM     25  O   UNL     1       0.788  10.327  19.483  0.00  0.00    +0.000 OA
ATOM     26  N   UNL     1       1.978  11.410  17.810  0.00  0.00    +0.000 N 
ATOM     27  H   UNL     1       2.382  11.253  16.895  0.00  0.00    +0.000 HD
BRANCH  26  28
ATOM     28  C   UNL     1       1.849  12.764  18.229  0.00  0.00    +0.000 A 
ATOM     29  C   UNL     1       0.625  13.387  18.474  0.00  0.00    +0.000 A 
ATOM     30  C   UNL     1       0.561  14.719  18.912  0.00  0.00    +0.000 A 
ATOM     31  C   UNL     1       1.731  15.462  19.114  0.00  0.00    +0.000 A 
ATOM     32  C   UNL     1       1.665  16.879  19.606  0.00  0.00    +0.000 C 
ATOM     33  C   UNL     1       2.957  14.848  18.859  0.00  0.00    +0.000 A 
ATOM     34  C   UNL     1       3.020  13.510  18.433  0.00  0.00    +0.000 A 
ENDBRANCH  26  28
ENDBRANCH  23  24
ENDBRANCH  22  23
ENDBRANCH   2  22
TORSDOF 6
ENDMDL
MODEL 3
REMARK VINA RESULT:      -8.5      1.010      1.659
REMARK  Name = 
REMARK  9 active torsions:
REMARK  status: ('A' for Active; 'I' for Inactive)
REMARK    1  A    between atoms: C_1  and  C_2
REMARK    2  A    between atoms: C_2  and  C_3
REMARK    3  A    between atoms: C_8  and  N_9
REMARK    4  A    between atoms: C_10  and  S_11
REMARK    5  A    between atoms: S_11  and  C_12
REMARK    6  A    between atoms: C_12  and  C_13
REMARK    7  A    between atoms: N_15  and  C_16
REMARK    8  A    between atoms: C_19  and  C_20
REMARK    9  A    between atoms: C_27  and  C_28
REMARK                            x       y       z     vdW  Elec       q    Type
REMARK                         _______ _______ _______ _____ _____    ______ ____
ROOT
ATOM      1  N   UNL     1       3.713   5.284  19.001  0.00  0.00    +0.000 N 
ATOM      2  C   UNL     1       3.401   6.582  18.490  0.00  0.00    +0.000 A 
ATOM      3  N   UNL     1       4.142   7.252  17.640  0.00  0.00    +0.000 NA
ATOM      4  C   UNL     1       5.317   6.638  17.372  0.00  0.00    +0.000 A 
ATOM      5  N   UNL     1       6.282   7.129  16.545  0.00  0.00    +0.000 N 
ATOM      6  N   UNL     1       7.419   6.408  16.563  0.00  0.00    +0.000 NA
ATOM      7  C   UNL     1       7.160   5.409  17.421  0.00  0.00    +0.000 A 
ATOM      8  C   UNL     1       8.244   4.445  17.757  0.00  0.00    +0.000 C 
ATOM      9  C   UNL     1       5.827   5.480  17.909  0.00  0.00    +0.000 A 
ATOM     10  C   UNL     1       4.999   4.692  18.794  0.00  0.00    +0.000 A 
ATOM     11  N   UNL     1       5.469   3.581  19.262  0.00  0.00    +0.000 NA
ATOM     12  H   UNL     1       6.239   7.961  15.968  0.00  0.00    +0.000 HD
ATOM     13  H   UNL     1       6.421   3.394  18.956  0.00  0.00    +0.000 HD
ENDROOT
BRANCH   1  19
ATOM     14  C   UNL     1       1.785   3.614  19.059  0.00  0.00    +0.000 A 
ATOM     15  C   UNL     1       0.938   2.816  19.867  0.00  0.00    +0.000 A 
ATOM     16  C   UNL     1       1.077   2.755  21.255  0.00  0.00    +0.000 A 
ATOM     17  C   UNL     1       2.041   3.523  21.880  0.00  0.00    +0.000 A 
ATOM     18  C   UNL     1       2.834   4.377  21.114  0.00  0.00    +0.000 A 
ATOM     19  C   UNL     1       2.748   4.449  19.697  0.00  0.00    +0.000 A 
BRANCH  14  21
ATOM     20  C   UNL     1       2.685   2.988  16.700  0.00  0.00    +0.000 C 
ATOM     21  C   UNL     1       1.563   3.550  17.561  0.00  0.00    +0.000 C 
ENDBRANCH  14  21
ENDBRANCH   1  19
BRANCH   2  22
ATOM     22  S   UNL     1       1.973   7.518  19.084  0.00  0.00    +0.000 S 
BRANCH  22  23
ATOM     23  C   UNL     1       2.150   9.040  18.097  0.00  0.00    +0.000 C 
BRANCH  23  24
ATOM     24  C   UNL     1       1.309  10.223  18.578  0.00  0.00    +0.000 C 
ATOM     25  O   UNL     1       1.706  11.367  18.349  0.00  0.00    +0.000 OA
ATOM     26  N   UNL     1       0.087   9.912  19.155  0.00  0.00    +0.000 N 
ATOM     27  H   UNL     1      -0.041   8.951  19.449  0.00  0.00    +0.000 HD
BRANCH  26  28
ATOM     28  C   UNL     1      -0.943  10.831  19.504  0.00  0.00    +0.000 A 
ATOM     29  C   UNL     1      -1.994  11.176  18.655  0.00  0.00    +0.000 A 
ATOM     30  C   UNL     1      -2.997  12.068  19.065  0.00  0.00    +0.000 A 
ATOM     31  C   UNL     1      -2.968  12.639  20.344  0.00  0.00    +0.000 A 
ATOM     32  C   UNL     1      -4.052  13.575  20.793  0.00  0.00    +0.000 C 
ATOM     33  C   UNL     1      -1.912  12.306  21.192  0.00  0.00    +0.000 A 
ATOM     34  C   UNL     1      -0.915  11.403  20.785  0.00  0.00    +0.000 A 
ENDBRANCH  26  28
ENDBRANCH  23  24
ENDBRANCH  22  23
ENDBRANCH   2  22
TORSDOF 6
ENDMDL
MODEL 4
REMARK VINA RESULT:      -8.3      2.314      2.839
REMARK  Name = 
REMARK  9 active torsions:
REMARK  status: ('A' for Active; 'I' for Inactive)
REMARK    1  A    between atoms: C_1  and  C_2
REMARK    2  A    between atoms: C_2  and  C_3
REMARK    3  A    between atoms: C_8  and  N_9
REMARK    4  A    between atoms: C_10  and  S_11
REMARK    5  A    between atoms: S_11  and  C_12
REMARK    6  A    between atoms: C_12  and  C_13
REMARK    7  A    between atoms: N_15  and  C_16
REMARK    8  A    between atoms: C_19  and  C_20
REMARK    9  A    between atoms: C_27  and  C_28
REMARK                            x       y       z     vdW  Elec       q    Type
REMARK                         _______ _______ _______ _____ _____    ______ ____
ROOT
ATOM      1  N   UNL     1       3.545   5.253  19.158  0.00  0.00    +0.000 N 
ATOM      2  C   UNL     1       3.185   6.588  18.796  0.00  0.00    +0.000 A 
ATOM      3  N   UNL     1       3.833   7.330  17.929  0.00  0.00    +0.000 NA
ATOM      4  C   UNL     1       4.969   6.745  17.485  0.00  0.00    +0.000 A 
ATOM      5  N   UNL     1       5.841   7.308  16.602  0.00  0.00    +0.000 N 
ATOM      6  N   UNL     1       6.969   6.594  16.435  0.00  0.00    +0.000 NA
ATOM      7  C   UNL     1       6.800   5.524  17.229  0.00  0.00    +0.000 A 
ATOM      8  C   UNL     1       7.909   4.540  17.362  0.00  0.00    +0.000 C 
ATOM      9  C   UNL     1       5.528   5.548  17.863  0.00  0.00    +0.000 A 
ATOM     10  C   UNL     1       4.797   4.686  18.763  0.00  0.00    +0.000 A 
ATOM     11  N   UNL     1       5.310   3.541  19.082  0.00  0.00    +0.000 NA
ATOM     12  H   UNL     1       5.739   8.187  16.105  0.00  0.00    +0.000 HD
ATOM     13  H   UNL     1       6.222   3.384  18.659  0.00  0.00    +0.000 HD
ENDROOT
BRANCH   1  19
ATOM     14  C   UNL     1       1.684   3.511  19.275  0.00  0.00    +0.000 A 
ATOM     15  C   UNL     1       0.920   2.654  20.105  0.00  0.00    +0.000 A 
ATOM     16  C   UNL     1       1.151   2.548  21.478  0.00  0.00    +0.000 A 
ATOM     17  C   UNL     1       2.125   3.329  22.068  0.00  0.00    +0.000 A 
ATOM     18  C   UNL     1       2.837   4.238  21.287  0.00  0.00    +0.000 A 
ATOM     19  C   UNL     1       2.657   4.358  19.881  0.00  0.00    +0.000 A 
BRANCH  14  21
ATOM     20  C   UNL     1       2.450   3.002  16.842  0.00  0.00    +0.000 C 
ATOM     21  C   UNL     1       1.367   3.491  17.793  0.00  0.00    +0.000 C 
ENDBRANCH  14  21
ENDBRANCH   1  19
BRANCH   2  22
ATOM     22  S   UNL     1       1.835   7.464  19.617  0.00  0.00    +0.000 S 
BRANCH  22  23
ATOM     23  C   UNL     1       1.751   8.967  18.589  0.00  0.00    +0.000 C 
BRANCH  23  24
ATOM     24  C   UNL     1       0.864  10.081  19.146  0.00  0.00    +0.000 C 
ATOM     25  O   UNL     1      -0.108  10.453  18.485  0.00  0.00    +0.000 OA
ATOM     26  N   UNL     1       1.167  10.527  20.423  0.00  0.00    +0.000 N 
ATOM     27  H   UNL     1       2.082  10.280  20.781  0.00  0.00    +0.000 HD
BRANCH  26  28
ATOM     28  C   UNL     1       0.385  11.408  21.221  0.00  0.00    +0.000 A 
ATOM     29  C   UNL     1       0.474  12.799  21.156  0.00  0.00    +0.000 A 
ATOM     30  C   UNL     1      -0.344  13.618  21.948  0.00  0.00    +0.000 A 
ATOM     31  C   UNL     1      -1.276  13.058  22.832  0.00  0.00    +0.000 A 
ATOM     32  C   UNL     1      -2.169  13.934  23.663  0.00  0.00    +0.000 C 
ATOM     33  C   UNL     1      -1.361  11.668  22.909  0.00  0.00    +0.000 A 
ATOM     34  C   UNL     1      -0.550  10.849  22.105  0.00  0.00    +0.000 A 
ENDBRANCH  26  28
ENDBRANCH  23  24
ENDBRANCH  22  23
ENDBRANCH   2  22
TORSDOF 6
ENDMDL
MODEL 5
REMARK VINA RESULT:      -8.2      3.494      9.506
REMARK  Name = 
REMARK  9 active torsions:
REMARK  status: ('A' for Active; 'I' for Inactive)
REMARK    1  A    between atoms: C_1  and  C_2
REMARK    2  A    between atoms: C_2  and  C_3
REMARK    3  A    between atoms: C_8  and  N_9
REMARK    4  A    between atoms: C_10  and  S_11
REMARK    5  A    between atoms: S_11  and  C_12
REMARK    6  A    between atoms: C_12  and  C_13
REMARK    7  A    between atoms: N_15  and  C_16
REMARK    8  A    between atoms: C_19  and  C_20
REMARK    9  A    between atoms: C_27  and  C_28
REMARK                            x       y       z     vdW  Elec       q    Type
REMARK                         _______ _______ _______ _____ _____    ______ ____
ROOT
ATOM      1  N   UNL     1      -1.265  12.391  20.260  0.00  0.00    +0.000 N 
ATOM      2  C   UNL     1      -0.224  11.484  19.890  0.00  0.00    +0.000 A 
ATOM      3  N   UNL     1      -0.227  10.742  18.808  0.00  0.00    +0.000 NA
ATOM      4  C   UNL     1      -1.385  10.828  18.116  0.00  0.00    +0.000 A 
ATOM      5  N   UNL     1      -1.662  10.143  16.972  0.00  0.00    +0.000 N 
ATOM      6  N   UNL     1      -2.936  10.282  16.559  0.00  0.00    +0.000 NA
ATOM      7  C   UNL     1      -3.486  11.105  17.466  0.00  0.00    +0.000 A 
ATOM      8  C   UNL     1      -4.937  11.419  17.371  0.00  0.00    +0.000 C 
ATOM      9  C   UNL     1      -2.529  11.522  18.432  0.00  0.00    +0.000 A 
ATOM     10  C   UNL     1      -2.523  12.398  19.581  0.00  0.00    +0.000 A 
ATOM     11  N   UNL     1      -3.590  13.081  19.848  0.00  0.00    +0.000 NA
ATOM     12  H   UNL     1      -1.039   9.542  16.443  0.00  0.00    +0.000 HD
ATOM     13  H   UNL     1      -4.352  12.896  19.200  0.00  0.00    +0.000 HD
ENDROOT
BRANCH   1  19
ATOM     14  C   UNL     1      -1.499  13.253  22.650  0.00  0.00    +0.000 A 
ATOM     15  C   UNL     1      -1.239  14.313  23.554  0.00  0.00    +0.000 A 
ATOM     16  C   UNL     1      -0.536  15.458  23.175  0.00  0.00    +0.000 A 
ATOM     17  C   UNL     1      -0.108  15.595  21.868  0.00  0.00    +0.000 A 
ATOM     18  C   UNL     1      -0.421  14.602  20.940  0.00  0.00    +0.000 A 
ATOM     19  C   UNL     1      -1.107  13.406  21.289  0.00  0.00    +0.000 A 
BRANCH  14  21
ATOM     20  C   UNL     1      -3.594  12.263  23.832  0.00  0.00    +0.000 C 
ATOM     21  C   UNL     1      -2.225  12.044  23.204  0.00  0.00    +0.000 C 
ENDBRANCH  14  21
ENDBRANCH   1  19
BRANCH   2  22
ATOM     22  S   UNL     1       1.184  11.160  20.975  0.00  0.00    +0.000 S 
BRANCH  22  23
ATOM     23  C   UNL     1       0.474   9.873  22.052  0.00  0.00    +0.000 C 
BRANCH  23  24
ATOM     24  C   UNL     1       0.491   8.460  21.467  0.00  0.00    +0.000 C 
ATOM     25  O   UNL     1      -0.564   7.824  21.419  0.00  0.00    +0.000 OA
ATOM     26  N   UNL     1       1.696   8.032  20.931  0.00  0.00    +0.000 N 
ATOM     27  H   UNL     1       2.518   8.562  21.192  0.00  0.00    +0.000 HD
BRANCH  26  28
ATOM     28  C   UNL     1       1.911   6.849  20.171  0.00  0.00    +0.000 A 
ATOM     29  C   UNL     1       1.692   5.562  20.659  0.00  0.00    +0.000 A 
ATOM     30  C   UNL     1       1.897   4.432  19.853  0.00  0.00    +0.000 A 
ATOM     31  C   UNL     1       2.330   4.568  18.528  0.00  0.00    +0.000 A 
ATOM     32  C   UNL     1       2.527   3.362  17.656  0.00  0.00    +0.000 C 
ATOM     33  C   UNL     1       2.562   5.853  18.037  0.00  0.00    +0.000 A 
ATOM     34  C   UNL     1       2.345   6.984  18.843  0.00  0.00    +0.000 A 
ENDBRANCH  26  28
ENDBRANCH  23  24
ENDBRANCH  22  23
ENDBRANCH   2  22
TORSDOF 6
ENDMDL
MODEL 6
REMARK VINA RESULT:      -8.1      2.445      5.145
REMARK  Name = 
REMARK  9 active torsions:
REMARK  status: ('A' for Active; 'I' for Inactive)
REMARK    1  A    between atoms: C_1  and  C_2
REMARK    2  A    between atoms: C_2  and  C_3
REMARK    3  A    between atoms: C_8  and  N_9
REMARK    4  A    between atoms: C_10  and  S_11
REMARK    5  A    between atoms: S_11  and  C_12
REMARK    6  A    between atoms: C_12  and  C_13
REMARK    7  A    between atoms: N_15  and  C_16
REMARK    8  A    between atoms: C_19  and  C_20
REMARK    9  A    between atoms: C_27  and  C_28
REMARK                            x       y       z     vdW  Elec       q    Type
REMARK                         _______ _______ _______ _____ _____    ______ ____
ROOT
ATOM      1  N   UNL     1       4.305   4.998  17.841  0.00  0.00    +0.000 N 
ATOM      2  C   UNL     1       3.831   6.236  18.376  0.00  0.00    +0.000 A 
ATOM      3  N   UNL     1       3.186   6.364  19.512  0.00  0.00    +0.000 NA
ATOM      4  C   UNL     1       2.902   5.175  20.090  0.00  0.00    +0.000 A 
ATOM      5  N   UNL     1       2.219   5.021  21.258  0.00  0.00    +0.000 N 
ATOM      6  N   UNL     1       1.931   3.737  21.544  0.00  0.00    +0.000 NA
ATOM      7  C   UNL     1       2.470   3.046  20.527  0.00  0.00    +0.000 A 
ATOM      8  C   UNL     1       2.269   1.573  20.467  0.00  0.00    +0.000 C 
ATOM      9  C   UNL     1       3.143   3.907  19.618  0.00  0.00    +0.000 A 
ATOM     10  C   UNL     1       3.912   3.744  18.405  0.00  0.00    +0.000 A 
ATOM     11  N   UNL     1       4.172   2.547  17.989  0.00  0.00    +0.000 NA
ATOM     12  H   UNL     1       1.895   5.747  21.888  0.00  0.00    +0.000 HD
ATOM     13  H   UNL     1       3.767   1.825  18.581  0.00  0.00    +0.000 HD
ENDROOT
BRANCH   1  19
ATOM     14  C   UNL     1       6.675   5.015  16.898  0.00  0.00    +0.000 A 
ATOM     15  C   UNL     1       7.489   4.869  15.747  0.00  0.00    +0.000 A 
ATOM     16  C   UNL     1       6.958   4.546  14.497  0.00  0.00    +0.000 A 
ATOM     17  C   UNL     1       5.592   4.401  14.352  0.00  0.00    +0.000 A 
ATOM     18  C   UNL     1       4.763   4.618  15.452  0.00  0.00    +0.000 A 
ATOM     19  C   UNL     1       5.261   4.918  16.750  0.00  0.00    +0.000 A 
BRANCH  14  21
ATOM     20  C   UNL     1       7.872   6.736  18.438  0.00  0.00    +0.000 C 
ATOM     21  C   UNL     1       7.384   5.313  18.204  0.00  0.00    +0.000 C 
ENDBRANCH  14  21
ENDBRANCH   1  19
BRANCH   2  22
ATOM     22  S   UNL     1       3.959   7.783  17.450  0.00  0.00    +0.000 S 
BRANCH  22  23
ATOM     23  C   UNL     1       2.202   8.259  17.368  0.00  0.00    +0.000 C 
BRANCH  23  24
ATOM     24  C   UNL     1       1.781   9.349  18.355  0.00  0.00    +0.000 C 
ATOM     25  O   UNL     1       2.123  10.512  18.136  0.00  0.00    +0.000 OA
ATOM     26  N   UNL     1       0.943   8.952  19.386  0.00  0.00    +0.000 N 
ATOM     27  H   UNL     1       0.885   7.956  19.562  0.00  0.00    +0.000 HD
BRANCH  26  28
ATOM     28  C   UNL     1       0.273   9.804  20.307  0.00  0.00    +0.000 A 
ATOM     29  C   UNL     1      -0.565  10.853  19.927  0.00  0.00    +0.000 A 
ATOM     30  C   UNL     1      -1.222  11.643  20.882  0.00  0.00    +0.000 A 
ATOM     31  C   UNL     1      -1.051  11.400  22.252  0.00  0.00    +0.000 A 
ATOM     32  C   UNL     1      -1.772  12.229  23.275  0.00  0.00    +0.000 C 
ATOM     33  C   UNL     1      -0.205  10.360  22.638  0.00  0.00    +0.000 A 
ATOM     34  C   UNL     1       0.442   9.561  21.679  0.00  0.00    +0.000 A 
ENDBRANCH  26  28
ENDBRANCH  23  24
ENDBRANCH  22  23
ENDBRANCH   2  22
TORSDOF 6
ENDMDL
MODEL 7
REMARK VINA RESULT:      -8.1      2.973      9.590
REMARK  Name = 
REMARK  9 active torsions:
REMARK  status: ('A' for Active; 'I' for Inactive)
REMARK    1  A    between atoms: C_1  and  C_2
REMARK    2  A    between atoms: C_2  and  C_3
REMARK    3  A    between atoms: C_8  and  N_9
REMARK    4  A    between atoms: C_10  and  S_11
REMARK    5  A    between atoms: S_11  and  C_12
REMARK    6  A    between atoms: C_12  and  C_13
REMARK    7  A    between atoms: N_15  and  C_16
REMARK    8  A    between atoms: C_19  and  C_20
REMARK    9  A    between atoms: C_27  and  C_28
REMARK                            x       y       z     vdW  Elec       q    Type
REMARK                         _______ _______ _______ _____ _____    ______ ____
ROOT
ATOM      1  N   UNL     1      -1.375  11.981  19.583  0.00  0.00    +0.000 N 
ATOM      2  C   UNL     1      -0.526  10.966  19.041  0.00  0.00    +0.000 A 
ATOM      3  N   UNL     1      -0.788  10.267  17.962  0.00  0.00    +0.000 NA
ATOM      4  C   UNL     1      -2.018  10.519  17.461  0.00  0.00    +0.000 A 
ATOM      5  N   UNL     1      -2.551   9.912  16.364  0.00  0.00    +0.000 N 
ATOM      6  N   UNL     1      -3.845  10.221  16.157  0.00  0.00    +0.000 NA
ATOM      7  C   UNL     1      -4.141  11.073  17.151  0.00  0.00    +0.000 A 
ATOM      8  C   UNL     1      -5.539  11.566  17.289  0.00  0.00    +0.000 C 
ATOM      9  C   UNL     1      -3.003  11.337  17.962  0.00  0.00    +0.000 A 
ATOM     10  C   UNL     1      -2.711  12.165  19.109  0.00  0.00    +0.000 A 
ATOM     11  N   UNL     1      -3.629  12.964  19.549  0.00  0.00    +0.000 NA
ATOM     12  H   UNL     1      -2.098   9.258  15.735  0.00  0.00    +0.000 HD
ATOM     13  H   UNL     1      -4.499  12.896  19.025  0.00  0.00    +0.000 HD
ENDROOT
BRANCH   1  19
ATOM     14  C   UNL     1      -1.075  12.753  21.996  0.00  0.00    +0.000 A 
ATOM     15  C   UNL     1      -0.554  13.747  22.862  0.00  0.00    +0.000 A 
ATOM     16  C   UNL     1       0.166  14.844  22.386  0.00  0.00    +0.000 A 
ATOM     17  C   UNL     1       0.350  15.002  21.026  0.00  0.00    +0.000 A 
ATOM     18  C   UNL     1      -0.221  14.081  20.149  0.00  0.00    +0.000 A 
ATOM     19  C   UNL     1      -0.935  12.933  20.590  0.00  0.00    +0.000 A 
BRANCH  14  21
ATOM     20  C   UNL     1      -0.946  10.412  23.122  0.00  0.00    +0.000 C 
ATOM     21  C   UNL     1      -1.790  11.586  22.646  0.00  0.00    +0.000 C 
ENDBRANCH  14  21
ENDBRANCH   1  19
BRANCH   2  22
ATOM     22  S   UNL     1       0.979  10.435  19.888  0.00  0.00    +0.000 S 
BRANCH  22  23
ATOM     23  C   UNL     1       1.742   9.415  18.584  0.00  0.00    +0.000 C 
BRANCH  23  24
ATOM     24  C   UNL     1       2.092   7.986  19.003  0.00  0.00    +0.000 C 
ATOM     25  O   UNL     1       1.876   7.638  20.166  0.00  0.00    +0.000 OA
ATOM     26  N   UNL     1       2.537   7.144  17.996  0.00  0.00    +0.000 N 
ATOM     27  H   UNL     1       2.842   7.589  17.139  0.00  0.00    +0.000 HD
BRANCH  26  28
ATOM     28  C   UNL     1       2.742   5.739  18.096  0.00  0.00    +0.000 A 
ATOM     29  C   UNL     1       1.743   4.791  17.876  0.00  0.00    +0.000 A 
ATOM     30  C   UNL     1       2.011   3.417  17.962  0.00  0.00    +0.000 A 
ATOM     31  C   UNL     1       3.297   2.957  18.275  0.00  0.00    +0.000 A 
ATOM     32  C   UNL     1       3.592   1.487  18.345  0.00  0.00    +0.000 C 
ATOM     33  C   UNL     1       4.297   3.901  18.508  0.00  0.00    +0.000 A 
ATOM     34  C   UNL     1       4.030   5.277  18.409  0.00  0.00    +0.000 A 
ENDBRANCH  26  28
ENDBRANCH  23  24
ENDBRANCH  22  23
ENDBRANCH   2  22
TORSDOF 6
ENDMDL
MODEL 8
REMARK VINA RESULT:      -8.1      2.192      3.096
REMARK  Name = 
REMARK  9 active torsions:
REMARK  status: ('A' for Active; 'I' for Inactive)
REMARK    1  A    between atoms: C_1  and  C_2
REMARK    2  A    between atoms: C_2  and  C_3
REMARK    3  A    between atoms: C_8  and  N_9
REMARK    4  A    between atoms: C_10  and  S_11
REMARK    5  A    between atoms: S_11  and  C_12
REMARK    6  A    between atoms: C_12  and  C_13
REMARK    7  A    between atoms: N_15  and  C_16
REMARK    8  A    between atoms: C_19  and  C_20
REMARK    9  A    between atoms: C_27  and  C_28
REMARK                            x       y       z     vdW  Elec       q    Type
REMARK                         _______ _______ _______ _____ _____    ______ ____
ROOT
ATOM      1  N   UNL     1       3.738   5.240  18.446  0.00  0.00    +0.000 N 
ATOM      2  C   UNL     1       3.453   6.451  17.742  0.00  0.00    +0.000 A 
ATOM      3  N   UNL     1       4.356   7.228  17.191  0.00  0.00    +0.000 NA
ATOM      4  C   UNL     1       5.620   6.831  17.456  0.00  0.00    +0.000 A 
ATOM      5  N   UNL     1       6.744   7.473  17.029  0.00  0.00    +0.000 N 
ATOM      6  N   UNL     1       7.879   6.970  17.550  0.00  0.00    +0.000 NA
ATOM      7  C   UNL     1       7.461   5.955  18.325  0.00  0.00    +0.000 A 
ATOM      8  C   UNL     1       8.460   5.209  19.138  0.00  0.00    +0.000 C 
ATOM      9  C   UNL     1       6.051   5.793  18.248  0.00  0.00    +0.000 A 
ATOM     10  C   UNL     1       5.076   4.886  18.807  0.00  0.00    +0.000 A 
ATOM     11  N   UNL     1       5.490   3.886  19.517  0.00  0.00    +0.000 NA
ATOM     12  H   UNL     1       6.803   8.274  16.409  0.00  0.00    +0.000 HD
ATOM     13  H   UNL     1       6.502   3.868  19.622  0.00  0.00    +0.000 HD
ENDROOT
BRANCH   1  19
ATOM     14  C   UNL     1       1.926   4.280  19.964  0.00  0.00    +0.000 A 
ATOM     15  C   UNL     1       0.938   3.279  20.136  0.00  0.00    +0.000 A 
ATOM     16  C   UNL     1       0.660   2.332  19.150  0.00  0.00    +0.000 A 
ATOM     17  C   UNL     1       1.392   2.331  17.978  0.00  0.00    +0.000 A 
ATOM     18  C   UNL     1       2.423   3.255  17.818  0.00  0.00    +0.000 A 
ATOM     19  C   UNL     1       2.721   4.257  18.782  0.00  0.00    +0.000 A 
BRANCH  14  21
ATOM     20  C   UNL     1       1.346   6.603  20.981  0.00  0.00    +0.000 C 
ATOM     21  C   UNL     1       2.092   5.280  21.091  0.00  0.00    +0.000 C 
ENDBRANCH  14  21
ENDBRANCH   1  19
BRANCH   2  22
ATOM     22  S   UNL     1       1.778   7.124  17.649  0.00  0.00    +0.000 S 
BRANCH  22  23
ATOM     23  C   UNL     1       2.126   8.894  17.910  0.00  0.00    +0.000 C 
BRANCH  23  24
ATOM     24  C   UNL     1       0.990   9.686  18.558  0.00  0.00    +0.000 C 
ATOM     25  O   UNL     1      -0.073   9.809  17.947  0.00  0.00    +0.000 OA
ATOM     26  N   UNL     1       1.211  10.127  19.854  0.00  0.00    +0.000 N 
ATOM     27  H   UNL     1       2.172  10.124  20.173  0.00  0.00    +0.000 HD
BRANCH  26  28
ATOM     28  C   UNL     1       0.250  10.712  20.725  0.00  0.00    +0.000 A 
ATOM     29  C   UNL     1      -0.471  11.867  20.423  0.00  0.00    +0.000 A 
ATOM     30  C   UNL     1      -1.427  12.383  21.311  0.00  0.00    +0.000 A 
ATOM     31  C   UNL     1      -1.684  11.747  22.533  0.00  0.00    +0.000 A 
ATOM     32  C   UNL     1      -2.723  12.284  23.474  0.00  0.00    +0.000 C 
ATOM     33  C   UNL     1      -0.958  10.599  22.846  0.00  0.00    +0.000 A 
ATOM     34  C   UNL     1      -0.009  10.076  21.950  0.00  0.00    +0.000 A 
ENDBRANCH  26  28
ENDBRANCH  23  24
ENDBRANCH  22  23
ENDBRANCH   2  22
TORSDOF 6
ENDMDL
MODEL 9
REMARK VINA RESULT:      -8.0      3.508      8.094
REMARK  Name = 
REMARK  9 active torsions:
REMARK  status: ('A' for Active; 'I' for Inactive)
REMARK    1  A    between atoms: C_1  and  C_2
REMARK    2  A    between atoms: C_2  and  C_3
REMARK    3  A    between atoms: C_8  and  N_9
REMARK    4  A    between atoms: C_10  and  S_11
REMARK    5  A    between atoms: S_11  and  C_12
REMARK    6  A    between atoms: C_12  and  C_13
REMARK    7  A    between atoms: N_15  and  C_16
REMARK    8  A    between atoms: C_19  and  C_20
REMARK    9  A    between atoms: C_27  and  C_28
REMARK                            x       y       z     vdW  Elec       q    Type
REMARK                         _______ _______ _______ _____ _____    ______ ____
ROOT
ATOM      1  N   UNL     1       0.662  12.142  19.377  0.00  0.00    +0.000 N 
ATOM      2  C   UNL     1       0.679  12.057  20.804  0.00  0.00    +0.000 A 
ATOM      3  N   UNL     1       1.418  12.804  21.591  0.00  0.00    +0.000 NA
ATOM      4  C   UNL     1       2.270  13.601  20.907  0.00  0.00    +0.000 A 
ATOM      5  N   UNL     1       3.166  14.454  21.478  0.00  0.00    +0.000 N 
ATOM      6  N   UNL     1       4.004  15.022  20.591  0.00  0.00    +0.000 NA
ATOM      7  C   UNL     1       3.613  14.525  19.407  0.00  0.00    +0.000 A 
ATOM      8  C   UNL     1       4.386  14.878  18.185  0.00  0.00    +0.000 C 
ATOM      9  C   UNL     1       2.485  13.672  19.551  0.00  0.00    +0.000 A 
ATOM     10  C   UNL     1       1.636  12.910  18.665  0.00  0.00    +0.000 A 
ATOM     11  N   UNL     1       1.816  13.015  17.388  0.00  0.00    +0.000 NA
ATOM     12  H   UNL     1       3.276  14.668  22.463  0.00  0.00    +0.000 HD
ATOM     13  H   UNL     1       2.587  13.634  17.146  0.00  0.00    +0.000 HD
ENDROOT
BRANCH   1  19
ATOM     14  C   UNL     1      -0.321  10.188  18.064  0.00  0.00    +0.000 A 
ATOM     15  C   UNL     1      -1.421   9.705  17.312  0.00  0.00    +0.000 A 
ATOM     16  C   UNL     1      -2.577  10.462  17.116  0.00  0.00    +0.000 A 
ATOM     17  C   UNL     1      -2.651  11.742  17.630  0.00  0.00    +0.000 A 
ATOM     18  C   UNL     1      -1.551  12.270  18.304  0.00  0.00    +0.000 A 
ATOM     19  C   UNL     1      -0.366  11.525  18.555  0.00  0.00    +0.000 A 
BRANCH  14  21
ATOM     20  C   UNL     1       2.203   9.677  17.699  0.00  0.00    +0.000 C 
ATOM     21  C   UNL     1       0.850   9.244  18.247  0.00  0.00    +0.000 C 
ENDBRANCH  14  21
ENDBRANCH   1  19
BRANCH   2  22
ATOM     22  S   UNL     1      -0.248  10.785  21.691  0.00  0.00    +0.000 S 
BRANCH  22  23
ATOM     23  C   UNL     1       1.084   9.587  22.024  0.00  0.00    +0.000 C 
BRANCH  23  24
ATOM     24  C   UNL     1       0.846   8.183  21.466  0.00  0.00    +0.000 C 
ATOM     25  O   UNL     1      -0.312   7.781  21.344  0.00  0.00    +0.000 OA
ATOM     26  N   UNL     1       1.970   7.496  21.034  0.00  0.00    +0.000 N 
ATOM     27  H   UNL     1       2.865   7.850  21.352  0.00  0.00    +0.000 HD
BRANCH  26  28
ATOM     28  C   UNL     1       1.988   6.269  20.313  0.00  0.00    +0.000 A 
ATOM     29  C   UNL     1       1.439   5.080  20.791  0.00  0.00    +0.000 A 
ATOM     30  C   UNL     1       1.462   3.906  20.022  0.00  0.00    +0.000 A 
ATOM     31  C   UNL     1       2.042   3.898  18.746  0.00  0.00    +0.000 A 
ATOM     32  C   UNL     1       2.046   2.650  17.912  0.00  0.00    +0.000 C 
ATOM     33  C   UNL     1       2.602   5.083  18.268  0.00  0.00    +0.000 A 
ATOM     34  C   UNL     1       2.567   6.260  19.035  0.00  0.00    +0.000 A 
ENDBRANCH  26  28
ENDBRANCH  23  24
ENDBRANCH  22  23
ENDBRANCH   2  22
TORSDOF 6
ENDMDL
