MODEL 1
REMARK VINA RESULT:      -7.2      0.000      0.000
REMARK  Name = 
REMARK  14 active torsions:
REMARK  status: ('A' for Active; 'I' for Inactive)
REMARK    1  A    between atoms: C_1  and  O_2
REMARK    2  A    between atoms: O_2  and  C_3
REMARK    3  A    between atoms: C_6  and  C_7
REMARK    4  A    between atoms: C_7  and  C_8
REMARK    5  A    between atoms: C_7  and  N_22
REMARK    6  A    between atoms: C_8  and  C_9
REMARK    7  A    between atoms: C_9  and  C_10
REMARK    8  A    between atoms: C_12  and  O_13
REMARK    9  A    between atoms: O_13  and  C_14
REMARK   10  A    between atoms: C_15  and  O_16
REMARK   11  A    between atoms: O_16  and  C_17
REMARK   12  A    between atoms: C_18  and  O_19
REMARK   13  A    between atoms: O_19  and  C_20
REMARK   14  A    between atoms: C_23  and  C_24
REMARK                            x       y       z     vdW  Elec       q    Type
REMARK                         _______ _______ _______ _____ _____    ______ ____
ROOT
ATOM      1  C   UNL     1       3.368   6.965  17.642  0.00  0.00    +0.000 C 
ENDROOT
BRANCH   1   5
ATOM      2  C   UNL     1       1.430   3.758  19.845  0.00  0.00    +0.000 A 
ATOM      3  C   UNL     1       2.096   4.790  20.507  0.00  0.00    +0.000 A 
ATOM      4  C   UNL     1       2.662   5.849  19.792  0.00  0.00    +0.000 A 
ATOM      5  C   UNL     1       2.602   5.881  18.391  0.00  0.00    +0.000 A 
ATOM      6  C   UNL     1       1.880   4.867  17.741  0.00  0.00    +0.000 A 
ATOM      7  C   UNL     1       1.311   3.808  18.458  0.00  0.00    +0.000 A 
BRANCH   2   9
ATOM      8  C   UNL     1       1.561   2.662  21.943  0.00  0.00    +0.000 C 
ATOM      9  O   UNL     1       0.983   2.744  20.646  0.00  0.00    +0.000 OA
ENDBRANCH   2   9
ENDBRANCH   1   5
BRANCH   1  10
ATOM     10  N   UNL     1       4.795   6.850  17.889  0.00  0.00    +0.000 N 
ATOM     11  C   UNL     1       5.708   6.794  16.861  0.00  0.00    +0.000 C 
ATOM     12  C   UNL     1       7.146   6.789  17.301  0.00  0.00    +0.000 C 
ATOM     13  O   UNL     1       5.398   6.757  15.675  0.00  0.00    +0.000 OA
ATOM     14  H   UNL     1       5.118   6.908  18.845  0.00  0.00    +0.000 HD
ENDBRANCH   1  10
BRANCH   1  15
ATOM     15  C   UNL     1       2.866   8.378  17.989  0.00  0.00    +0.000 C 
BRANCH  15  16
ATOM     16  C   UNL     1       1.386   8.602  17.673  0.00  0.00    +0.000 C 
BRANCH  16  17
ATOM     17  C   UNL     1       0.647   9.499  18.645  0.00  0.00    +0.000 A 
ATOM     18  C   UNL     1      -0.356  10.393  18.266  0.00  0.00    +0.000 A 
ATOM     19  C   UNL     1      -1.004  11.196  19.210  0.00  0.00    +0.000 A 
ATOM     20  C   UNL     1      -0.624  11.147  20.567  0.00  0.00    +0.000 A 
ATOM     21  C   UNL     1       0.399  10.254  20.965  0.00  0.00    +0.000 A 
ATOM     22  C   UNL     1       1.000   9.432  20.000  0.00  0.00    +0.000 A 
BRANCH  19  23
ATOM     23  O   UNL     1      -2.009  12.078  18.867  0.00  0.00    +0.000 OA
ATOM     24  C   UNL     1      -3.110  11.529  18.155  0.00  0.00    +0.000 C 
ENDBRANCH  19  23
BRANCH  20  25
ATOM     25  O   UNL     1      -1.262  12.051  21.379  0.00  0.00    +0.000 OA
ATOM     26  C   UNL     1      -0.555  13.222  21.751  0.00  0.00    +0.000 C 
ENDBRANCH  20  25
BRANCH  21  27
ATOM     27  O   UNL     1       0.780  10.248  22.281  0.00  0.00    +0.000 OA
ATOM     28  C   UNL     1       0.014   9.471  23.193  0.00  0.00    +0.000 C 
ENDBRANCH  21  27
ENDBRANCH  16  17
ENDBRANCH  15  16
ENDBRANCH   1  15
TORSDOF 9
ENDMDL
MODEL 2
REMARK VINA RESULT:      -6.9      2.171      7.776
REMARK  Name = 
REMARK  14 active torsions:
REMARK  status: ('A' for Active; 'I' for Inactive)
REMARK    1  A    between atoms: C_1  and  O_2
REMARK    2  A    between atoms: O_2  and  C_3
REMARK    3  A    between atoms: C_6  and  C_7
REMARK    4  A    between atoms: C_7  and  C_8
REMARK    5  A    between atoms: C_7  and  N_22
REMARK    6  A    between atoms: C_8  and  C_9
REMARK    7  A    between atoms: C_9  and  C_10
REMARK    8  A    between atoms: C_12  and  O_13
REMARK    9  A    between atoms: O_13  and  C_14
REMARK   10  A    between atoms: C_15  and  O_16
REMARK   11  A    between atoms: O_16  and  C_17
REMARK   12  A    between atoms: C_18  and  O_19
REMARK   13  A    between atoms: O_19  and  C_20
REMARK   14  A    between atoms: C_23  and  C_24
REMARK                            x       y       z     vdW  Elec       q    Type
REMARK                         _______ _______ _______ _____ _____    ______ ____
ROOT
ATOM      1  C   UNL     1       0.184   9.615  19.472  0.00  0.00    +0.000 C 
ENDROOT
BRANCH   1   5
ATOM      2  C   UNL     1      -3.330  11.344  17.588  0.00  0.00    +0.000 A 
ATOM      3  C   UNL     1      -2.876  11.800  18.825  0.00  0.00    +0.000 A 
ATOM      4  C   UNL     1      -1.709  11.280  19.394  0.00  0.00    +0.000 A 
ATOM      5  C   UNL     1      -0.988  10.266  18.748  0.00  0.00    +0.000 A 
ATOM      6  C   UNL     1      -1.424   9.856  17.477  0.00  0.00    +0.000 A 
ATOM      7  C   UNL     1      -2.591  10.379  16.907  0.00  0.00    +0.000 A 
BRANCH   2   9
ATOM      8  C   UNL     1      -5.460  12.195  18.189  0.00  0.00    +0.000 C 
ATOM      9  O   UNL     1      -4.519  11.875  17.171  0.00  0.00    +0.000 OA
ENDBRANCH   2   9
ENDBRANCH   1   5
BRANCH   1  10
ATOM     10  N   UNL     1       0.200  10.000  20.873  0.00  0.00    +0.000 N 
ATOM     11  C   UNL     1      -0.228   9.148  21.865  0.00  0.00    +0.000 C 
ATOM     12  C   UNL     1      -0.036   9.670  23.263  0.00  0.00    +0.000 C 
ATOM     13  O   UNL     1      -0.725   8.048  21.652  0.00  0.00    +0.000 OA
ATOM     14  H   UNL     1       0.627  10.883  21.119  0.00  0.00    +0.000 HD
ENDBRANCH   1  10
BRANCH   1  15
ATOM     15  C   UNL     1       1.533   9.935  18.803  0.00  0.00    +0.000 C 
BRANCH  15  16
ATOM     16  C   UNL     1       1.921   8.951  17.697  0.00  0.00    +0.000 C 
BRANCH  16  17
ATOM     17  C   UNL     1       2.697   7.735  18.159  0.00  0.00    +0.000 A 
ATOM     18  C   UNL     1       3.843   7.258  17.520  0.00  0.00    +0.000 A 
ATOM     19  C   UNL     1       4.519   6.129  17.994  0.00  0.00    +0.000 A 
ATOM     20  C   UNL     1       4.026   5.421  19.110  0.00  0.00    +0.000 A 
ATOM     21  C   UNL     1       2.859   5.886  19.761  0.00  0.00    +0.000 A 
ATOM     22  C   UNL     1       2.229   7.046  19.286  0.00  0.00    +0.000 A 
BRANCH  19  23
ATOM     23  O   UNL     1       5.662   5.644  17.393  0.00  0.00    +0.000 OA
ATOM     24  C   UNL     1       6.833   6.436  17.538  0.00  0.00    +0.000 C 
ENDBRANCH  19  23
BRANCH  20  25
ATOM     25  O   UNL     1       4.717   4.276  19.419  0.00  0.00    +0.000 OA
ATOM     26  C   UNL     1       4.220   3.047  18.918  0.00  0.00    +0.000 C 
ENDBRANCH  20  25
BRANCH  21  27
ATOM     27  O   UNL     1       2.375   5.164  20.820  0.00  0.00    +0.000 OA
ATOM     28  C   UNL     1       1.232   4.347  20.603  0.00  0.00    +0.000 C 
ENDBRANCH  21  27
ENDBRANCH  16  17
ENDBRANCH  15  16
ENDBRANCH   1  15
TORSDOF 9
ENDMDL
MODEL 3
REMARK VINA RESULT:      -6.9      0.822      2.339
REMARK  Name = 
REMARK  14 active torsions:
REMARK  status: ('A' for Active; 'I' for Inactive)
REMARK    1  A    between atoms: C_1  and  O_2
REMARK    2  A    between atoms: O_2  and  C_3
REMARK    3  A    between atoms: C_6  and  C_7
REMARK    4  A    between atoms: C_7  and  C_8
REMARK    5  A    between atoms: C_7  and  N_22
REMARK    6  A    between atoms: C_8  and  C_9
REMARK    7  A    between atoms: C_9  and  C_10
REMARK    8  A    between atoms: C_12  and  O_13
REMARK    9  A    between atoms: O_13  and  C_14
REMARK   10  A    between atoms: C_15  and  O_16
REMARK   11  A    between atoms: O_16  and  C_17
REMARK   12  A    between atoms: C_18  and  O_19
REMARK   13  A    between atoms: O_19  and  C_20
REMARK   14  A    between atoms: C_23  and  C_24
REMARK                            x       y       z     vdW  Elec       q    Type
REMARK                         _______ _______ _______ _____ _____    ______ ____
ROOT
ATOM      1  C   UNL     1       3.262   7.061  17.683  0.00  0.00    +0.000 C 
ENDROOT
BRANCH   1   5
ATOM      2  C   UNL     1       1.276   3.885  19.888  0.00  0.00    +0.000 A 
ATOM      3  C   UNL     1       1.766   5.018  20.538  0.00  0.00    +0.000 A 
ATOM      4  C   UNL     1       2.348   6.062  19.811  0.00  0.00    +0.000 A 
ATOM      5  C   UNL     1       2.481   5.979  18.418  0.00  0.00    +0.000 A 
ATOM      6  C   UNL     1       1.932   4.859  17.772  0.00  0.00    +0.000 A 
ATOM      7  C   UNL     1       1.348   3.816  18.499  0.00  0.00    +0.000 A 
BRANCH   2   9
ATOM      8  C   UNL     1       1.608   2.566  21.830  0.00  0.00    +0.000 C 
ATOM      9  O   UNL     1       0.797   2.903  20.710  0.00  0.00    +0.000 OA
ENDBRANCH   2   9
ENDBRANCH   1   5
BRANCH   1  10
ATOM     10  N   UNL     1       4.693   6.846  17.821  0.00  0.00    +0.000 N 
ATOM     11  C   UNL     1       5.519   6.739  16.726  0.00  0.00    +0.000 C 
ATOM     12  C   UNL     1       6.983   6.631  17.056  0.00  0.00    +0.000 C 
ATOM     13  O   UNL     1       5.118   6.735  15.567  0.00  0.00    +0.000 OA
ATOM     14  H   UNL     1       5.090   6.871  18.750  0.00  0.00    +0.000 HD
ENDBRANCH   1  10
BRANCH   1  15
ATOM     15  C   UNL     1       2.876   8.477  18.150  0.00  0.00    +0.000 C 
BRANCH  15  16
ATOM     16  C   UNL     1       1.455   8.889  17.758  0.00  0.00    +0.000 C 
BRANCH  16  17
ATOM     17  C   UNL     1       0.710   9.702  18.796  0.00  0.00    +0.000 A 
ATOM     18  C   UNL     1       0.415   9.237  20.079  0.00  0.00    +0.000 A 
ATOM     19  C   UNL     1      -0.276  10.035  20.996  0.00  0.00    +0.000 A 
ATOM     20  C   UNL     1      -0.727  11.319  20.625  0.00  0.00    +0.000 A 
ATOM     21  C   UNL     1      -0.445  11.800  19.325  0.00  0.00    +0.000 A 
ATOM     22  C   UNL     1       0.286  10.991  18.443  0.00  0.00    +0.000 A 
BRANCH  19  23
ATOM     23  O   UNL     1      -0.570   9.608  22.276  0.00  0.00    +0.000 OA
ATOM     24  C   UNL     1       0.541   9.394  23.137  0.00  0.00    +0.000 C 
ENDBRANCH  19  23
BRANCH  20  25
ATOM     25  O   UNL     1      -1.478  11.965  21.576  0.00  0.00    +0.000 OA
ATOM     26  C   UNL     1      -0.831  12.934  22.385  0.00  0.00    +0.000 C 
ENDBRANCH  20  25
BRANCH  21  27
ATOM     27  O   UNL     1      -0.923  13.034  18.971  0.00  0.00    +0.000 OA
ATOM     28  C   UNL     1       0.012  14.094  18.824  0.00  0.00    +0.000 C 
ENDBRANCH  21  27
ENDBRANCH  16  17
ENDBRANCH  15  16
ENDBRANCH   1  15
TORSDOF 9
ENDMDL
MODEL 4
REMARK VINA RESULT:      -6.9      2.379      7.970
REMARK  Name = 
REMARK  14 active torsions:
REMARK  status: ('A' for Active; 'I' for Inactive)
REMARK    1  A    between atoms: C_1  and  O_2
REMARK    2  A    between atoms: O_2  and  C_3
REMARK    3  A    between atoms: C_6  and  C_7
REMARK    4  A    between atoms: C_7  and  C_8
REMARK    5  A    between atoms: C_7  and  N_22
REMARK    6  A    between atoms: C_8  and  C_9
REMARK    7  A    between atoms: C_9  and  C_10
REMARK    8  A    between atoms: C_12  and  O_13
REMARK    9  A    between atoms: O_13  and  C_14
REMARK   10  A    between atoms: C_15  and  O_16
REMARK   11  A    between atoms: O_16  and  C_17
REMARK   12  A    between atoms: C_18  and  O_19
REMARK   13  A    between atoms: O_19  and  C_20
REMARK   14  A    between atoms: C_23  and  C_24
REMARK                            x       y       z     vdW  Elec       q    Type
REMARK                         _______ _______ _______ _____ _____    ______ ____
ROOT
ATOM      1  C   UNL     1       0.507  10.250  18.459  0.00  0.00    +0.000 C 
ENDROOT
BRANCH   1   5
ATOM      2  C   UNL     1      -3.640  11.019  17.408  0.00  0.00    +0.000 A 
ATOM      3  C   UNL     1      -2.888  10.060  16.728  0.00  0.00    +0.000 A 
ATOM      4  C   UNL     1      -1.575   9.776  17.115  0.00  0.00    +0.000 A 
ATOM      5  C   UNL     1      -0.973  10.473  18.173  0.00  0.00    +0.000 A 
ATOM      6  C   UNL     1      -1.759  11.395  18.884  0.00  0.00    +0.000 A 
ATOM      7  C   UNL     1      -3.075  11.676  18.498  0.00  0.00    +0.000 A 
BRANCH   2   9
ATOM      8  C   UNL     1      -5.801  11.933  17.744  0.00  0.00    +0.000 C 
ATOM      9  O   UNL     1      -4.883  11.259  16.892  0.00  0.00    +0.000 OA
ENDBRANCH   2   9
ENDBRANCH   1   5
BRANCH   1  10
ATOM     10  N   UNL     1       1.291  11.400  18.041  0.00  0.00    +0.000 N 
ATOM     11  C   UNL     1       1.773  12.317  18.947  0.00  0.00    +0.000 C 
ATOM     12  C   UNL     1       2.657  13.379  18.350  0.00  0.00    +0.000 C 
ATOM     13  O   UNL     1       1.521  12.288  20.146  0.00  0.00    +0.000 OA
ATOM     14  H   UNL     1       1.560  11.464  17.069  0.00  0.00    +0.000 HD
ENDBRANCH   1  10
BRANCH   1  15
ATOM     15  C   UNL     1       1.038   8.961  17.806  0.00  0.00    +0.000 C 
BRANCH  15  16
ATOM     16  C   UNL     1       2.535   8.730  18.024  0.00  0.00    +0.000 C 
BRANCH  16  17
ATOM     17  C   UNL     1       2.937   7.289  18.263  0.00  0.00    +0.000 A 
ATOM     18  C   UNL     1       2.540   6.549  19.379  0.00  0.00    +0.000 A 
ATOM     19  C   UNL     1       2.943   5.220  19.545  0.00  0.00    +0.000 A 
ATOM     20  C   UNL     1       3.799   4.612  18.602  0.00  0.00    +0.000 A 
ATOM     21  C   UNL     1       4.218   5.353  17.473  0.00  0.00    +0.000 A 
ATOM     22  C   UNL     1       3.762   6.671  17.314  0.00  0.00    +0.000 A 
BRANCH  19  23
ATOM     23  O   UNL     1       2.555   4.458  20.629  0.00  0.00    +0.000 OA
ATOM     24  C   UNL     1       1.197   4.039  20.647  0.00  0.00    +0.000 C 
ENDBRANCH  19  23
BRANCH  20  25
ATOM     25  O   UNL     1       4.204   3.341  18.925  0.00  0.00    +0.000 OA
ATOM     26  C   UNL     1       3.574   2.257  18.262  0.00  0.00    +0.000 C 
ENDBRANCH  20  25
BRANCH  21  27
ATOM     27  O   UNL     1       5.079   4.758  16.588  0.00  0.00    +0.000 OA
ATOM     28  C   UNL     1       6.473   4.957  16.779  0.00  0.00    +0.000 C 
ENDBRANCH  21  27
ENDBRANCH  16  17
ENDBRANCH  15  16
ENDBRANCH   1  15
TORSDOF 9
ENDMDL
MODEL 5
REMARK VINA RESULT:      -6.9      1.564      1.764
REMARK  Name = 
REMARK  14 active torsions:
REMARK  status: ('A' for Active; 'I' for Inactive)
REMARK    1  A    between atoms: C_1  and  O_2
REMARK    2  A    between atoms: O_2  and  C_3
REMARK    3  A    between atoms: C_6  and  C_7
REMARK    4  A    between atoms: C_7  and  C_8
REMARK    5  A    between atoms: C_7  and  N_22
REMARK    6  A    between atoms: C_8  and  C_9
REMARK    7  A    between atoms: C_9  and  C_10
REMARK    8  A    between atoms: C_12  and  O_13
REMARK    9  A    between atoms: O_13  and  C_14
REMARK   10  A    between atoms: C_15  and  O_16
REMARK   11  A    between atoms: O_16  and  C_17
REMARK   12  A    between atoms: C_18  and  O_19
REMARK   13  A    between atoms: O_19  and  C_20
REMARK   14  A    between atoms: C_23  and  C_24
REMARK                            x       y       z     vdW  Elec       q    Type
REMARK                         _______ _______ _______ _____ _____    ______ ____
ROOT
ATOM      1  C   UNL     1       3.551   6.653  17.406  0.00  0.00    +0.000 C 
ENDROOT
BRANCH   1   5
ATOM      2  C   UNL     1       1.465   3.930  20.075  0.00  0.00    +0.000 A 
ATOM      3  C   UNL     1       2.264   4.959  20.573  0.00  0.00    +0.000 A 
ATOM      4  C   UNL     1       2.881   5.867  19.707  0.00  0.00    +0.000 A 
ATOM      5  C   UNL     1       2.736   5.744  18.318  0.00  0.00    +0.000 A 
ATOM      6  C   UNL     1       1.883   4.740  17.833  0.00  0.00    +0.000 A 
ATOM      7  C   UNL     1       1.263   3.832  18.701  0.00  0.00    +0.000 A 
BRANCH   2   9
ATOM      8  C   UNL     1       1.933   2.468  21.881  0.00  0.00    +0.000 C 
ATOM      9  O   UNL     1       0.976   3.065  21.014  0.00  0.00    +0.000 OA
ENDBRANCH   2   9
ENDBRANCH   1   5
BRANCH   1  10
ATOM     10  N   UNL     1       4.972   6.384  17.548  0.00  0.00    +0.000 N 
ATOM     11  C   UNL     1       5.627   5.493  16.730  0.00  0.00    +0.000 C 
ATOM     12  C   UNL     1       7.115   5.424  16.947  0.00  0.00    +0.000 C 
ATOM     13  O   UNL     1       5.068   4.805  15.883  0.00  0.00    +0.000 OA
ATOM     14  H   UNL     1       5.497   6.942  18.207  0.00  0.00    +0.000 HD
ENDBRANCH   1  10
BRANCH   1  15
ATOM     15  C   UNL     1       3.250   8.143  17.648  0.00  0.00    +0.000 C 
BRANCH  15  16
ATOM     16  C   UNL     1       1.772   8.439  17.913  0.00  0.00    +0.000 C 
BRANCH  16  17
ATOM     17  C   UNL     1       1.504   9.619  18.825  0.00  0.00    +0.000 A 
ATOM     18  C   UNL     1       1.654  10.951  18.433  0.00  0.00    +0.000 A 
ATOM     19  C   UNL     1       1.390  11.999  19.320  0.00  0.00    +0.000 A 
ATOM     20  C   UNL     1       1.006  11.728  20.650  0.00  0.00    +0.000 A 
ATOM     21  C   UNL     1       0.862  10.383  21.065  0.00  0.00    +0.000 A 
ATOM     22  C   UNL     1       1.093   9.355  20.139  0.00  0.00    +0.000 A 
BRANCH  19  23
ATOM     23  O   UNL     1       1.514  13.325  18.957  0.00  0.00    +0.000 OA
ATOM     24  C   UNL     1       2.792  13.730  18.486  0.00  0.00    +0.000 C 
ENDBRANCH  19  23
BRANCH  20  25
ATOM     25  O   UNL     1       0.873  12.835  21.450  0.00  0.00    +0.000 OA
ATOM     26  C   UNL     1      -0.439  13.287  21.742  0.00  0.00    +0.000 C 
ENDBRANCH  20  25
BRANCH  21  27
ATOM     27  O   UNL     1       0.524  10.139  22.370  0.00  0.00    +0.000 OA
ATOM     28  C   UNL     1      -0.471   9.157  22.628  0.00  0.00    +0.000 C 
ENDBRANCH  21  27
ENDBRANCH  16  17
ENDBRANCH  15  16
ENDBRANCH   1  15
TORSDOF 9
ENDMDL
MODEL 6
REMARK VINA RESULT:      -6.8      1.440      2.375
REMARK  Name = 
REMARK  14 active torsions:
REMARK  status: ('A' for Active; 'I' for Inactive)
REMARK    1  A    between atoms: C_1  and  O_2
REMARK    2  A    between atoms: O_2  and  C_3
REMARK    3  A    between atoms: C_6  and  C_7
REMARK    4  A    between atoms: C_7  and  C_8
REMARK    5  A    between atoms: C_7  and  N_22
REMARK    6  A    between atoms: C_8  and  C_9
REMARK    7  A    between atoms: C_9  and  C_10
REMARK    8  A    between atoms: C_12  and  O_13
REMARK    9  A    between atoms: O_13  and  C_14
REMARK   10  A    between atoms: C_15  and  O_16
REMARK   11  A    between atoms: O_16  and  C_17
REMARK   12  A    between atoms: C_18  and  O_19
REMARK   13  A    between atoms: O_19  and  C_20
REMARK   14  A    between atoms: C_23  and  C_24
REMARK                            x       y       z     vdW  Elec       q    Type
REMARK                         _______ _______ _______ _____ _____    ______ ____
ROOT
ATOM      1  C   UNL     1       3.317   6.642  17.519  0.00  0.00    +0.000 C 
ENDROOT
BRANCH   1   5
ATOM      2  C   UNL     1       1.199   3.797  20.031  0.00  0.00    +0.000 A 
ATOM      3  C   UNL     1       1.758   4.957  20.567  0.00  0.00    +0.000 A 
ATOM      4  C   UNL     1       2.383   5.896  19.740  0.00  0.00    +0.000 A 
ATOM      5  C   UNL     1       2.490   5.677  18.360  0.00  0.00    +0.000 A 
ATOM      6  C   UNL     1       1.874   4.533  17.826  0.00  0.00    +0.000 A 
ATOM      7  C   UNL     1       1.246   3.595  18.654  0.00  0.00    +0.000 A 
BRANCH   2   9
ATOM      8  C   UNL     1       1.578   2.447  21.943  0.00  0.00    +0.000 C 
ATOM      9  O   UNL     1       0.681   2.923  20.946  0.00  0.00    +0.000 OA
ENDBRANCH   2   9
ENDBRANCH   1   5
BRANCH   1  10
ATOM     10  N   UNL     1       4.720   6.265  17.534  0.00  0.00    +0.000 N 
ATOM     11  C   UNL     1       5.528   6.433  16.433  0.00  0.00    +0.000 C 
ATOM     12  C   UNL     1       6.976   6.094  16.663  0.00  0.00    +0.000 C 
ATOM     13  O   UNL     1       5.125   6.829  15.345  0.00  0.00    +0.000 OA
ATOM     14  H   UNL     1       5.122   5.962  18.411  0.00  0.00    +0.000 HD
ENDBRANCH   1  10
BRANCH   1  15
ATOM     15  C   UNL     1       3.140   8.104  17.968  0.00  0.00    +0.000 C 
BRANCH  15  16
ATOM     16  C   UNL     1       1.728   8.652  17.742  0.00  0.00    +0.000 C 
BRANCH  16  17
ATOM     17  C   UNL     1       1.322   9.787  18.660  0.00  0.00    +0.000 A 
ATOM     18  C   UNL     1       0.681   9.600  19.886  0.00  0.00    +0.000 A 
ATOM     19  C   UNL     1       0.331  10.688  20.691  0.00  0.00    +0.000 A 
ATOM     20  C   UNL     1       0.584  12.006  20.257  0.00  0.00    +0.000 A 
ATOM     21  C   UNL     1       1.223  12.212  19.012  0.00  0.00    +0.000 A 
ATOM     22  C   UNL     1       1.599  11.097  18.247  0.00  0.00    +0.000 A 
BRANCH  19  23
ATOM     23  O   UNL     1      -0.291  10.535  21.914  0.00  0.00    +0.000 OA
ATOM     24  C   UNL     1      -0.239   9.235  22.486  0.00  0.00    +0.000 C 
ENDBRANCH  19  23
BRANCH  20  25
ATOM     25  O   UNL     1       0.106  12.990  21.087  0.00  0.00    +0.000 OA
ATOM     26  C   UNL     1      -1.130  13.598  20.751  0.00  0.00    +0.000 C 
ENDBRANCH  20  25
BRANCH  21  27
ATOM     27  O   UNL     1       1.427  13.499  18.591  0.00  0.00    +0.000 OA
ATOM     28  C   UNL     1       2.694  14.092  18.847  0.00  0.00    +0.000 C 
ENDBRANCH  21  27
ENDBRANCH  16  17
ENDBRANCH  15  16
ENDBRANCH   1  15
TORSDOF 9
ENDMDL
MODEL 7
REMARK VINA RESULT:      -6.7      1.749      4.099
REMARK  Name = 
REMARK  14 active torsions:
REMARK  status: ('A' for Active; 'I' for Inactive)
REMARK    1  A    between atoms: C_1  and  O_2
REMARK    2  A    between atoms: O_2  and  C_3
REMARK    3  A    between atoms: C_6  and  C_7
REMARK    4  A    between atoms: C_7  and  C_8
REMARK    5  A    between atoms: C_7  and  N_22
REMARK    6  A    between atoms: C_8  and  C_9
REMARK    7  A    between atoms: C_9  and  C_10
REMARK    8  A    between atoms: C_12  and  O_13
REMARK    9  A    between atoms: O_13  and  C_14
REMARK   10  A    between atoms: C_15  and  O_16
REMARK   11  A    between atoms: O_16  and  C_17
REMARK   12  A    between atoms: C_18  and  O_19
REMARK   13  A    between atoms: O_19  and  C_20
REMARK   14  A    between atoms: C_23  and  C_24
REMARK                            x       y       z     vdW  Elec       q    Type
REMARK                         _______ _______ _______ _____ _____    ______ ____
ROOT
ATOM      1  C   UNL     1       2.902   6.027  18.512  0.00  0.00    +0.000 C 
ENDROOT
BRANCH   1   5
ATOM      2  C   UNL     1       6.366   4.944  16.120  0.00  0.00    +0.000 A 
ATOM      3  C   UNL     1       6.368   6.088  16.918  0.00  0.00    +0.000 A 
ATOM      4  C   UNL     1       5.272   6.394  17.731  0.00  0.00    +0.000 A 
ATOM      5  C   UNL     1       4.134   5.575  17.738  0.00  0.00    +0.000 A 
ATOM      6  C   UNL     1       4.167   4.397  16.974  0.00  0.00    +0.000 A 
ATOM      7  C   UNL     1       5.266   4.090  16.162  0.00  0.00    +0.000 A 
BRANCH   2   9
ATOM      8  C   UNL     1       7.217   4.765  13.915  0.00  0.00    +0.000 C 
ATOM      9  O   UNL     1       7.461   4.791  15.316  0.00  0.00    +0.000 OA
ENDBRANCH   2   9
ENDBRANCH   1   5
BRANCH   1  10
ATOM     10  N   UNL     1       2.041   4.896  18.814  0.00  0.00    +0.000 N 
ATOM     11  C   UNL     1       1.869   4.438  20.100  0.00  0.00    +0.000 C 
ATOM     12  C   UNL     1       0.857   3.333  20.240  0.00  0.00    +0.000 C 
ATOM     13  O   UNL     1       2.477   4.882  21.069  0.00  0.00    +0.000 OA
ATOM     14  H   UNL     1       1.487   4.507  18.064  0.00  0.00    +0.000 HD
ENDBRANCH   1  10
BRANCH   1  15
ATOM     15  C   UNL     1       2.119   7.126  17.770  0.00  0.00    +0.000 C 
BRANCH  15  16
ATOM     16  C   UNL     1       2.454   8.545  18.238  0.00  0.00    +0.000 C 
BRANCH  16  17
ATOM     17  C   UNL     1       1.284   9.337  18.784  0.00  0.00    +0.000 A 
ATOM     18  C   UNL     1       0.216   9.781  18.001  0.00  0.00    +0.000 A 
ATOM     19  C   UNL     1      -0.838  10.509  18.563  0.00  0.00    +0.000 A 
ATOM     20  C   UNL     1      -0.821  10.846  19.932  0.00  0.00    +0.000 A 
ATOM     21  C   UNL     1       0.260  10.412  20.736  0.00  0.00    +0.000 A 
ATOM     22  C   UNL     1       1.281   9.648  20.151  0.00  0.00    +0.000 A 
BRANCH  19  23
ATOM     23  O   UNL     1      -1.913  10.948  17.817  0.00  0.00    +0.000 OA
ATOM     24  C   UNL     1      -2.567   9.970  17.021  0.00  0.00    +0.000 C 
ENDBRANCH  19  23
BRANCH  20  25
ATOM     25  O   UNL     1      -1.858  11.645  20.344  0.00  0.00    +0.000 OA
ATOM     26  C   UNL     1      -1.626  13.041  20.429  0.00  0.00    +0.000 C 
ENDBRANCH  20  25
BRANCH  21  27
ATOM     27  O   UNL     1       0.277  10.780  22.055  0.00  0.00    +0.000 OA
ATOM     28  C   UNL     1      -0.285   9.884  23.005  0.00  0.00    +0.000 C 
ENDBRANCH  21  27
ENDBRANCH  16  17
ENDBRANCH  15  16
ENDBRANCH   1  15
TORSDOF 9
ENDMDL
MODEL 8
REMARK VINA RESULT:      -6.7      1.598      2.477
REMARK  Name = 
REMARK  14 active torsions:
REMARK  status: ('A' for Active; 'I' for Inactive)
REMARK    1  A    between atoms: C_1  and  O_2
REMARK    2  A    between atoms: O_2  and  C_3
REMARK    3  A    between atoms: C_6  and  C_7
REMARK    4  A    between atoms: C_7  and  C_8
REMARK    5  A    between atoms: C_7  and  N_22
REMARK    6  A    between atoms: C_8  and  C_9
REMARK    7  A    between atoms: C_9  and  C_10
REMARK    8  A    between atoms: C_12  and  O_13
REMARK    9  A    between atoms: O_13  and  C_14
REMARK   10  A    between atoms: C_15  and  O_16
REMARK   11  A    between atoms: O_16  and  C_17
REMARK   12  A    between atoms: C_18  and  O_19
REMARK   13  A    between atoms: O_19  and  C_20
REMARK   14  A    between atoms: C_23  and  C_24
REMARK                            x       y       z     vdW  Elec       q    Type
REMARK                         _______ _______ _______ _____ _____    ______ ____
ROOT
ATOM      1  C   UNL     1       3.498   6.829  17.566  0.00  0.00    +0.000 C 
ENDROOT
BRANCH   1   5
ATOM      2  C   UNL     1       1.584   3.609  19.770  0.00  0.00    +0.000 A 
ATOM      3  C   UNL     1       2.300   4.609  20.428  0.00  0.00    +0.000 A 
ATOM      4  C   UNL     1       2.859   5.674  19.716  0.00  0.00    +0.000 A 
ATOM      5  C   UNL     1       2.740   5.743  18.320  0.00  0.00    +0.000 A 
ATOM      6  C   UNL     1       1.969   4.761  17.677  0.00  0.00    +0.000 A 
ATOM      7  C   UNL     1       1.407   3.696  18.391  0.00  0.00    +0.000 A 
BRANCH   2   9
ATOM      8  C   UNL     1       1.603   2.593  21.912  0.00  0.00    +0.000 C 
ATOM      9  O   UNL     1       1.149   2.584  20.564  0.00  0.00    +0.000 OA
ENDBRANCH   2   9
ENDBRANCH   1   5
BRANCH   1  10
ATOM     10  N   UNL     1       4.921   6.755  17.851  0.00  0.00    +0.000 N 
ATOM     11  C   UNL     1       5.859   6.692  16.846  0.00  0.00    +0.000 C 
ATOM     12  C   UNL     1       7.286   6.735  17.321  0.00  0.00    +0.000 C 
ATOM     13  O   UNL     1       5.579   6.612  15.655  0.00  0.00    +0.000 OA
ATOM     14  H   UNL     1       5.219   6.849  18.812  0.00  0.00    +0.000 HD
ENDBRANCH   1  10
BRANCH   1  15
ATOM     15  C   UNL     1       2.952   8.237  17.869  0.00  0.00    +0.000 C 
BRANCH  15  16
ATOM     16  C   UNL     1       1.429   8.344  17.762  0.00  0.00    +0.000 C 
BRANCH  16  17
ATOM     17  C   UNL     1       0.850   9.690  18.146  0.00  0.00    +0.000 A 
ATOM     18  C   UNL     1       1.624  10.786  18.532  0.00  0.00    +0.000 A 
ATOM     19  C   UNL     1       1.031  12.005  18.875  0.00  0.00    +0.000 A 
ATOM     20  C   UNL     1      -0.373  12.139  18.878  0.00  0.00    +0.000 A 
ATOM     21  C   UNL     1      -1.171  11.034  18.500  0.00  0.00    +0.000 A 
ATOM     22  C   UNL     1      -0.544   9.837  18.121  0.00  0.00    +0.000 A 
BRANCH  19  23
ATOM     23  O   UNL     1       1.771  13.110  19.246  0.00  0.00    +0.000 OA
ATOM     24  C   UNL     1       2.767  13.536  18.327  0.00  0.00    +0.000 C 
ENDBRANCH  19  23
BRANCH  20  25
ATOM     25  O   UNL     1      -0.838  13.350  19.327  0.00  0.00    +0.000 OA
ATOM     26  C   UNL     1      -1.302  13.426  20.664  0.00  0.00    +0.000 C 
ENDBRANCH  20  25
BRANCH  21  27
ATOM     27  O   UNL     1      -2.534  11.171  18.544  0.00  0.00    +0.000 OA
ATOM     28  C   UNL     1      -3.215  11.447  17.328  0.00  0.00    +0.000 C 
ENDBRANCH  21  27
ENDBRANCH  16  17
ENDBRANCH  15  16
ENDBRANCH   1  15
TORSDOF 9
ENDMDL
MODEL 9
REMARK VINA RESULT:      -6.7      2.409      7.837
REMARK  Name = 
REMARK  14 active torsions:
REMARK  status: ('A' for Active; 'I' for Inactive)
REMARK    1  A    between atoms: C_1  and  O_2
REMARK    2  A    between atoms: O_2  and  C_3
REMARK    3  A    between atoms: C_6  and  C_7
REMARK    4  A    between atoms: C_7  and  C_8
REMARK    5  A    between atoms: C_7  and  N_22
REMARK    6  A    between atoms: C_8  and  C_9
REMARK    7  A    between atoms: C_9  and  C_10
REMARK    8  A    between atoms: C_12  and  O_13
REMARK    9  A    between atoms: O_13  and  C_14
REMARK   10  A    between atoms: C_15  and  O_16
REMARK   11  A    between atoms: O_16  and  C_17
REMARK   12  A    between atoms: C_18  and  O_19
REMARK   13  A    between atoms: O_19  and  C_20
REMARK   14  A    between atoms: C_23  and  C_24
REMARK                            x       y       z     vdW  Elec       q    Type
REMARK                         _______ _______ _______ _____ _____    ______ ____
ROOT
ATOM      1  C   UNL     1       0.328  10.763  19.110  0.00  0.00    +0.000 C 
ENDROOT
BRANCH   1   5
ATOM      2  C   UNL     1      -3.710  10.869  17.505  0.00  0.00    +0.000 A 
ATOM      3  C   UNL     1      -3.304  11.759  18.500  0.00  0.00    +0.000 A 
ATOM      4  C   UNL     1      -1.985  11.758  18.964  0.00  0.00    +0.000 A 
ATOM      5  C   UNL     1      -1.051  10.839  18.465  0.00  0.00    +0.000 A 
ATOM      6  C   UNL     1      -1.457   9.988  17.425  0.00  0.00    +0.000 A 
ATOM      7  C   UNL     1      -2.777   9.991  16.958  0.00  0.00    +0.000 A 
BRANCH   2   9
ATOM      8  C   UNL     1      -5.897  11.522  18.146  0.00  0.00    +0.000 C 
ATOM      9  O   UNL     1      -5.039  10.917  17.186  0.00  0.00    +0.000 OA
ENDBRANCH   2   9
ENDBRANCH   1   5
BRANCH   1  10
ATOM     10  N   UNL     1       1.282  11.582  18.382  0.00  0.00    +0.000 N 
ATOM     11  C   UNL     1       1.696  12.807  18.853  0.00  0.00    +0.000 C 
ATOM     12  C   UNL     1       2.769  13.464  18.028  0.00  0.00    +0.000 C 
ATOM     13  O   UNL     1       1.244  13.337  19.863  0.00  0.00    +0.000 OA
ATOM     14  H   UNL     1       1.716  11.188  17.559  0.00  0.00    +0.000 HD
ENDBRANCH   1  10
BRANCH   1  15
ATOM     15  C   UNL     1       0.834   9.314  19.233  0.00  0.00    +0.000 C 
BRANCH  15  16
ATOM     16  C   UNL     1       1.922   8.952  18.219  0.00  0.00    +0.000 C 
BRANCH  16  17
ATOM     17  C   UNL     1       2.636   7.641  18.479  0.00  0.00    +0.000 A 
ATOM     18  C   UNL     1       2.306   6.773  19.522  0.00  0.00    +0.000 A 
ATOM     19  C   UNL     1       3.001   5.575  19.711  0.00  0.00    +0.000 A 
ATOM     20  C   UNL     1       4.083   5.238  18.871  0.00  0.00    +0.000 A 
ATOM     21  C   UNL     1       4.435   6.113  17.817  0.00  0.00    +0.000 A 
ATOM     22  C   UNL     1       3.692   7.288  17.628  0.00  0.00    +0.000 A 
BRANCH  19  23
ATOM     23  O   UNL     1       2.688   4.690  20.724  0.00  0.00    +0.000 OA
ATOM     24  C   UNL     1       1.370   4.159  20.710  0.00  0.00    +0.000 C 
ENDBRANCH  19  23
BRANCH  20  25
ATOM     25  O   UNL     1       4.747   4.088  19.217  0.00  0.00    +0.000 OA
ATOM     26  C   UNL     1       4.314   2.871  18.633  0.00  0.00    +0.000 C 
ENDBRANCH  20  25
BRANCH  21  27
ATOM     27  O   UNL     1       5.512   5.787  17.035  0.00  0.00    +0.000 OA
ATOM     28  C   UNL     1       5.259   5.241  15.747  0.00  0.00    +0.000 C 
ENDBRANCH  21  27
ENDBRANCH  16  17
ENDBRANCH  15  16
ENDBRANCH   1  15
TORSDOF 9
ENDMDL
