MODEL 1
REMARK VINA RESULT:      -7.9      0.000      0.000
REMARK  Name = 
REMARK  11 active torsions:
REMARK  status: ('A' for Active; 'I' for Inactive)
REMARK    1  A    between atoms: C_2  and  C_4
REMARK    2  A    between atoms: N_7  and  C_8
REMARK    3  A    between atoms: C_12  and  O_13
REMARK    4  A    between atoms: O_13  and  C_14
REMARK    5  A    between atoms: N_16  and  C_17
REMARK    6  A    between atoms: C_17  and  C_18
REMARK    7  A    between atoms: C_18  and  O_19
REMARK    8  A    between atoms: O_19  and  C_20
REMARK    9  A    between atoms: C_20  and  C_21
REMARK   10  A    between atoms: C_21  and  O_22
REMARK   11  A    between atoms: O_22  and  C_23
REMARK                            x       y       z     vdW  Elec       q    Type
REMARK                         _______ _______ _______ _____ _____    ______ ____
ROOT
ATOM      1  C   UNL     1       2.035   5.477  19.179  0.00  0.00    +0.000 C 
ATOM      2  O   UNL     1       1.597   5.064  18.113  0.00  0.00    +0.000 OA
ATOM      3  N   UNL     1       1.809   4.855  20.382  0.00  0.00    +0.000 N 
ATOM      4  H   UNL     1       2.101   5.330  21.231  0.00  0.00    +0.000 HD
ENDROOT
BRANCH   1   5
ATOM      5  O   UNL     1       2.858   6.583  19.345  0.00  0.00    +0.000 OA
BRANCH   5  10
ATOM      6  C   UNL     1       0.807   9.564  20.186  0.00  0.00    +0.000 A 
ATOM      7  C   UNL     1       0.770  10.198  18.939  0.00  0.00    +0.000 A 
ATOM      8  C   UNL     1       1.496   9.666  17.866  0.00  0.00    +0.000 A 
ATOM      9  C   UNL     1       2.227   8.483  18.021  0.00  0.00    +0.000 A 
ATOM     10  C   UNL     1       2.245   7.849  19.261  0.00  0.00    +0.000 A 
ATOM     11  C   UNL     1       1.543   8.385  20.344  0.00  0.00    +0.000 A 
BRANCH   6  15
ATOM     12  C   UNL     1      -1.305  11.353  22.544  0.00  0.00    +0.000 A 
ATOM     13  C   UNL     1      -0.889  10.229  23.311  0.00  0.00    +0.000 A 
ATOM     14  C   UNL     1      -0.063   9.463  22.521  0.00  0.00    +0.000 A 
ATOM     15  N   UNL     1       0.080  10.075  21.293  0.00  0.00    +0.000 N 
ATOM     16  C   UNL     1      -0.645  11.246  21.327  0.00  0.00    +0.000 A 
BRANCH  12  18
ATOM     17  N   UNL     1      -3.346  12.044  23.578  0.00  0.00    +0.000 N 
ATOM     18  C   UNL     1      -2.238  12.421  22.878  0.00  0.00    +0.000 C 
ATOM     19  O   UNL     1      -2.071  13.593  22.557  0.00  0.00    +0.000 OA
ATOM     20  H   UNL     1      -4.001  12.768  23.835  0.00  0.00    +0.000 HD
ATOM     21  H   UNL     1      -3.492  11.106  23.916  0.00  0.00    +0.000 HD
ENDBRANCH  12  18
ENDBRANCH   6  15
ENDBRANCH   5  10
ENDBRANCH   1   5
BRANCH   3  22
ATOM     22  C   UNL     1       0.992   3.665  20.444  0.00  0.00    +0.000 C 
BRANCH  22  23
ATOM     23  C   UNL     1       1.762   2.432  20.904  0.00  0.00    +0.000 C 
BRANCH  23  24
ATOM     24  O   UNL     1       2.988   2.348  20.179  0.00  0.00    +0.000 OA
BRANCH  24  25
ATOM     25  C   UNL     1       2.840   1.850  18.846  0.00  0.00    +0.000 C 
BRANCH  25  26
ATOM     26  C   UNL     1       4.087   2.026  17.975  0.00  0.00    +0.000 C 
BRANCH  26  27
ATOM     27  O   UNL     1       3.942   3.220  17.203  0.00  0.00    +0.000 OA
BRANCH  27  28
ATOM     28  C   UNL     1       4.962   4.128  17.285  0.00  0.00    +0.000 A 
ATOM     29  C   UNL     1       5.449   4.609  16.066  0.00  0.00    +0.000 A 
ATOM     30  F   UNL     1       4.947   4.144  14.912  0.00  0.00    +0.000 F 
ATOM     31  C   UNL     1       6.466   5.557  16.012  0.00  0.00    +0.000 A 
ATOM     32  C   UNL     1       6.997   6.039  17.199  0.00  0.00    +0.000 A 
ATOM     33  F   UNL     1       7.973   6.954  17.162  0.00  0.00    +0.000 F 
ATOM     34  C   UNL     1       6.532   5.588  18.427  0.00  0.00    +0.000 A 
ATOM     35  C   UNL     1       5.516   4.636  18.462  0.00  0.00    +0.000 A 
ATOM     36  F   UNL     1       5.081   4.239  19.666  0.00  0.00    +0.000 F 
ENDBRANCH  27  28
ENDBRANCH  26  27
ENDBRANCH  25  26
ENDBRANCH  24  25
ENDBRANCH  23  24
ENDBRANCH  22  23
ENDBRANCH   3  22
TORSDOF 11
ENDMDL
MODEL 2
REMARK VINA RESULT:      -7.6      3.829      9.057
REMARK  Name = 
REMARK  11 active torsions:
REMARK  status: ('A' for Active; 'I' for Inactive)
REMARK    1  A    between atoms: C_2  and  C_4
REMARK    2  A    between atoms: N_7  and  C_8
REMARK    3  A    between atoms: C_12  and  O_13
REMARK    4  A    between atoms: O_13  and  C_14
REMARK    5  A    between atoms: N_16  and  C_17
REMARK    6  A    between atoms: C_17  and  C_18
REMARK    7  A    between atoms: C_18  and  O_19
REMARK    8  A    between atoms: O_19  and  C_20
REMARK    9  A    between atoms: C_20  and  C_21
REMARK   10  A    between atoms: C_21  and  O_22
REMARK   11  A    between atoms: O_22  and  C_23
REMARK                            x       y       z     vdW  Elec       q    Type
REMARK                         _______ _______ _______ _____ _____    ______ ____
ROOT
ATOM      1  C   UNL     1       4.344   2.880  19.658  0.00  0.00    +0.000 C 
ATOM      2  O   UNL     1       4.040   2.430  20.756  0.00  0.00    +0.000 OA
ATOM      3  N   UNL     1       3.474   2.939  18.598  0.00  0.00    +0.000 N 
ATOM      4  H   UNL     1       3.841   3.208  17.689  0.00  0.00    +0.000 HD
ENDROOT
BRANCH   1   5
ATOM      5  O   UNL     1       5.568   3.441  19.321  0.00  0.00    +0.000 OA
BRANCH   5  10
ATOM      6  C   UNL     1       5.949   4.909  15.931  0.00  0.00    +0.000 A 
ATOM      7  C   UNL     1       5.905   6.272  16.245  0.00  0.00    +0.000 A 
ATOM      8  C   UNL     1       5.665   6.674  17.565  0.00  0.00    +0.000 A 
ATOM      9  C   UNL     1       5.509   5.723  18.579  0.00  0.00    +0.000 A 
ATOM     10  C   UNL     1       5.572   4.368  18.261  0.00  0.00    +0.000 A 
ATOM     11  C   UNL     1       5.787   3.957  16.943  0.00  0.00    +0.000 A 
BRANCH   6  15
ATOM     12  C   UNL     1       5.956   3.423  12.612  0.00  0.00    +0.000 A 
ATOM     13  C   UNL     1       7.043   4.337  12.530  0.00  0.00    +0.000 A 
ATOM     14  C   UNL     1       7.153   4.969  13.748  0.00  0.00    +0.000 A 
ATOM     15  N   UNL     1       6.194   4.469  14.604  0.00  0.00    +0.000 N 
ATOM     16  C   UNL     1       5.495   3.498  13.920  0.00  0.00    +0.000 A 
BRANCH  12  18
ATOM     17  N   UNL     1       6.065   1.431  11.296  0.00  0.00    +0.000 N 
ATOM     18  C   UNL     1       5.371   2.569  11.587  0.00  0.00    +0.000 C 
ATOM     19  O   UNL     1       4.327   2.831  10.998  0.00  0.00    +0.000 OA
ATOM     20  H   UNL     1       5.673   0.814  10.599  0.00  0.00    +0.000 HD
ATOM     21  H   UNL     1       6.890   1.146  11.798  0.00  0.00    +0.000 HD
ENDBRANCH  12  18
ENDBRANCH   6  15
ENDBRANCH   5  10
ENDBRANCH   1   5
BRANCH   3  22
ATOM     22  C   UNL     1       2.129   2.427  18.729  0.00  0.00    +0.000 C 
BRANCH  22  23
ATOM     23  C   UNL     1       1.068   3.522  18.725  0.00  0.00    +0.000 C 
BRANCH  23  24
ATOM     24  O   UNL     1       0.853   3.973  20.062  0.00  0.00    +0.000 OA
BRANCH  24  25
ATOM     25  C   UNL     1       1.685   5.073  20.442  0.00  0.00    +0.000 C 
BRANCH  25  26
ATOM     26  C   UNL     1       2.021   6.026  19.291  0.00  0.00    +0.000 C 
BRANCH  26  27
ATOM     27  O   UNL     1       2.481   7.262  19.841  0.00  0.00    +0.000 OA
BRANCH  27  28
ATOM     28  C   UNL     1       1.654   8.342  19.692  0.00  0.00    +0.000 A 
ATOM     29  C   UNL     1       1.061   8.823  20.863  0.00  0.00    +0.000 A 
ATOM     30  F   UNL     1       1.281   8.200  22.032  0.00  0.00    +0.000 F 
ATOM     31  C   UNL     1       0.222   9.932  20.852  0.00  0.00    +0.000 A 
ATOM     32  C   UNL     1      -0.019  10.578  19.648  0.00  0.00    +0.000 A 
ATOM     33  F   UNL     1      -0.821  11.649  19.623  0.00  0.00    +0.000 F 
ATOM     34  C   UNL     1       0.560  10.132  18.468  0.00  0.00    +0.000 A 
ATOM     35  C   UNL     1       1.393   9.017  18.497  0.00  0.00    +0.000 A 
ATOM     36  F   UNL     1       1.948   8.628  17.341  0.00  0.00    +0.000 F 
ENDBRANCH  27  28
ENDBRANCH  26  27
ENDBRANCH  25  26
ENDBRANCH  24  25
ENDBRANCH  23  24
ENDBRANCH  22  23
ENDBRANCH   3  22
TORSDOF 11
ENDMDL
MODEL 3
REMARK VINA RESULT:      -7.3      5.375      7.627
REMARK  Name = 
REMARK  11 active torsions:
REMARK  status: ('A' for Active; 'I' for Inactive)
REMARK    1  A    between atoms: C_2  and  C_4
REMARK    2  A    between atoms: N_7  and  C_8
REMARK    3  A    between atoms: C_12  and  O_13
REMARK    4  A    between atoms: O_13  and  C_14
REMARK    5  A    between atoms: N_16  and  C_17
REMARK    6  A    between atoms: C_17  and  C_18
REMARK    7  A    between atoms: C_18  and  O_19
REMARK    8  A    between atoms: O_19  and  C_20
REMARK    9  A    between atoms: C_20  and  C_21
REMARK   10  A    between atoms: C_21  and  O_22
REMARK   11  A    between atoms: O_22  and  C_23
REMARK                            x       y       z     vdW  Elec       q    Type
REMARK                         _______ _______ _______ _____ _____    ______ ____
ROOT
ATOM      1  C   UNL     1       7.077   4.851  18.254  0.00  0.00    +0.000 C 
ATOM      2  O   UNL     1       7.759   4.541  17.285  0.00  0.00    +0.000 OA
ATOM      3  N   UNL     1       7.208   6.044  18.920  0.00  0.00    +0.000 N 
ATOM      4  H   UNL     1       6.693   6.170  19.787  0.00  0.00    +0.000 HD
ENDROOT
BRANCH   1   5
ATOM      5  O   UNL     1       6.047   4.096  18.797  0.00  0.00    +0.000 OA
BRANCH   5  10
ATOM      6  C   UNL     1       2.815   5.884  18.406  0.00  0.00    +0.000 A 
ATOM      7  C   UNL     1       2.039   4.869  17.834  0.00  0.00    +0.000 A 
ATOM      8  C   UNL     1       2.628   3.640  17.514  0.00  0.00    +0.000 A 
ATOM      9  C   UNL     1       3.977   3.404  17.797  0.00  0.00    +0.000 A 
ATOM     10  C   UNL     1       4.739   4.414  18.382  0.00  0.00    +0.000 A 
ATOM     11  C   UNL     1       4.166   5.652  18.684  0.00  0.00    +0.000 A 
BRANCH   6  15
ATOM     12  C   UNL     1       1.435   8.871  19.954  0.00  0.00    +0.000 A 
ATOM     13  C   UNL     1       1.541   9.265  18.591  0.00  0.00    +0.000 A 
ATOM     14  C   UNL     1       2.053   8.200  17.884  0.00  0.00    +0.000 A 
ATOM     15  N   UNL     1       2.248   7.140  18.745  0.00  0.00    +0.000 N 
ATOM     16  C   UNL     1       1.831   7.541  19.996  0.00  0.00    +0.000 A 
BRANCH  12  18
ATOM     17  N   UNL     1       1.221   9.033  22.328  0.00  0.00    +0.000 N 
ATOM     18  C   UNL     1       1.030   9.641  21.122  0.00  0.00    +0.000 C 
ATOM     19  O   UNL     1       0.538  10.763  21.060  0.00  0.00    +0.000 OA
ATOM     20  H   UNL     1       0.962   9.552  23.155  0.00  0.00    +0.000 HD
ATOM     21  H   UNL     1       1.678   8.141  22.430  0.00  0.00    +0.000 HD
ENDBRANCH  12  18
ENDBRANCH   6  15
ENDBRANCH   5  10
ENDBRANCH   1   5
BRANCH   3  22
ATOM     22  C   UNL     1       8.211   7.002  18.511  0.00  0.00    +0.000 C 
BRANCH  22  23
ATOM     23  C   UNL     1       7.714   7.972  17.446  0.00  0.00    +0.000 C 
BRANCH  23  24
ATOM     24  O   UNL     1       7.591   9.274  18.016  0.00  0.00    +0.000 OA
BRANCH  24  25
ATOM     25  C   UNL     1       8.812  10.021  18.022  0.00  0.00    +0.000 C 
BRANCH  25  26
ATOM     26  C   UNL     1       9.288  10.422  19.421  0.00  0.00    +0.000 C 
BRANCH  26  27
ATOM     27  O   UNL     1      10.601  10.976  19.315  0.00  0.00    +0.000 OA
BRANCH  27  28
ATOM     28  C   UNL     1      10.698  12.337  19.408  0.00  0.00    +0.000 A 
ATOM     29  C   UNL     1      10.962  13.014  18.213  0.00  0.00    +0.000 A 
ATOM     30  F   UNL     1      11.147  12.322  17.078  0.00  0.00    +0.000 F 
ATOM     31  C   UNL     1      11.056  14.401  18.166  0.00  0.00    +0.000 A 
ATOM     32  C   UNL     1      10.875  15.124  19.336  0.00  0.00    +0.000 A 
ATOM     33  F   UNL     1      10.959  16.459  19.305  0.00  0.00    +0.000 F 
ATOM     34  C   UNL     1      10.604  14.486  20.538  0.00  0.00    +0.000 A 
ATOM     35  C   UNL     1      10.517  13.096  20.567  0.00  0.00    +0.000 A 
ATOM     36  F   UNL     1      10.237  12.517  21.743  0.00  0.00    +0.000 F 
ENDBRANCH  27  28
ENDBRANCH  26  27
ENDBRANCH  25  26
ENDBRANCH  24  25
ENDBRANCH  23  24
ENDBRANCH  22  23
ENDBRANCH   3  22
TORSDOF 11
ENDMDL
MODEL 4
REMARK VINA RESULT:      -7.3      4.112      9.505
REMARK  Name = 
REMARK  11 active torsions:
REMARK  status: ('A' for Active; 'I' for Inactive)
REMARK    1  A    between atoms: C_2  and  C_4
REMARK    2  A    between atoms: N_7  and  C_8
REMARK    3  A    between atoms: C_12  and  O_13
REMARK    4  A    between atoms: O_13  and  C_14
REMARK    5  A    between atoms: N_16  and  C_17
REMARK    6  A    between atoms: C_17  and  C_18
REMARK    7  A    between atoms: C_18  and  O_19
REMARK    8  A    between atoms: O_19  and  C_20
REMARK    9  A    between atoms: C_20  and  C_21
REMARK   10  A    between atoms: C_21  and  O_22
REMARK   11  A    between atoms: O_22  and  C_23
REMARK                            x       y       z     vdW  Elec       q    Type
REMARK                         _______ _______ _______ _____ _____    ______ ____
ROOT
ATOM      1  C   UNL     1       1.562   5.576  20.847  0.00  0.00    +0.000 C 
ATOM      2  O   UNL     1       0.392   5.412  20.524  0.00  0.00    +0.000 OA
ATOM      3  N   UNL     1       2.129   6.813  21.030  0.00  0.00    +0.000 N 
ATOM      4  H   UNL     1       3.134   6.865  21.172  0.00  0.00    +0.000 HD
ENDROOT
BRANCH   1   5
ATOM      5  O   UNL     1       2.475   4.570  21.129  0.00  0.00    +0.000 OA
BRANCH   5  10
ATOM      6  C   UNL     1       4.093   3.829  17.868  0.00  0.00    +0.000 A 
ATOM      7  C   UNL     1       3.730   2.486  17.712  0.00  0.00    +0.000 A 
ATOM      8  C   UNL     1       3.027   1.832  18.732  0.00  0.00    +0.000 A 
ATOM      9  C   UNL     1       2.651   2.522  19.889  0.00  0.00    +0.000 A 
ATOM     10  C   UNL     1       3.001   3.863  20.030  0.00  0.00    +0.000 A 
ATOM     11  C   UNL     1       3.722   4.518  19.028  0.00  0.00    +0.000 A 
BRANCH   6  15
ATOM     12  C   UNL     1       6.076   4.943  15.032  0.00  0.00    +0.000 A 
ATOM     13  C   UNL     1       5.502   6.162  15.490  0.00  0.00    +0.000 A 
ATOM     14  C   UNL     1       4.720   5.873  16.585  0.00  0.00    +0.000 A 
ATOM     15  N   UNL     1       4.802   4.522  16.852  0.00  0.00    +0.000 N 
ATOM     16  C   UNL     1       5.661   3.968  15.929  0.00  0.00    +0.000 A 
BRANCH  12  18
ATOM     17  N   UNL     1       6.549   3.610  13.106  0.00  0.00    +0.000 N 
ATOM     18  C   UNL     1       6.912   4.681  13.868  0.00  0.00    +0.000 C 
ATOM     19  O   UNL     1       7.892   5.356  13.569  0.00  0.00    +0.000 OA
ATOM     20  H   UNL     1       7.104   3.416  12.285  0.00  0.00    +0.000 HD
ATOM     21  H   UNL     1       5.717   3.068  13.277  0.00  0.00    +0.000 HD
ENDBRANCH  12  18
ENDBRANCH   6  15
ENDBRANCH   5  10
ENDBRANCH   1   5
BRANCH   3  22
ATOM     22  C   UNL     1       1.352   8.011  20.811  0.00  0.00    +0.000 C 
BRANCH  22  23
ATOM     23  C   UNL     1       1.115   8.813  22.086  0.00  0.00    +0.000 C 
BRANCH  23  24
ATOM     24  O   UNL     1       1.088  10.204  21.768  0.00  0.00    +0.000 OA
BRANCH  24  25
ATOM     25  C   UNL     1      -0.202  10.807  21.918  0.00  0.00    +0.000 C 
BRANCH  25  26
ATOM     26  C   UNL     1      -0.269  12.258  21.434  0.00  0.00    +0.000 C 
BRANCH  26  27
ATOM     27  O   UNL     1       0.015  12.287  20.034  0.00  0.00    +0.000 OA
BRANCH  27  28
ATOM     28  C   UNL     1      -0.891  11.673  19.214  0.00  0.00    +0.000 A 
ATOM     29  C   UNL     1      -0.399  10.615  18.443  0.00  0.00    +0.000 A 
ATOM     30  F   UNL     1       0.902  10.290  18.503  0.00  0.00    +0.000 F 
ATOM     31  C   UNL     1      -1.224   9.890  17.590  0.00  0.00    +0.000 A 
ATOM     32  C   UNL     1      -2.569  10.224  17.515  0.00  0.00    +0.000 A 
ATOM     33  F   UNL     1      -3.375   9.532  16.702  0.00  0.00    +0.000 F 
ATOM     34  C   UNL     1      -3.092  11.263  18.272  0.00  0.00    +0.000 A 
ATOM     35  C   UNL     1      -2.250  11.981  19.117  0.00  0.00    +0.000 A 
ATOM     36  F   UNL     1      -2.796  12.965  19.846  0.00  0.00    +0.000 F 
ENDBRANCH  27  28
ENDBRANCH  26  27
ENDBRANCH  25  26
ENDBRANCH  24  25
ENDBRANCH  23  24
ENDBRANCH  22  23
ENDBRANCH   3  22
TORSDOF 11
ENDMDL
MODEL 5
REMARK VINA RESULT:      -7.3      4.257      9.924
REMARK  Name = 
REMARK  11 active torsions:
REMARK  status: ('A' for Active; 'I' for Inactive)
REMARK    1  A    between atoms: C_2  and  C_4
REMARK    2  A    between atoms: N_7  and  C_8
REMARK    3  A    between atoms: C_12  and  O_13
REMARK    4  A    between atoms: O_13  and  C_14
REMARK    5  A    between atoms: N_16  and  C_17
REMARK    6  A    between atoms: C_17  and  C_18
REMARK    7  A    between atoms: C_18  and  O_19
REMARK    8  A    between atoms: O_19  and  C_20
REMARK    9  A    between atoms: C_20  and  C_21
REMARK   10  A    between atoms: C_21  and  O_22
REMARK   11  A    between atoms: O_22  and  C_23
REMARK                            x       y       z     vdW  Elec       q    Type
REMARK                         _______ _______ _______ _____ _____    ______ ____
ROOT
ATOM      1  C   UNL     1       2.142   7.422  19.876  0.00  0.00    +0.000 C 
ATOM      2  O   UNL     1       1.848   8.027  18.852  0.00  0.00    +0.000 OA
ATOM      3  N   UNL     1       1.471   7.575  21.063  0.00  0.00    +0.000 N 
ATOM      4  H   UNL     1       1.855   7.134  21.893  0.00  0.00    +0.000 HD
ENDROOT
BRANCH   1   5
ATOM      5  O   UNL     1       3.141   6.467  19.996  0.00  0.00    +0.000 OA
BRANCH   5  10
ATOM      6  C   UNL     1       4.120   4.501  17.000  0.00  0.00    +0.000 A 
ATOM      7  C   UNL     1       3.017   3.645  16.895  0.00  0.00    +0.000 A 
ATOM      8  C   UNL     1       2.012   3.682  17.870  0.00  0.00    +0.000 A 
ATOM      9  C   UNL     1       2.083   4.596  18.927  0.00  0.00    +0.000 A 
ATOM     10  C   UNL     1       3.175   5.456  19.015  0.00  0.00    +0.000 A 
ATOM     11  C   UNL     1       4.194   5.410  18.060  0.00  0.00    +0.000 A 
BRANCH   6  15
ATOM     12  C   UNL     1       6.253   4.227  14.068  0.00  0.00    +0.000 A 
ATOM     13  C   UNL     1       7.099   4.904  14.989  0.00  0.00    +0.000 A 
ATOM     14  C   UNL     1       6.399   5.066  16.163  0.00  0.00    +0.000 A 
ATOM     15  N   UNL     1       5.153   4.490  16.027  0.00  0.00    +0.000 N 
ATOM     16  C   UNL     1       5.085   3.945  14.764  0.00  0.00    +0.000 A 
BRANCH  12  18
ATOM     17  N   UNL     1       5.573   3.019  12.122  0.00  0.00    +0.000 N 
ATOM     18  C   UNL     1       6.475   3.882  12.670  0.00  0.00    +0.000 C 
ATOM     19  O   UNL     1       7.409   4.317  12.003  0.00  0.00    +0.000 OA
ATOM     20  H   UNL     1       5.696   2.776  11.149  0.00  0.00    +0.000 HD
ATOM     21  H   UNL     1       4.758   2.688  12.612  0.00  0.00    +0.000 HD
ENDBRANCH  12  18
ENDBRANCH   6  15
ENDBRANCH   5  10
ENDBRANCH   1   5
BRANCH   3  22
ATOM     22  C   UNL     1       0.372   8.509  21.165  0.00  0.00    +0.000 C 
BRANCH  22  23
ATOM     23  C   UNL     1       0.580   9.562  22.247  0.00  0.00    +0.000 C 
BRANCH  23  24
ATOM     24  O   UNL     1      -0.660  10.218  22.508  0.00  0.00    +0.000 OA
BRANCH  24  25
ATOM     25  C   UNL     1      -0.623  11.633  22.296  0.00  0.00    +0.000 C 
BRANCH  25  26
ATOM     26  C   UNL     1      -1.895  12.199  21.657  0.00  0.00    +0.000 C 
BRANCH  26  27
ATOM     27  O   UNL     1      -1.578  12.662  20.342  0.00  0.00    +0.000 OA
BRANCH  27  28
ATOM     28  C   UNL     1      -1.800  11.786  19.316  0.00  0.00    +0.000 A 
ATOM     29  C   UNL     1      -3.101  11.761  18.805  0.00  0.00    +0.000 A 
ATOM     30  F   UNL     1      -4.052  12.533  19.353  0.00  0.00    +0.000 F 
ATOM     31  C   UNL     1      -3.450  10.934  17.741  0.00  0.00    +0.000 A 
ATOM     32  C   UNL     1      -2.476  10.126  17.173  0.00  0.00    +0.000 A 
ATOM     33  F   UNL     1      -2.797   9.329  16.148  0.00  0.00    +0.000 F 
ATOM     34  C   UNL     1      -1.173  10.132  17.651  0.00  0.00    +0.000 A 
ATOM     35  C   UNL     1      -0.842  10.962  18.719  0.00  0.00    +0.000 A 
ATOM     36  F   UNL     1       0.430  10.954  19.140  0.00  0.00    +0.000 F 
ENDBRANCH  27  28
ENDBRANCH  26  27
ENDBRANCH  25  26
ENDBRANCH  24  25
ENDBRANCH  23  24
ENDBRANCH  22  23
ENDBRANCH   3  22
TORSDOF 11
ENDMDL
MODEL 6
REMARK VINA RESULT:      -7.3      3.228      3.852
REMARK  Name = 
REMARK  11 active torsions:
REMARK  status: ('A' for Active; 'I' for Inactive)
REMARK    1  A    between atoms: C_2  and  C_4
REMARK    2  A    between atoms: N_7  and  C_8
REMARK    3  A    between atoms: C_12  and  O_13
REMARK    4  A    between atoms: O_13  and  C_14
REMARK    5  A    between atoms: N_16  and  C_17
REMARK    6  A    between atoms: C_17  and  C_18
REMARK    7  A    between atoms: C_18  and  O_19
REMARK    8  A    between atoms: O_19  and  C_20
REMARK    9  A    between atoms: C_20  and  C_21
REMARK   10  A    between atoms: C_21  and  O_22
REMARK   11  A    between atoms: O_22  and  C_23
REMARK                            x       y       z     vdW  Elec       q    Type
REMARK                         _______ _______ _______ _____ _____    ______ ____
ROOT
ATOM      1  C   UNL     1       1.300   8.206  20.522  0.00  0.00    +0.000 C 
ATOM      2  O   UNL     1       0.604   8.310  21.525  0.00  0.00    +0.000 OA
ATOM      3  N   UNL     1       1.975   7.059  20.186  0.00  0.00    +0.000 N 
ATOM      4  H   UNL     1       2.628   7.096  19.409  0.00  0.00    +0.000 HD
ENDROOT
BRANCH   1   5
ATOM      5  O   UNL     1       1.478   9.183  19.552  0.00  0.00    +0.000 OA
BRANCH   5  10
ATOM      6  C   UNL     1      -1.400  11.417  18.825  0.00  0.00    +0.000 A 
ATOM      7  C   UNL     1      -0.949  12.601  19.418  0.00  0.00    +0.000 A 
ATOM      8  C   UNL     1       0.264  12.611  20.120  0.00  0.00    +0.000 A 
ATOM      9  C   UNL     1       1.047  11.455  20.199  0.00  0.00    +0.000 A 
ATOM     10  C   UNL     1       0.599  10.284  19.591  0.00  0.00    +0.000 A 
ATOM     11  C   UNL     1      -0.620  10.258  18.908  0.00  0.00    +0.000 A 
BRANCH   6  15
ATOM     12  C   UNL     1      -4.810  11.595  17.577  0.00  0.00    +0.000 A 
ATOM     13  C   UNL     1      -4.086  11.224  16.410  0.00  0.00    +0.000 A 
ATOM     14  C   UNL     1      -2.758  11.114  16.756  0.00  0.00    +0.000 A 
ATOM     15  N   UNL     1      -2.622  11.374  18.104  0.00  0.00    +0.000 N 
ATOM     16  C   UNL     1      -3.879  11.626  18.607  0.00  0.00    +0.000 A 
BRANCH  12  18
ATOM     17  N   UNL     1      -6.826  12.501  16.668  0.00  0.00    +0.000 N 
ATOM     18  C   UNL     1      -6.222  11.914  17.741  0.00  0.00    +0.000 C 
ATOM     19  O   UNL     1      -6.855  11.690  18.768  0.00  0.00    +0.000 OA
ATOM     20  H   UNL     1      -7.808  12.718  16.751  0.00  0.00    +0.000 HD
ATOM     21  H   UNL     1      -6.362  12.645  15.785  0.00  0.00    +0.000 HD
ENDBRANCH  12  18
ENDBRANCH   6  15
ENDBRANCH   5  10
ENDBRANCH   1   5
BRANCH   3  22
ATOM     22  C   UNL     1       1.915   5.899  21.046  0.00  0.00    +0.000 C 
BRANCH  22  23
ATOM     23  C   UNL     1       2.513   4.650  20.409  0.00  0.00    +0.000 C 
BRANCH  23  24
ATOM     24  O   UNL     1       1.658   4.203  19.358  0.00  0.00    +0.000 OA
BRANCH  24  25
ATOM     25  C   UNL     1       2.356   3.812  18.171  0.00  0.00    +0.000 C 
BRANCH  25  26
ATOM     26  C   UNL     1       3.045   4.972  17.445  0.00  0.00    +0.000 C 
BRANCH  26  27
ATOM     27  O   UNL     1       4.316   4.523  16.972  0.00  0.00    +0.000 OA
BRANCH  27  28
ATOM     28  C   UNL     1       5.417   5.136  17.503  0.00  0.00    +0.000 A 
ATOM     29  C   UNL     1       5.989   6.147  16.724  0.00  0.00    +0.000 A 
ATOM     30  F   UNL     1       5.481   6.430  15.515  0.00  0.00    +0.000 F 
ATOM     31  C   UNL     1       7.095   6.868  17.164  0.00  0.00    +0.000 A 
ATOM     32  C   UNL     1       7.632   6.578  18.410  0.00  0.00    +0.000 A 
ATOM     33  F   UNL     1       8.693   7.266  18.847  0.00  0.00    +0.000 F 
ATOM     34  C   UNL     1       7.084   5.586  19.212  0.00  0.00    +0.000 A 
ATOM     35  C   UNL     1       5.980   4.872  18.754  0.00  0.00    +0.000 A 
ATOM     36  F   UNL     1       5.469   3.935  19.564  0.00  0.00    +0.000 F 
ENDBRANCH  27  28
ENDBRANCH  26  27
ENDBRANCH  25  26
ENDBRANCH  24  25
ENDBRANCH  23  24
ENDBRANCH  22  23
ENDBRANCH   3  22
TORSDOF 11
ENDMDL
MODEL 7
REMARK VINA RESULT:      -7.2      5.910      7.577
REMARK  Name = 
REMARK  11 active torsions:
REMARK  status: ('A' for Active; 'I' for Inactive)
REMARK    1  A    between atoms: C_2  and  C_4
REMARK    2  A    between atoms: N_7  and  C_8
REMARK    3  A    between atoms: C_12  and  O_13
REMARK    4  A    between atoms: O_13  and  C_14
REMARK    5  A    between atoms: N_16  and  C_17
REMARK    6  A    between atoms: C_17  and  C_18
REMARK    7  A    between atoms: C_18  and  O_19
REMARK    8  A    between atoms: O_19  and  C_20
REMARK    9  A    between atoms: C_20  and  C_21
REMARK   10  A    between atoms: C_21  and  O_22
REMARK   11  A    between atoms: O_22  and  C_23
REMARK                            x       y       z     vdW  Elec       q    Type
REMARK                         _______ _______ _______ _____ _____    ______ ____
ROOT
ATOM      1  C   UNL     1       8.608   9.770  18.322  0.00  0.00    +0.000 C 
ATOM      2  O   UNL     1       7.841  10.576  17.811  0.00  0.00    +0.000 OA
ATOM      3  N   UNL     1       8.417   8.411  18.276  0.00  0.00    +0.000 N 
ATOM      4  H   UNL     1       9.029   7.820  18.831  0.00  0.00    +0.000 HD
ENDROOT
BRANCH   1   5
ATOM      5  O   UNL     1       9.796  10.077  18.971  0.00  0.00    +0.000 OA
BRANCH   5  10
ATOM      6  C   UNL     1       9.043  12.460  21.719  0.00  0.00    +0.000 A 
ATOM      7  C   UNL     1       9.550  13.642  21.166  0.00  0.00    +0.000 A 
ATOM      8  C   UNL     1      10.206  13.606  19.929  0.00  0.00    +0.000 A 
ATOM      9  C   UNL     1      10.324  12.405  19.223  0.00  0.00    +0.000 A 
ATOM     10  C   UNL     1       9.801  11.236  19.771  0.00  0.00    +0.000 A 
ATOM     11  C   UNL     1       9.166  11.257  21.016  0.00  0.00    +0.000 A 
BRANCH   6  15
ATOM     12  C   UNL     1       6.990  11.879  24.663  0.00  0.00    +0.000 A 
ATOM     13  C   UNL     1       7.859  12.914  25.106  0.00  0.00    +0.000 A 
ATOM     14  C   UNL     1       8.697  13.236  24.063  0.00  0.00    +0.000 A 
ATOM     15  N   UNL     1       8.370  12.462  22.968  0.00  0.00    +0.000 N 
ATOM     16  C   UNL     1       7.304  11.667  23.327  0.00  0.00    +0.000 A 
BRANCH  12  18
ATOM     17  N   UNL     1       6.253  10.883  26.706  0.00  0.00    +0.000 N 
ATOM     18  C   UNL     1       5.976  11.131  25.393  0.00  0.00    +0.000 C 
ATOM     19  O   UNL     1       4.933  10.729  24.889  0.00  0.00    +0.000 OA
ATOM     20  H   UNL     1       5.559  10.378  27.239  0.00  0.00    +0.000 HD
ATOM     21  H   UNL     1       7.065  11.247  27.176  0.00  0.00    +0.000 HD
ENDBRANCH  12  18
ENDBRANCH   6  15
ENDBRANCH   5  10
ENDBRANCH   1   5
BRANCH   3  22
ATOM     22  C   UNL     1       7.248   7.861  17.627  0.00  0.00    +0.000 C 
BRANCH  22  23
ATOM     23  C   UNL     1       7.200   6.338  17.670  0.00  0.00    +0.000 C 
BRANCH  23  24
ATOM     24  O   UNL     1       6.573   5.854  16.483  0.00  0.00    +0.000 OA
BRANCH  24  25
ATOM     25  C   UNL     1       5.153   5.706  16.598  0.00  0.00    +0.000 C 
BRANCH  25  26
ATOM     26  C   UNL     1       4.678   5.359  18.012  0.00  0.00    +0.000 C 
BRANCH  26  27
ATOM     27  O   UNL     1       4.236   3.999  18.024  0.00  0.00    +0.000 OA
BRANCH  27  28
ATOM     28  C   UNL     1       3.289   3.673  18.956  0.00  0.00    +0.000 A 
ATOM     29  C   UNL     1       3.730   2.886  20.025  0.00  0.00    +0.000 A 
ATOM     30  F   UNL     1       5.003   2.462  20.065  0.00  0.00    +0.000 F 
ATOM     31  C   UNL     1       2.873   2.510  21.054  0.00  0.00    +0.000 A 
ATOM     32  C   UNL     1       1.554   2.937  21.017  0.00  0.00    +0.000 A 
ATOM     33  F   UNL     1       0.719   2.585  22.002  0.00  0.00    +0.000 F 
ATOM     34  C   UNL     1       1.085   3.725  19.975  0.00  0.00    +0.000 A 
ATOM     35  C   UNL     1       1.956   4.089  18.951  0.00  0.00    +0.000 A 
ATOM     36  F   UNL     1       1.471   4.865  17.972  0.00  0.00    +0.000 F 
ENDBRANCH  27  28
ENDBRANCH  26  27
ENDBRANCH  25  26
ENDBRANCH  24  25
ENDBRANCH  23  24
ENDBRANCH  22  23
ENDBRANCH   3  22
TORSDOF 11
ENDMDL
MODEL 8
REMARK VINA RESULT:      -7.2      2.523      3.328
REMARK  Name = 
REMARK  11 active torsions:
REMARK  status: ('A' for Active; 'I' for Inactive)
REMARK    1  A    between atoms: C_2  and  C_4
REMARK    2  A    between atoms: N_7  and  C_8
REMARK    3  A    between atoms: C_12  and  O_13
REMARK    4  A    between atoms: O_13  and  C_14
REMARK    5  A    between atoms: N_16  and  C_17
REMARK    6  A    between atoms: C_17  and  C_18
REMARK    7  A    between atoms: C_18  and  O_19
REMARK    8  A    between atoms: O_19  and  C_20
REMARK    9  A    between atoms: C_20  and  C_21
REMARK   10  A    between atoms: C_21  and  O_22
REMARK   11  A    between atoms: O_22  and  C_23
REMARK                            x       y       z     vdW  Elec       q    Type
REMARK                         _______ _______ _______ _____ _____    ______ ____
ROOT
ATOM      1  C   UNL     1       2.132   5.602  20.325  0.00  0.00    +0.000 C 
ATOM      2  O   UNL     1       2.153   5.173  21.472  0.00  0.00    +0.000 OA
ATOM      3  N   UNL     1       1.714   4.861  19.248  0.00  0.00    +0.000 N 
ATOM      4  H   UNL     1       1.846   5.247  18.318  0.00  0.00    +0.000 HD
ENDROOT
BRANCH   1   5
ATOM      5  O   UNL     1       2.465   6.892  19.934  0.00  0.00    +0.000 OA
BRANCH   5  10
ATOM      6  C   UNL     1       0.213   9.844  20.000  0.00  0.00    +0.000 A 
ATOM      7  C   UNL     1       0.293  10.186  21.355  0.00  0.00    +0.000 A 
ATOM      8  C   UNL     1       1.026   9.379  22.234  0.00  0.00    +0.000 A 
ATOM      9  C   UNL     1       1.712   8.256  21.760  0.00  0.00    +0.000 A 
ATOM     10  C   UNL     1       1.641   7.932  20.407  0.00  0.00    +0.000 A 
ATOM     11  C   UNL     1       0.893   8.718  19.527  0.00  0.00    +0.000 A 
BRANCH   6  15
ATOM     12  C   UNL     1      -1.928  11.260  17.423  0.00  0.00    +0.000 A 
ATOM     13  C   UNL     1      -1.476  12.423  18.106  0.00  0.00    +0.000 A 
ATOM     14  C   UNL     1      -0.637  12.017  19.119  0.00  0.00    +0.000 A 
ATOM     15  N   UNL     1      -0.519  10.643  19.082  0.00  0.00    +0.000 N 
ATOM     16  C   UNL     1      -1.275  10.191  18.023  0.00  0.00    +0.000 A 
BRANCH  12  18
ATOM     17  N   UNL     1      -4.033  11.852  16.461  0.00  0.00    +0.000 N 
ATOM     18  C   UNL     1      -2.885  11.126  16.334  0.00  0.00    +0.000 C 
ATOM     19  O   UNL     1      -2.705  10.409  15.355  0.00  0.00    +0.000 OA
ATOM     20  H   UNL     1      -4.707  11.788  15.711  0.00  0.00    +0.000 HD
ATOM     21  H   UNL     1      -4.195  12.500  17.214  0.00  0.00    +0.000 HD
ENDBRANCH  12  18
ENDBRANCH   6  15
ENDBRANCH   5  10
ENDBRANCH   1   5
BRANCH   3  22
ATOM     22  C   UNL     1       1.297   3.488  19.425  0.00  0.00    +0.000 C 
BRANCH  22  23
ATOM     23  C   UNL     1       2.291   2.482  18.856  0.00  0.00    +0.000 C 
BRANCH  23  24
ATOM     24  O   UNL     1       1.986   2.247  17.482  0.00  0.00    +0.000 OA
BRANCH  24  25
ATOM     25  C   UNL     1       2.654   3.137  16.581  0.00  0.00    +0.000 C 
BRANCH  25  26
ATOM     26  C   UNL     1       4.062   3.536  17.031  0.00  0.00    +0.000 C 
BRANCH  26  27
ATOM     27  O   UNL     1       4.061   4.929  17.352  0.00  0.00    +0.000 OA
BRANCH  27  28
ATOM     28  C   UNL     1       5.248   5.458  17.779  0.00  0.00    +0.000 A 
ATOM     29  C   UNL     1       5.794   6.463  16.973  0.00  0.00    +0.000 A 
ATOM     30  F   UNL     1       5.178   6.818  15.835  0.00  0.00    +0.000 F 
ATOM     31  C   UNL     1       6.982   7.102  17.311  0.00  0.00    +0.000 A 
ATOM     32  C   UNL     1       7.630   6.736  18.482  0.00  0.00    +0.000 A 
ATOM     33  F   UNL     1       8.772   7.345  18.821  0.00  0.00    +0.000 F 
ATOM     34  C   UNL     1       7.112   5.749  19.308  0.00  0.00    +0.000 A 
ATOM     35  C   UNL     1       5.924   5.116  18.952  0.00  0.00    +0.000 A 
ATOM     36  F   UNL     1       5.446   4.181  19.785  0.00  0.00    +0.000 F 
ENDBRANCH  27  28
ENDBRANCH  26  27
ENDBRANCH  25  26
ENDBRANCH  24  25
ENDBRANCH  23  24
ENDBRANCH  22  23
ENDBRANCH   3  22
TORSDOF 11
ENDMDL
MODEL 9
REMARK VINA RESULT:      -7.2      1.974      2.480
REMARK  Name = 
REMARK  11 active torsions:
REMARK  status: ('A' for Active; 'I' for Inactive)
REMARK    1  A    between atoms: C_2  and  C_4
REMARK    2  A    between atoms: N_7  and  C_8
REMARK    3  A    between atoms: C_12  and  O_13
REMARK    4  A    between atoms: O_13  and  C_14
REMARK    5  A    between atoms: N_16  and  C_17
REMARK    6  A    between atoms: C_17  and  C_18
REMARK    7  A    between atoms: C_18  and  O_19
REMARK    8  A    between atoms: O_19  and  C_20
REMARK    9  A    between atoms: C_20  and  C_21
REMARK   10  A    between atoms: C_21  and  O_22
REMARK   11  A    between atoms: O_22  and  C_23
REMARK                            x       y       z     vdW  Elec       q    Type
REMARK                         _______ _______ _______ _____ _____    ______ ____
ROOT
ATOM      1  C   UNL     1       1.779   4.652  20.428  0.00  0.00    +0.000 C 
ATOM      2  O   UNL     1       0.609   4.489  20.106  0.00  0.00    +0.000 OA
ATOM      3  N   UNL     1       2.723   3.657  20.379  0.00  0.00    +0.000 N 
ATOM      4  H   UNL     1       3.637   3.840  20.782  0.00  0.00    +0.000 HD
ENDROOT
BRANCH   1   5
ATOM      5  O   UNL     1       2.349   5.850  20.836  0.00  0.00    +0.000 OA
BRANCH   5  10
ATOM      6  C   UNL     1       1.337   9.132  19.422  0.00  0.00    +0.000 A 
ATOM      7  C   UNL     1       1.709   8.950  18.085  0.00  0.00    +0.000 A 
ATOM      8  C   UNL     1       2.365   7.774  17.699  0.00  0.00    +0.000 A 
ATOM      9  C   UNL     1       2.615   6.763  18.632  0.00  0.00    +0.000 A 
ATOM     10  C   UNL     1       2.226   6.944  19.958  0.00  0.00    +0.000 A 
ATOM     11  C   UNL     1       1.593   8.124  20.357  0.00  0.00    +0.000 A 
BRANCH   6  15
ATOM     12  C   UNL     1       0.053  12.479  20.029  0.00  0.00    +0.000 A 
ATOM     13  C   UNL     1      -0.853  11.674  20.774  0.00  0.00    +0.000 A 
ATOM     14  C   UNL     1      -0.464  10.361  20.631  0.00  0.00    +0.000 A 
ATOM     15  N   UNL     1       0.669  10.311  19.846  0.00  0.00    +0.000 N 
ATOM     16  C   UNL     1       1.003  11.606  19.517  0.00  0.00    +0.000 A 
BRANCH  12  18
ATOM     17  N   UNL     1       0.923  14.360  18.839  0.00  0.00    +0.000 N 
ATOM     18  C   UNL     1       0.046  13.915  19.785  0.00  0.00    +0.000 C 
ATOM     19  O   UNL     1      -0.682  14.703  20.380  0.00  0.00    +0.000 OA
ATOM     20  H   UNL     1       0.927  15.350  18.640  0.00  0.00    +0.000 HD
ATOM     21  H   UNL     1       1.492  13.744  18.282  0.00  0.00    +0.000 HD
ENDBRANCH  12  18
ENDBRANCH   6  15
ENDBRANCH   5  10
ENDBRANCH   1   5
BRANCH   3  22
ATOM     22  C   UNL     1       2.355   2.323  19.960  0.00  0.00    +0.000 C 
BRANCH  22  23
ATOM     23  C   UNL     1       3.061   1.879  18.685  0.00  0.00    +0.000 C 
BRANCH  23  24
ATOM     24  O   UNL     1       2.487   2.559  17.569  0.00  0.00    +0.000 OA
BRANCH  24  25
ATOM     25  C   UNL     1       3.342   3.553  16.994  0.00  0.00    +0.000 C 
BRANCH  25  26
ATOM     26  C   UNL     1       4.821   3.383  17.354  0.00  0.00    +0.000 C 
BRANCH  26  27
ATOM     27  O   UNL     1       5.607   4.118  16.413  0.00  0.00    +0.000 OA
BRANCH  27  28
ATOM     28  C   UNL     1       6.268   5.215  16.894  0.00  0.00    +0.000 A 
ATOM     29  C   UNL     1       5.741   6.456  16.522  0.00  0.00    +0.000 A 
ATOM     30  F   UNL     1       4.679   6.516  15.704  0.00  0.00    +0.000 F 
ATOM     31  C   UNL     1       6.303   7.648  16.967  0.00  0.00    +0.000 A 
ATOM     32  C   UNL     1       7.406   7.597  17.808  0.00  0.00    +0.000 A 
ATOM     33  F   UNL     1       7.954   8.736  18.247  0.00  0.00    +0.000 F 
ATOM     34  C   UNL     1       7.949   6.382  18.202  0.00  0.00    +0.000 A 
ATOM     35  C   UNL     1       7.376   5.198  17.743  0.00  0.00    +0.000 A 
ATOM     36  F   UNL     1       7.917   4.046  18.161  0.00  0.00    +0.000 F 
ENDBRANCH  27  28
ENDBRANCH  26  27
ENDBRANCH  25  26
ENDBRANCH  24  25
ENDBRANCH  23  24
ENDBRANCH  22  23
ENDBRANCH   3  22
TORSDOF 11
ENDMDL
