MODEL 1
REMARK VINA RESULT:      -9.3      0.000      0.000
REMARK  Name = 
REMARK  6 active torsions:
REMARK  status: ('A' for Active; 'I' for Inactive)
REMARK    1  A    between atoms: C_1  and  C_2
REMARK    2  A    between atoms: C_4  and  C_5
REMARK    3  A    between atoms: C_5  and  C_6
REMARK    4  A    between atoms: N_15  and  C_16
REMARK    5  A    between atoms: C_21  and  O_22
REMARK    6  A    between atoms: O_22  and  C_23
REMARK                            x       y       z     vdW  Elec       q    Type
REMARK                         _______ _______ _______ _____ _____    ______ ____
ROOT
ATOM      1  C   UNL     1       3.948   4.794  18.212  0.00  0.00    +0.000 C 
ATOM      2  N   UNL     1       4.715   4.171  19.341  0.00  0.00    +0.000 NA
ATOM      3  C   UNL     1       4.197   3.000  19.507  0.00  0.00    +0.000 C 
ATOM      4  N   UNL     1       4.869   1.934  20.012  0.00  0.00    +0.000 N 
ATOM      5  N   UNL     1       2.972   2.829  19.002  0.00  0.00    +0.000 N 
ATOM      6  C   UNL     1       1.898   2.074  19.616  0.00  0.00    +0.000 C 
ATOM      7  C   UNL     1       2.848   3.720  17.977  0.00  0.00    +0.000 C 
ATOM      8  O   UNL     1       2.015   3.679  17.089  0.00  0.00    +0.000 OA
ATOM      9  H   UNL     1       5.499   1.621  19.266  0.00  0.00    +0.000 HD
ATOM     10  H   UNL     1       4.288   1.126  20.183  0.00  0.00    +0.000 HD
ENDROOT
BRANCH   1  14
ATOM     11  C   UNL     1       5.319   3.706  13.622  0.00  0.00    +0.000 C 
ATOM     12  C   UNL     1       5.728   4.495  14.835  0.00  0.00    +0.000 A 
ATOM     13  C   UNL     1       4.787   4.528  15.874  0.00  0.00    +0.000 A 
ATOM     14  C   UNL     1       5.039   5.063  17.165  0.00  0.00    +0.000 A 
ATOM     15  C   UNL     1       6.258   5.687  17.374  0.00  0.00    +0.000 A 
ATOM     16  C   UNL     1       7.200   5.700  16.332  0.00  0.00    +0.000 A 
ATOM     17  C   UNL     1       6.965   5.095  15.075  0.00  0.00    +0.000 A 
BRANCH  17  18
ATOM     18  O   UNL     1       8.068   5.135  14.269  0.00  0.00    +0.000 OA
BRANCH  18  19
ATOM     19  C   UNL     1       7.983   5.738  12.996  0.00  0.00    +0.000 C 
ATOM     20  F   UNL     1       9.192   6.306  12.741  0.00  0.00    +0.000 F 
ATOM     21  F   UNL     1       7.818   4.777  12.055  0.00  0.00    +0.000 F 
ENDBRANCH  18  19
ENDBRANCH  17  18
ENDBRANCH   1  14
BRANCH   1  22
ATOM     22  C   UNL     1       3.188   6.106  18.476  0.00  0.00    +0.000 A 
ATOM     23  C   UNL     1       3.098   7.153  17.555  0.00  0.00    +0.000 A 
ATOM     24  C   UNL     1       2.439   8.338  17.907  0.00  0.00    +0.000 A 
ATOM     25  C   UNL     1       1.868   8.491  19.172  0.00  0.00    +0.000 A 
ATOM     26  C   UNL     1       1.924   7.453  20.088  0.00  0.00    +0.000 A 
ATOM     27  C   UNL     1       2.572   6.273  19.741  0.00  0.00    +0.000 A 
ENDBRANCH   1  22
TORSDOF 4
ENDMDL
MODEL 2
REMARK VINA RESULT:      -9.0      1.080      1.811
REMARK  Name = 
REMARK  6 active torsions:
REMARK  status: ('A' for Active; 'I' for Inactive)
REMARK    1  A    between atoms: C_1  and  C_2
REMARK    2  A    between atoms: C_4  and  C_5
REMARK    3  A    between atoms: C_5  and  C_6
REMARK    4  A    between atoms: N_15  and  C_16
REMARK    5  A    between atoms: C_21  and  O_22
REMARK    6  A    between atoms: O_22  and  C_23
REMARK                            x       y       z     vdW  Elec       q    Type
REMARK                         _______ _______ _______ _____ _____    ______ ____
ROOT
ATOM      1  C   UNL     1       3.255   5.043  18.619  0.00  0.00    +0.000 C 
ATOM      2  N   UNL     1       3.823   4.476  19.887  0.00  0.00    +0.000 NA
ATOM      3  C   UNL     1       3.100   3.441  20.158  0.00  0.00    +0.000 C 
ATOM      4  N   UNL     1       3.541   2.366  20.859  0.00  0.00    +0.000 N 
ATOM      5  N   UNL     1       1.902   3.398  19.568  0.00  0.00    +0.000 N 
ATOM      6  C   UNL     1       0.674   2.923  20.175  0.00  0.00    +0.000 C 
ATOM      7  C   UNL     1       2.004   4.138  18.427  0.00  0.00    +0.000 C 
ATOM      8  O   UNL     1       1.241   4.103  17.479  0.00  0.00    +0.000 OA
ATOM      9  H   UNL     1       4.158   1.851  20.223  0.00  0.00    +0.000 HD
ATOM     10  H   UNL     1       2.819   1.696  21.081  0.00  0.00    +0.000 HD
ENDROOT
BRANCH   1  14
ATOM     11  C   UNL     1       7.539   7.190  17.538  0.00  0.00    +0.000 C 
ATOM     12  C   UNL     1       6.616   6.084  17.109  0.00  0.00    +0.000 A 
ATOM     13  C   UNL     1       5.525   5.849  17.958  0.00  0.00    +0.000 A 
ATOM     14  C   UNL     1       4.446   4.978  17.652  0.00  0.00    +0.000 A 
ATOM     15  C   UNL     1       4.533   4.233  16.487  0.00  0.00    +0.000 A 
ATOM     16  C   UNL     1       5.638   4.424  15.642  0.00  0.00    +0.000 A 
ATOM     17  C   UNL     1       6.669   5.352  15.922  0.00  0.00    +0.000 A 
BRANCH  17  18
ATOM     18  O   UNL     1       7.572   5.444  14.899  0.00  0.00    +0.000 OA
BRANCH  18  19
ATOM     19  C   UNL     1       7.172   5.127  13.583  0.00  0.00    +0.000 C 
ATOM     20  F   UNL     1       8.166   5.544  12.753  0.00  0.00    +0.000 F 
ATOM     21  F   UNL     1       7.112   3.781  13.446  0.00  0.00    +0.000 F 
ENDBRANCH  18  19
ENDBRANCH  17  18
ENDBRANCH   1  14
BRANCH   1  22
ATOM     22  C   UNL     1       2.716   6.485  18.636  0.00  0.00    +0.000 A 
ATOM     23  C   UNL     1       2.760   7.345  17.536  0.00  0.00    +0.000 A 
ATOM     24  C   UNL     1       2.304   8.665  17.662  0.00  0.00    +0.000 A 
ATOM     25  C   UNL     1       1.804   9.136  18.878  0.00  0.00    +0.000 A 
ATOM     26  C   UNL     1       1.728   8.288  19.971  0.00  0.00    +0.000 A 
ATOM     27  C   UNL     1       2.173   6.977  19.849  0.00  0.00    +0.000 A 
ENDBRANCH   1  22
TORSDOF 4
ENDMDL
MODEL 3
REMARK VINA RESULT:      -8.9      4.028      6.667
REMARK  Name = 
REMARK  6 active torsions:
REMARK  status: ('A' for Active; 'I' for Inactive)
REMARK    1  A    between atoms: C_1  and  C_2
REMARK    2  A    between atoms: C_4  and  C_5
REMARK    3  A    between atoms: C_5  and  C_6
REMARK    4  A    between atoms: N_15  and  C_16
REMARK    5  A    between atoms: C_21  and  O_22
REMARK    6  A    between atoms: O_22  and  C_23
REMARK                            x       y       z     vdW  Elec       q    Type
REMARK                         _______ _______ _______ _____ _____    ______ ____
ROOT
ATOM      1  C   UNL     1       6.084   4.892  17.388  0.00  0.00    +0.000 C 
ATOM      2  N   UNL     1       7.254   4.493  18.239  0.00  0.00    +0.000 NA
ATOM      3  C   UNL     1       7.662   5.583  18.798  0.00  0.00    +0.000 C 
ATOM      4  N   UNL     1       8.306   5.631  19.993  0.00  0.00    +0.000 N 
ATOM      5  N   UNL     1       7.279   6.718  18.209  0.00  0.00    +0.000 N 
ATOM      6  C   UNL     1       8.088   7.911  18.054  0.00  0.00    +0.000 C 
ATOM      7  C   UNL     1       6.119   6.439  17.546  0.00  0.00    +0.000 C 
ATOM      8  O   UNL     1       5.311   7.255  17.142  0.00  0.00    +0.000 OA
ATOM      9  H   UNL     1       7.589   5.457  20.704  0.00  0.00    +0.000 HD
ATOM     10  H   UNL     1       8.658   6.546  20.232  0.00  0.00    +0.000 HD
ENDROOT
BRANCH   1  14
ATOM     11  C   UNL     1       1.186   4.561  17.574  0.00  0.00    +0.000 C 
ATOM     12  C   UNL     1       2.446   3.904  18.065  0.00  0.00    +0.000 A 
ATOM     13  C   UNL     1       3.636   4.409  17.520  0.00  0.00    +0.000 A 
ATOM     14  C   UNL     1       4.936   4.055  17.972  0.00  0.00    +0.000 A 
ATOM     15  C   UNL     1       5.033   3.070  18.940  0.00  0.00    +0.000 A 
ATOM     16  C   UNL     1       3.852   2.522  19.470  0.00  0.00    +0.000 A 
ATOM     17  C   UNL     1       2.562   2.939  19.065  0.00  0.00    +0.000 A 
BRANCH  17  18
ATOM     18  O   UNL     1       1.574   2.349  19.804  0.00  0.00    +0.000 OA
BRANCH  18  19
ATOM     19  C   UNL     1       1.173   2.931  21.026  0.00  0.00    +0.000 C 
ATOM     20  F   UNL     1       1.821   2.264  22.018  0.00  0.00    +0.000 F 
ATOM     21  F   UNL     1       1.621   4.209  21.082  0.00  0.00    +0.000 F 
ENDBRANCH  18  19
ENDBRANCH  17  18
ENDBRANCH   1  14
BRANCH   1  22
ATOM     22  C   UNL     1       6.156   4.635  15.872  0.00  0.00    +0.000 A 
ATOM     23  C   UNL     1       5.187   3.928  15.155  0.00  0.00    +0.000 A 
ATOM     24  C   UNL     1       5.369   3.687  13.786  0.00  0.00    +0.000 A 
ATOM     25  C   UNL     1       6.510   4.144  13.124  0.00  0.00    +0.000 A 
ATOM     26  C   UNL     1       7.468   4.870  13.814  0.00  0.00    +0.000 A 
ATOM     27  C   UNL     1       7.288   5.118  15.171  0.00  0.00    +0.000 A 
ENDBRANCH   1  22
TORSDOF 4
ENDMDL
MODEL 4
REMARK VINA RESULT:      -8.5      0.689      1.826
REMARK  Name = 
REMARK  6 active torsions:
REMARK  status: ('A' for Active; 'I' for Inactive)
REMARK    1  A    between atoms: C_1  and  C_2
REMARK    2  A    between atoms: C_4  and  C_5
REMARK    3  A    between atoms: C_5  and  C_6
REMARK    4  A    between atoms: N_15  and  C_16
REMARK    5  A    between atoms: C_21  and  O_22
REMARK    6  A    between atoms: O_22  and  C_23
REMARK                            x       y       z     vdW  Elec       q    Type
REMARK                         _______ _______ _______ _____ _____    ______ ____
ROOT
ATOM      1  C   UNL     1       4.070   4.383  18.416  0.00  0.00    +0.000 C 
ATOM      2  N   UNL     1       4.812   3.758  19.561  0.00  0.00    +0.000 NA
ATOM      3  C   UNL     1       4.224   2.630  19.779  0.00  0.00    +0.000 C 
ATOM      4  N   UNL     1       4.836   1.544  20.318  0.00  0.00    +0.000 N 
ATOM      5  N   UNL     1       2.985   2.515  19.294  0.00  0.00    +0.000 N 
ATOM      6  C   UNL     1       1.874   1.853  19.949  0.00  0.00    +0.000 C 
ATOM      7  C   UNL     1       2.902   3.372  18.235  0.00  0.00    +0.000 C 
ATOM      8  O   UNL     1       2.057   3.348  17.359  0.00  0.00    +0.000 OA
ATOM      9  H   UNL     1       5.435   1.164  19.579  0.00  0.00    +0.000 HD
ATOM     10  H   UNL     1       4.208   0.781  20.528  0.00  0.00    +0.000 HD
ENDROOT
BRANCH   1  14
ATOM     11  C   UNL     1       7.801   7.266  17.038  0.00  0.00    +0.000 C 
ATOM     12  C   UNL     1       7.049   6.022  16.655  0.00  0.00    +0.000 A 
ATOM     13  C   UNL     1       6.097   5.586  17.587  0.00  0.00    +0.000 A 
ATOM     14  C   UNL     1       5.162   4.543  17.348  0.00  0.00    +0.000 A 
ATOM     15  C   UNL     1       5.271   3.844  16.158  0.00  0.00    +0.000 A 
ATOM     16  C   UNL     1       6.246   4.240  15.226  0.00  0.00    +0.000 A 
ATOM     17  C   UNL     1       7.121   5.330  15.445  0.00  0.00    +0.000 A 
BRANCH  17  18
ATOM     18  O   UNL     1       7.898   5.596  14.352  0.00  0.00    +0.000 OA
BRANCH  18  19
ATOM     19  C   UNL     1       7.373   5.397  13.057  0.00  0.00    +0.000 C 
ATOM     20  F   UNL     1       8.176   6.074  12.192  0.00  0.00    +0.000 F 
ATOM     21  F   UNL     1       7.487   4.088  12.724  0.00  0.00    +0.000 F 
ENDBRANCH  18  19
ENDBRANCH  17  18
ENDBRANCH   1  14
BRANCH   1  22
ATOM     22  C   UNL     1       3.396   5.750  18.636  0.00  0.00    +0.000 A 
ATOM     23  C   UNL     1       2.733   6.111  19.812  0.00  0.00    +0.000 A 
ATOM     24  C   UNL     1       2.091   7.354  19.897  0.00  0.00    +0.000 A 
ATOM     25  C   UNL     1       2.102   8.242  18.820  0.00  0.00    +0.000 A 
ATOM     26  C   UNL     1       2.777   7.910  17.656  0.00  0.00    +0.000 A 
ATOM     27  C   UNL     1       3.421   6.681  17.569  0.00  0.00    +0.000 A 
ENDBRANCH   1  22
TORSDOF 4
ENDMDL
MODEL 5
REMARK VINA RESULT:      -8.4      3.831      6.749
REMARK  Name = 
REMARK  6 active torsions:
REMARK  status: ('A' for Active; 'I' for Inactive)
REMARK    1  A    between atoms: C_1  and  C_2
REMARK    2  A    between atoms: C_4  and  C_5
REMARK    3  A    between atoms: C_5  and  C_6
REMARK    4  A    between atoms: N_15  and  C_16
REMARK    5  A    between atoms: C_21  and  O_22
REMARK    6  A    between atoms: O_22  and  C_23
REMARK                            x       y       z     vdW  Elec       q    Type
REMARK                         _______ _______ _______ _____ _____    ______ ____
ROOT
ATOM      1  C   UNL     1       6.063   5.008  17.357  0.00  0.00    +0.000 C 
ATOM      2  N   UNL     1       7.130   4.540  18.303  0.00  0.00    +0.000 NA
ATOM      3  C   UNL     1       7.586   5.609  18.867  0.00  0.00    +0.000 C 
ATOM      4  N   UNL     1       8.141   5.638  20.105  0.00  0.00    +0.000 N 
ATOM      5  N   UNL     1       7.342   6.754  18.225  0.00  0.00    +0.000 N 
ATOM      6  C   UNL     1       8.258   7.872  18.105  0.00  0.00    +0.000 C 
ATOM      7  C   UNL     1       6.216   6.551  17.482  0.00  0.00    +0.000 C 
ATOM      8  O   UNL     1       5.510   7.418  17.000  0.00  0.00    +0.000 OA
ATOM      9  H   UNL     1       7.362   5.544  20.764  0.00  0.00    +0.000 HD
ATOM     10  H   UNL     1       8.550   6.528  20.350  0.00  0.00    +0.000 HD
ENDROOT
BRANCH   1  14
ATOM     11  C   UNL     1       2.048   5.622  20.119  0.00  0.00    +0.000 C 
ATOM     12  C   UNL     1       2.778   4.608  19.284  0.00  0.00    +0.000 A 
ATOM     13  C   UNL     1       3.884   5.100  18.575  0.00  0.00    +0.000 A 
ATOM     14  C   UNL     1       4.810   4.284  17.871  0.00  0.00    +0.000 A 
ATOM     15  C   UNL     1       4.541   2.928  17.793  0.00  0.00    +0.000 A 
ATOM     16  C   UNL     1       3.415   2.421  18.463  0.00  0.00    +0.000 A 
ATOM     17  C   UNL     1       2.543   3.234  19.225  0.00  0.00    +0.000 A 
BRANCH  17  18
ATOM     18  O   UNL     1       1.592   2.500  19.878  0.00  0.00    +0.000 OA
BRANCH  18  19
ATOM     19  C   UNL     1       1.754   2.206  21.249  0.00  0.00    +0.000 C 
ATOM     20  F   UNL     1       3.021   2.567  21.588  0.00  0.00    +0.000 F 
ATOM     21  F   UNL     1       0.933   3.002  21.976  0.00  0.00    +0.000 F 
ENDBRANCH  18  19
ENDBRANCH  17  18
ENDBRANCH   1  14
BRANCH   1  22
ATOM     22  C   UNL     1       6.225   4.703  15.857  0.00  0.00    +0.000 A 
ATOM     23  C   UNL     1       7.388   4.969  15.129  0.00  0.00    +0.000 A 
ATOM     24  C   UNL     1       7.422   4.718  13.751  0.00  0.00    +0.000 A 
ATOM     25  C   UNL     1       6.305   4.205  13.089  0.00  0.00    +0.000 A 
ATOM     26  C   UNL     1       5.153   3.911  13.800  0.00  0.00    +0.000 A 
ATOM     27  C   UNL     1       5.117   4.152  15.169  0.00  0.00    +0.000 A 
ENDBRANCH   1  22
TORSDOF 4
ENDMDL
MODEL 6
REMARK VINA RESULT:      -8.3      3.946      6.633
REMARK  Name = 
REMARK  6 active torsions:
REMARK  status: ('A' for Active; 'I' for Inactive)
REMARK    1  A    between atoms: C_1  and  C_2
REMARK    2  A    between atoms: C_4  and  C_5
REMARK    3  A    between atoms: C_5  and  C_6
REMARK    4  A    between atoms: N_15  and  C_16
REMARK    5  A    between atoms: C_21  and  O_22
REMARK    6  A    between atoms: O_22  and  C_23
REMARK                            x       y       z     vdW  Elec       q    Type
REMARK                         _______ _______ _______ _____ _____    ______ ____
ROOT
ATOM      1  C   UNL     1       5.958   5.227  17.215  0.00  0.00    +0.000 C 
ATOM      2  N   UNL     1       6.943   4.662  18.196  0.00  0.00    +0.000 NA
ATOM      3  C   UNL     1       7.501   5.684  18.754  0.00  0.00    +0.000 C 
ATOM      4  N   UNL     1       8.027   5.676  20.006  0.00  0.00    +0.000 N 
ATOM      5  N   UNL     1       7.402   6.837  18.087  0.00  0.00    +0.000 N 
ATOM      6  C   UNL     1       8.439   7.843  17.972  0.00  0.00    +0.000 C 
ATOM      7  C   UNL     1       6.278   6.745  17.319  0.00  0.00    +0.000 C 
ATOM      8  O   UNL     1       5.686   7.676  16.803  0.00  0.00    +0.000 OA
ATOM      9  H   UNL     1       7.226   5.682  20.645  0.00  0.00    +0.000 HD
ATOM     10  H   UNL     1       8.526   6.520  20.246  0.00  0.00    +0.000 HD
ENDROOT
BRANCH   1  14
ATOM     11  C   UNL     1       3.783   1.081  18.703  0.00  0.00    +0.000 C 
ATOM     12  C   UNL     1       3.525   2.541  18.453  0.00  0.00    +0.000 A 
ATOM     13  C   UNL     1       4.660   3.306  18.147  0.00  0.00    +0.000 A 
ATOM     14  C   UNL     1       4.620   4.656  17.708  0.00  0.00    +0.000 A 
ATOM     15  C   UNL     1       3.387   5.287  17.685  0.00  0.00    +0.000 A 
ATOM     16  C   UNL     1       2.242   4.549  18.027  0.00  0.00    +0.000 A 
ATOM     17  C   UNL     1       2.287   3.182  18.389  0.00  0.00    +0.000 A 
BRANCH  17  18
ATOM     18  O   UNL     1       1.040   2.652  18.564  0.00  0.00    +0.000 OA
BRANCH  18  19
ATOM     19  C   UNL     1       0.438   2.684  19.841  0.00  0.00    +0.000 C 
ATOM     20  F   UNL     1       1.325   2.135  20.713  0.00  0.00    +0.000 F 
ATOM     21  F   UNL     1       0.282   3.972  20.230  0.00  0.00    +0.000 F 
ENDBRANCH  18  19
ENDBRANCH  17  18
ENDBRANCH   1  14
BRANCH   1  22
ATOM     22  C   UNL     1       6.121   4.876  15.725  0.00  0.00    +0.000 A 
ATOM     23  C   UNL     1       5.135   4.246  14.961  0.00  0.00    +0.000 A 
ATOM     24  C   UNL     1       5.397   3.907  13.627  0.00  0.00    +0.000 A 
ATOM     25  C   UNL     1       6.635   4.189  13.046  0.00  0.00    +0.000 A 
ATOM     26  C   UNL     1       7.614   4.837  13.781  0.00  0.00    +0.000 A 
ATOM     27  C   UNL     1       7.357   5.182  15.103  0.00  0.00    +0.000 A 
ENDBRANCH   1  22
TORSDOF 4
ENDMDL
MODEL 7
REMARK VINA RESULT:      -8.3      4.140      6.440
REMARK  Name = 
REMARK  6 active torsions:
REMARK  status: ('A' for Active; 'I' for Inactive)
REMARK    1  A    between atoms: C_1  and  C_2
REMARK    2  A    between atoms: C_4  and  C_5
REMARK    3  A    between atoms: C_5  and  C_6
REMARK    4  A    between atoms: N_15  and  C_16
REMARK    5  A    between atoms: C_21  and  O_22
REMARK    6  A    between atoms: O_22  and  C_23
REMARK                            x       y       z     vdW  Elec       q    Type
REMARK                         _______ _______ _______ _____ _____    ______ ____
ROOT
ATOM      1  C   UNL     1       3.279   4.464  18.335  0.00  0.00    +0.000 C 
ATOM      2  N   UNL     1       2.128   3.711  17.735  0.00  0.00    +0.000 NA
ATOM      3  C   UNL     1       2.175   2.532  18.260  0.00  0.00    +0.000 C 
ATOM      4  N   UNL     1       1.093   1.729  18.426  0.00  0.00    +0.000 N 
ATOM      5  N   UNL     1       3.347   2.179  18.793  0.00  0.00    +0.000 N 
ATOM      6  C   UNL     1       3.950   0.862  18.722  0.00  0.00    +0.000 C 
ATOM      7  C   UNL     1       3.977   3.336  19.147  0.00  0.00    +0.000 C 
ATOM      8  O   UNL     1       4.913   3.434  19.919  0.00  0.00    +0.000 OA
ATOM      9  H   UNL     1       0.566   2.128  19.209  0.00  0.00    +0.000 HD
ATOM     10  H   UNL     1       1.318   0.798  18.744  0.00  0.00    +0.000 HD
ENDROOT
BRANCH   1  14
ATOM     11  C   UNL     1       2.093   9.198  17.774  0.00  0.00    +0.000 C 
ATOM     12  C   UNL     1       1.999   8.051  18.741  0.00  0.00    +0.000 A 
ATOM     13  C   UNL     1       2.428   6.811  18.243  0.00  0.00    +0.000 A 
ATOM     14  C   UNL     1       2.587   5.643  19.036  0.00  0.00    +0.000 A 
ATOM     15  C   UNL     1       2.192   5.708  20.362  0.00  0.00    +0.000 A 
ATOM     16  C   UNL     1       1.722   6.931  20.869  0.00  0.00    +0.000 A 
ATOM     17  C   UNL     1       1.640   8.108  20.088  0.00  0.00    +0.000 A 
BRANCH  17  18
ATOM     18  O   UNL     1       1.266   9.194  20.828  0.00  0.00    +0.000 OA
BRANCH  18  19
ATOM     19  C   UNL     1      -0.104   9.479  21.010  0.00  0.00    +0.000 C 
ATOM     20  F   UNL     1      -0.652   9.614  19.773  0.00  0.00    +0.000 F 
ATOM     21  F   UNL     1      -0.713   8.407  21.573  0.00  0.00    +0.000 F 
ENDBRANCH  18  19
ENDBRANCH  17  18
ENDBRANCH   1  14
BRANCH   1  22
ATOM     22  C   UNL     1       4.363   5.021  17.395  0.00  0.00    +0.000 A 
ATOM     23  C   UNL     1       5.126   6.158  17.673  0.00  0.00    +0.000 A 
ATOM     24  C   UNL     1       6.047   6.630  16.727  0.00  0.00    +0.000 A 
ATOM     25  C   UNL     1       6.214   5.977  15.504  0.00  0.00    +0.000 A 
ATOM     26  C   UNL     1       5.486   4.833  15.224  0.00  0.00    +0.000 A 
ATOM     27  C   UNL     1       4.576   4.357  16.162  0.00  0.00    +0.000 A 
ENDBRANCH   1  22
TORSDOF 4
ENDMDL
MODEL 8
REMARK VINA RESULT:      -8.1      3.918      6.412
REMARK  Name = 
REMARK  6 active torsions:
REMARK  status: ('A' for Active; 'I' for Inactive)
REMARK    1  A    between atoms: C_1  and  C_2
REMARK    2  A    between atoms: C_4  and  C_5
REMARK    3  A    between atoms: C_5  and  C_6
REMARK    4  A    between atoms: N_15  and  C_16
REMARK    5  A    between atoms: C_21  and  O_22
REMARK    6  A    between atoms: O_22  and  C_23
REMARK                            x       y       z     vdW  Elec       q    Type
REMARK                         _______ _______ _______ _____ _____    ______ ____
ROOT
ATOM      1  C   UNL     1       3.439   5.262  18.162  0.00  0.00    +0.000 C 
ATOM      2  N   UNL     1       2.215   4.541  17.680  0.00  0.00    +0.000 NA
ATOM      3  C   UNL     1       1.993   3.616  18.553  0.00  0.00    +0.000 C 
ATOM      4  N   UNL     1       0.766   3.096  18.816  0.00  0.00    +0.000 N 
ATOM      5  N   UNL     1       3.029   3.284  19.327  0.00  0.00    +0.000 N 
ATOM      6  C   UNL     1       3.370   1.943  19.761  0.00  0.00    +0.000 C 
ATOM      7  C   UNL     1       3.841   4.379  19.378  0.00  0.00    +0.000 C 
ATOM      8  O   UNL     1       4.716   4.584  20.199  0.00  0.00    +0.000 OA
ATOM      9  H   UNL     1       0.267   3.813  19.352  0.00  0.00    +0.000 HD
ATOM     10  H   UNL     1       0.782   2.303  19.442  0.00  0.00    +0.000 HD
ENDROOT
BRANCH   1  14
ATOM     11  C   UNL     1       1.030   8.187  21.287  0.00  0.00    +0.000 C 
ATOM     12  C   UNL     1       1.703   8.173  19.943  0.00  0.00    +0.000 A 
ATOM     13  C   UNL     1       2.386   6.989  19.627  0.00  0.00    +0.000 A 
ATOM     14  C   UNL     1       2.937   6.701  18.350  0.00  0.00    +0.000 A 
ATOM     15  C   UNL     1       2.889   7.698  17.390  0.00  0.00    +0.000 A 
ATOM     16  C   UNL     1       2.245   8.907  17.701  0.00  0.00    +0.000 A 
ATOM     17  C   UNL     1       1.632   9.153  18.952  0.00  0.00    +0.000 A 
BRANCH  17  18
ATOM     18  O   UNL     1       0.970  10.349  18.977  0.00  0.00    +0.000 OA
BRANCH  18  19
ATOM     19  C   UNL     1      -0.386  10.405  18.592  0.00  0.00    +0.000 C 
ATOM     20  F   UNL     1      -0.528   9.597  17.507  0.00  0.00    +0.000 F 
ATOM     21  F   UNL     1      -1.152   9.857  19.566  0.00  0.00    +0.000 F 
ENDBRANCH  18  19
ENDBRANCH  17  18
ENDBRANCH   1  14
BRANCH   1  22
ATOM     22  C   UNL     1       4.681   5.291  17.252  0.00  0.00    +0.000 A 
ATOM     23  C   UNL     1       5.777   6.132  17.458  0.00  0.00    +0.000 A 
ATOM     24  C   UNL     1       6.836   6.137  16.539  0.00  0.00    +0.000 A 
ATOM     25  C   UNL     1       6.811   5.310  15.414  0.00  0.00    +0.000 A 
ATOM     26  C   UNL     1       5.744   4.451  15.209  0.00  0.00    +0.000 A 
ATOM     27  C   UNL     1       4.695   4.438  16.121  0.00  0.00    +0.000 A 
ENDBRANCH   1  22
TORSDOF 4
ENDMDL
MODEL 9
REMARK VINA RESULT:      -8.0      3.811      6.293
REMARK  Name = 
REMARK  6 active torsions:
REMARK  status: ('A' for Active; 'I' for Inactive)
REMARK    1  A    between atoms: C_1  and  C_2
REMARK    2  A    between atoms: C_4  and  C_5
REMARK    3  A    between atoms: C_5  and  C_6
REMARK    4  A    between atoms: N_15  and  C_16
REMARK    5  A    between atoms: C_21  and  O_22
REMARK    6  A    between atoms: O_22  and  C_23
REMARK                            x       y       z     vdW  Elec       q    Type
REMARK                         _______ _______ _______ _____ _____    ______ ____
ROOT
ATOM      1  C   UNL     1       3.553   4.994  17.906  0.00  0.00    +0.000 C 
ATOM      2  N   UNL     1       2.285   4.325  17.461  0.00  0.00    +0.000 NA
ATOM      3  C   UNL     1       2.089   3.362  18.299  0.00  0.00    +0.000 C 
ATOM      4  N   UNL     1       0.867   2.857  18.606  0.00  0.00    +0.000 N 
ATOM      5  N   UNL     1       3.159   2.969  18.995  0.00  0.00    +0.000 N 
ATOM      6  C   UNL     1       3.490   1.601  19.343  0.00  0.00    +0.000 C 
ATOM      7  C   UNL     1       4.000   4.042  19.053  0.00  0.00    +0.000 C 
ATOM      8  O   UNL     1       4.925   4.186  19.831  0.00  0.00    +0.000 OA
ATOM      9  H   UNL     1       0.417   3.557  19.204  0.00  0.00    +0.000 HD
ATOM     10  H   UNL     1       0.898   2.034  19.190  0.00  0.00    +0.000 HD
ENDROOT
BRANCH   1  14
ATOM     11  C   UNL     1       1.175   7.762  21.195  0.00  0.00    +0.000 C 
ATOM     12  C   UNL     1       1.879   7.825  19.868  0.00  0.00    +0.000 A 
ATOM     13  C   UNL     1       2.527   6.644  19.476  0.00  0.00    +0.000 A 
ATOM     14  C   UNL     1       3.097   6.432  18.193  0.00  0.00    +0.000 A 
ATOM     15  C   UNL     1       3.108   7.500  17.311  0.00  0.00    +0.000 A 
ATOM     16  C   UNL     1       2.500   8.706  17.700  0.00  0.00    +0.000 A 
ATOM     17  C   UNL     1       1.867   8.879  18.954  0.00  0.00    +0.000 A 
BRANCH  17  18
ATOM     18  O   UNL     1       1.248  10.093  19.056  0.00  0.00    +0.000 OA
BRANCH  18  19
ATOM     19  C   UNL     1      -0.098  10.228  18.653  0.00  0.00    +0.000 C 
ATOM     20  F   UNL     1      -0.279   9.408  17.583  0.00  0.00    +0.000 F 
ATOM     21  F   UNL     1      -0.907   9.751  19.629  0.00  0.00    +0.000 F 
ENDBRANCH  18  19
ENDBRANCH  17  18
ENDBRANCH   1  14
BRANCH   1  22
ATOM     22  C   UNL     1       4.741   5.041  16.929  0.00  0.00    +0.000 A 
ATOM     23  C   UNL     1       4.787   4.337  15.723  0.00  0.00    +0.000 A 
ATOM     24  C   UNL     1       5.939   4.389  14.927  0.00  0.00    +0.000 A 
ATOM     25  C   UNL     1       7.050   5.138  15.323  0.00  0.00    +0.000 A 
ATOM     26  C   UNL     1       7.011   5.863  16.503  0.00  0.00    +0.000 A 
ATOM     27  C   UNL     1       5.868   5.820  17.293  0.00  0.00    +0.000 A 
ENDBRANCH   1  22
TORSDOF 4
ENDMDL
