MODEL 1
REMARK VINA RESULT:      -6.8      0.000      0.000
REMARK  Name = 
REMARK  5 active torsions:
REMARK  status: ('A' for Active; 'I' for Inactive)
REMARK    1  A    between atoms: C_2  and  C_3
REMARK    2  A    between atoms: C_3  and  O_4
REMARK    3  A    between atoms: O_4  and  C_5
REMARK    4  A    between atoms: C_5  and  C_7
REMARK    5  A    between atoms: N_12  and  C_13
REMARK                            x       y       z     vdW  Elec       q    Type
REMARK                         _______ _______ _______ _____ _____    ______ ____
ROOT
ATOM      1  O   UNL     1       6.306   5.630  19.727  0.00  0.00    +0.000 OA
ATOM      2  C   UNL     1       6.502   4.754  18.888  0.00  0.00    +0.000 C 
ATOM      3  N   UNL     1       5.639   3.702  18.672  0.00  0.00    +0.000 N 
ATOM      4  H   UNL     1       5.919   2.997  18.004  0.00  0.00    +0.000 HD
ENDROOT
BRANCH   3   5
ATOM      5  C   UNL     1       4.397   3.529  19.418  0.00  0.00    +0.000 C 
ATOM      6  C   UNL     1       3.387   4.610  19.028  0.00  0.00    +0.000 C 
ATOM      7  C   UNL     1       2.897   4.432  17.595  0.00  0.00    +0.000 C 
ATOM      8  C   UNL     1       2.255   3.067  17.385  0.00  0.00    +0.000 C 
ATOM      9  C   UNL     1       3.080   1.893  17.915  0.00  0.00    +0.000 C 
ATOM     10  C   UNL     1       3.782   2.135  19.253  0.00  0.00    +0.000 C 
ENDBRANCH   3   5
BRANCH   2  11
ATOM     11  C   UNL     1       7.668   4.832  17.892  0.00  0.00    +0.000 C 
BRANCH  11  12
ATOM     12  O   UNL     1       7.415   4.331  16.579  0.00  0.00    +0.000 OA
BRANCH  12  13
ATOM     13  C   UNL     1       6.962   5.279  15.698  0.00  0.00    +0.000 C 
ATOM     14  O   UNL     1       6.783   6.448  15.999  0.00  0.00    +0.000 OA
BRANCH  13  15
ATOM     15  C   UNL     1       6.753   4.678  14.393  0.00  0.00    +0.000 A 
ATOM     16  C   UNL     1       5.736   3.851  13.945  0.00  0.00    +0.000 A 
ATOM     17  C   UNL     1       5.891   3.491  12.573  0.00  0.00    +0.000 A 
ATOM     18  C   UNL     1       7.020   4.048  12.017  0.00  0.00    +0.000 A 
ATOM     19  S   UNL     1       7.880   5.001  13.141  0.00  0.00    +0.000 S 
ENDBRANCH  13  15
ENDBRANCH  12  13
ENDBRANCH  11  12
ENDBRANCH   2  11
TORSDOF 5
ENDMDL
MODEL 2
REMARK VINA RESULT:      -6.8      1.636      2.163
REMARK  Name = 
REMARK  5 active torsions:
REMARK  status: ('A' for Active; 'I' for Inactive)
REMARK    1  A    between atoms: C_2  and  C_3
REMARK    2  A    between atoms: C_3  and  O_4
REMARK    3  A    between atoms: O_4  and  C_5
REMARK    4  A    between atoms: C_5  and  C_7
REMARK    5  A    between atoms: N_12  and  C_13
REMARK                            x       y       z     vdW  Elec       q    Type
REMARK                         _______ _______ _______ _____ _____    ______ ____
ROOT
ATOM      1  O   UNL     1       4.256   6.940  17.707  0.00  0.00    +0.000 OA
ATOM      2  C   UNL     1       4.588   5.813  18.069  0.00  0.00    +0.000 C 
ATOM      3  N   UNL     1       3.705   4.893  18.591  0.00  0.00    +0.000 N 
ATOM      4  H   UNL     1       4.084   4.015  18.920  0.00  0.00    +0.000 HD
ENDROOT
BRANCH   3   5
ATOM      5  C   UNL     1       2.281   5.165  18.759  0.00  0.00    +0.000 C 
ATOM      6  C   UNL     1       1.448   4.083  18.069  0.00  0.00    +0.000 C 
ATOM      7  C   UNL     1       1.576   2.738  18.777  0.00  0.00    +0.000 C 
ATOM      8  C   UNL     1       1.148   2.826  20.236  0.00  0.00    +0.000 C 
ATOM      9  C   UNL     1       1.762   3.998  21.003  0.00  0.00    +0.000 C 
ATOM     10  C   UNL     1       1.863   5.312  20.226  0.00  0.00    +0.000 C 
ENDBRANCH   3   5
BRANCH   2  11
ATOM     11  C   UNL     1       6.005   5.270  17.835  0.00  0.00    +0.000 C 
BRANCH  11  12
ATOM     12  O   UNL     1       6.218   4.561  16.614  0.00  0.00    +0.000 OA
BRANCH  12  13
ATOM     13  C   UNL     1       6.930   5.265  15.677  0.00  0.00    +0.000 C 
ATOM     14  O   UNL     1       7.610   6.243  15.942  0.00  0.00    +0.000 OA
BRANCH  13  15
ATOM     15  C   UNL     1       6.751   4.662  14.369  0.00  0.00    +0.000 A 
ATOM     16  C   UNL     1       5.793   3.767  13.922  0.00  0.00    +0.000 A 
ATOM     17  C   UNL     1       5.958   3.432  12.545  0.00  0.00    +0.000 A 
ATOM     18  C   UNL     1       7.036   4.077  11.984  0.00  0.00    +0.000 A 
ATOM     19  S   UNL     1       7.836   5.080  13.108  0.00  0.00    +0.000 S 
ENDBRANCH  13  15
ENDBRANCH  12  13
ENDBRANCH  11  12
ENDBRANCH   2  11
TORSDOF 5
ENDMDL
MODEL 3
REMARK VINA RESULT:      -6.7      1.537      1.722
REMARK  Name = 
REMARK  5 active torsions:
REMARK  status: ('A' for Active; 'I' for Inactive)
REMARK    1  A    between atoms: C_2  and  C_3
REMARK    2  A    between atoms: C_3  and  O_4
REMARK    3  A    between atoms: O_4  and  C_5
REMARK    4  A    between atoms: C_5  and  C_7
REMARK    5  A    between atoms: N_12  and  C_13
REMARK                            x       y       z     vdW  Elec       q    Type
REMARK                         _______ _______ _______ _____ _____    ______ ____
ROOT
ATOM      1  O   UNL     1       6.129   4.158  18.856  0.00  0.00    +0.000 OA
ATOM      2  C   UNL     1       5.126   4.638  18.333  0.00  0.00    +0.000 C 
ATOM      3  N   UNL     1       3.846   4.211  18.610  0.00  0.00    +0.000 N 
ATOM      4  H   UNL     1       3.090   4.624  18.081  0.00  0.00    +0.000 HD
ENDROOT
BRANCH   3   5
ATOM      5  C   UNL     1       3.555   3.145  19.563  0.00  0.00    +0.000 C 
ATOM      6  C   UNL     1       2.826   3.708  20.785  0.00  0.00    +0.000 C 
ATOM      7  C   UNL     1       1.419   4.181  20.433  0.00  0.00    +0.000 C 
ATOM      8  C   UNL     1       0.579   3.058  19.840  0.00  0.00    +0.000 C 
ATOM      9  C   UNL     1       1.273   2.273  18.726  0.00  0.00    +0.000 C 
ATOM     10  C   UNL     1       2.759   1.987  18.950  0.00  0.00    +0.000 C 
ENDBRANCH   3   5
BRANCH   2  11
ATOM     11  C   UNL     1       5.199   5.871  17.421  0.00  0.00    +0.000 C 
BRANCH  11  12
ATOM     12  O   UNL     1       5.267   5.617  16.017  0.00  0.00    +0.000 OA
BRANCH  12  13
ATOM     13  C   UNL     1       6.544   5.494  15.533  0.00  0.00    +0.000 C 
ATOM     14  O   UNL     1       7.528   5.927  16.110  0.00  0.00    +0.000 OA
BRANCH  13  15
ATOM     15  C   UNL     1       6.524   4.778  14.271  0.00  0.00    +0.000 A 
ATOM     16  C   UNL     1       5.618   3.849  13.786  0.00  0.00    +0.000 A 
ATOM     17  C   UNL     1       5.952   3.392  12.476  0.00  0.00    +0.000 A 
ATOM     18  C   UNL     1       7.103   3.980  12.003  0.00  0.00    +0.000 A 
ATOM     19  S   UNL     1       7.768   5.078  13.127  0.00  0.00    +0.000 S 
ENDBRANCH  13  15
ENDBRANCH  12  13
ENDBRANCH  11  12
ENDBRANCH   2  11
TORSDOF 5
ENDMDL
MODEL 4
REMARK VINA RESULT:      -6.6      3.337      5.673
REMARK  Name = 
REMARK  5 active torsions:
REMARK  status: ('A' for Active; 'I' for Inactive)
REMARK    1  A    between atoms: C_2  and  C_3
REMARK    2  A    between atoms: C_3  and  O_4
REMARK    3  A    between atoms: O_4  and  C_5
REMARK    4  A    between atoms: C_5  and  C_7
REMARK    5  A    between atoms: N_12  and  C_13
REMARK                            x       y       z     vdW  Elec       q    Type
REMARK                         _______ _______ _______ _____ _____    ______ ____
ROOT
ATOM      1  O   UNL     1       2.863   8.130  17.417  0.00  0.00    +0.000 OA
ATOM      2  C   UNL     1       3.198   7.200  18.149  0.00  0.00    +0.000 C 
ATOM      3  N   UNL     1       4.307   6.416  17.921  0.00  0.00    +0.000 N 
ATOM      4  H   UNL     1       4.464   5.635  18.543  0.00  0.00    +0.000 HD
ENDROOT
BRANCH   3   5
ATOM      5  C   UNL     1       5.203   6.618  16.786  0.00  0.00    +0.000 C 
ATOM      6  C   UNL     1       6.608   6.974  17.275  0.00  0.00    +0.000 C 
ATOM      7  C   UNL     1       7.278   5.794  17.972  0.00  0.00    +0.000 C 
ATOM      8  C   UNL     1       7.373   4.580  17.058  0.00  0.00    +0.000 C 
ATOM      9  C   UNL     1       6.069   4.226  16.341  0.00  0.00    +0.000 C 
ATOM     10  C   UNL     1       5.253   5.418  15.834  0.00  0.00    +0.000 C 
ENDBRANCH   3   5
BRANCH   2  11
ATOM     11  C   UNL     1       2.483   6.918  19.478  0.00  0.00    +0.000 C 
BRANCH  11  12
ATOM     12  O   UNL     1       2.856   5.717  20.154  0.00  0.00    +0.000 OA
BRANCH  12  13
ATOM     13  C   UNL     1       1.916   4.721  20.083  0.00  0.00    +0.000 C 
ATOM     14  O   UNL     1       0.850   4.756  20.676  0.00  0.00    +0.000 OA
BRANCH  13  15
ATOM     15  C   UNL     1       2.385   3.664  19.204  0.00  0.00    +0.000 A 
ATOM     16  C   UNL     1       1.799   3.119  18.074  0.00  0.00    +0.000 A 
ATOM     17  C   UNL     1       2.602   2.101  17.479  0.00  0.00    +0.000 A 
ATOM     18  C   UNL     1       3.774   1.898  18.173  0.00  0.00    +0.000 A 
ATOM     19  S   UNL     1       3.902   2.930  19.525  0.00  0.00    +0.000 S 
ENDBRANCH  13  15
ENDBRANCH  12  13
ENDBRANCH  11  12
ENDBRANCH   2  11
TORSDOF 5
ENDMDL
MODEL 5
REMARK VINA RESULT:      -6.5      1.014      1.234
REMARK  Name = 
REMARK  5 active torsions:
REMARK  status: ('A' for Active; 'I' for Inactive)
REMARK    1  A    between atoms: C_2  and  C_3
REMARK    2  A    between atoms: C_3  and  O_4
REMARK    3  A    between atoms: O_4  and  C_5
REMARK    4  A    between atoms: C_5  and  C_7
REMARK    5  A    between atoms: N_12  and  C_13
REMARK                            x       y       z     vdW  Elec       q    Type
REMARK                         _______ _______ _______ _____ _____    ______ ____
ROOT
ATOM      1  O   UNL     1       6.829   5.150  19.925  0.00  0.00    +0.000 OA
ATOM      2  C   UNL     1       6.573   4.982  18.735  0.00  0.00    +0.000 C 
ATOM      3  N   UNL     1       5.424   4.370  18.284  0.00  0.00    +0.000 N 
ATOM      4  H   UNL     1       5.333   4.219  17.288  0.00  0.00    +0.000 HD
ENDROOT
BRANCH   3   5
ATOM      5  C   UNL     1       4.389   3.866  19.182  0.00  0.00    +0.000 C 
ATOM      6  C   UNL     1       3.417   4.987  19.553  0.00  0.00    +0.000 C 
ATOM      7  C   UNL     1       2.580   5.427  18.356  0.00  0.00    +0.000 C 
ATOM      8  C   UNL     1       1.785   4.269  17.768  0.00  0.00    +0.000 C 
ATOM      9  C   UNL     1       2.605   3.000  17.527  0.00  0.00    +0.000 C 
ATOM     10  C   UNL     1       3.629   2.663  18.613  0.00  0.00    +0.000 C 
ENDBRANCH   3   5
BRANCH   2  11
ATOM     11  C   UNL     1       7.453   5.574  17.625  0.00  0.00    +0.000 C 
BRANCH  11  12
ATOM     12  O   UNL     1       7.397   4.921  16.356  0.00  0.00    +0.000 OA
BRANCH  12  13
ATOM     13  C   UNL     1       6.562   5.527  15.453  0.00  0.00    +0.000 C 
ATOM     14  O   UNL     1       5.830   6.462  15.734  0.00  0.00    +0.000 OA
BRANCH  13  15
ATOM     15  C   UNL     1       6.702   4.896  14.153  0.00  0.00    +0.000 A 
ATOM     16  C   UNL     1       7.652   5.094  13.164  0.00  0.00    +0.000 A 
ATOM     17  C   UNL     1       7.444   4.250  12.032  0.00  0.00    +0.000 A 
ATOM     18  C   UNL     1       6.343   3.439  12.188  0.00  0.00    +0.000 A 
ATOM     19  S   UNL     1       5.573   3.690  13.689  0.00  0.00    +0.000 S 
ENDBRANCH  13  15
ENDBRANCH  12  13
ENDBRANCH  11  12
ENDBRANCH   2  11
TORSDOF 5
ENDMDL
MODEL 6
REMARK VINA RESULT:      -6.4      1.423      2.111
REMARK  Name = 
REMARK  5 active torsions:
REMARK  status: ('A' for Active; 'I' for Inactive)
REMARK    1  A    between atoms: C_2  and  C_3
REMARK    2  A    between atoms: C_3  and  O_4
REMARK    3  A    between atoms: O_4  and  C_5
REMARK    4  A    between atoms: C_5  and  C_7
REMARK    5  A    between atoms: N_12  and  C_13
REMARK                            x       y       z     vdW  Elec       q    Type
REMARK                         _______ _______ _______ _____ _____    ______ ____
ROOT
ATOM      1  O   UNL     1       4.185   5.924  17.335  0.00  0.00    +0.000 OA
ATOM      2  C   UNL     1       4.690   4.869  17.714  0.00  0.00    +0.000 C 
ATOM      3  N   UNL     1       3.985   3.693  17.842  0.00  0.00    +0.000 N 
ATOM      4  H   UNL     1       4.474   2.894  18.223  0.00  0.00    +0.000 HD
ENDROOT
BRANCH   3   5
ATOM      5  C   UNL     1       2.563   3.582  17.533  0.00  0.00    +0.000 C 
ATOM      6  C   UNL     1       2.052   2.183  17.880  0.00  0.00    +0.000 C 
ATOM      7  C   UNL     1       2.044   1.944  19.387  0.00  0.00    +0.000 C 
ATOM      8  C   UNL     1       1.188   2.971  20.116  0.00  0.00    +0.000 C 
ATOM      9  C   UNL     1       1.462   4.420  19.713  0.00  0.00    +0.000 C 
ATOM     10  C   UNL     1       1.709   4.652  18.221  0.00  0.00    +0.000 C 
ENDBRANCH   3   5
BRANCH   2  11
ATOM     11  C   UNL     1       6.202   4.731  17.942  0.00  0.00    +0.000 C 
BRANCH  11  12
ATOM     12  O   UNL     1       6.973   4.285  16.825  0.00  0.00    +0.000 OA
BRANCH  12  13
ATOM     13  C   UNL     1       7.154   5.238  15.856  0.00  0.00    +0.000 C 
ATOM     14  O   UNL     1       7.507   6.382  16.093  0.00  0.00    +0.000 OA
BRANCH  13  15
ATOM     15  C   UNL     1       6.874   4.670  14.550  0.00  0.00    +0.000 A 
ATOM     16  C   UNL     1       5.880   3.790  14.154  0.00  0.00    +0.000 A 
ATOM     17  C   UNL     1       5.940   3.491  12.760  0.00  0.00    +0.000 A 
ATOM     18  C   UNL     1       6.977   4.145  12.136  0.00  0.00    +0.000 A 
ATOM     19  S   UNL     1       7.865   5.116  13.222  0.00  0.00    +0.000 S 
ENDBRANCH  13  15
ENDBRANCH  12  13
ENDBRANCH  11  12
ENDBRANCH   2  11
TORSDOF 5
ENDMDL
MODEL 7
REMARK VINA RESULT:      -6.3      3.088      4.070
REMARK  Name = 
REMARK  5 active torsions:
REMARK  status: ('A' for Active; 'I' for Inactive)
REMARK    1  A    between atoms: C_2  and  C_3
REMARK    2  A    between atoms: C_3  and  O_4
REMARK    3  A    between atoms: O_4  and  C_5
REMARK    4  A    between atoms: C_5  and  C_7
REMARK    5  A    between atoms: N_12  and  C_13
REMARK                            x       y       z     vdW  Elec       q    Type
REMARK                         _______ _______ _______ _____ _____    ______ ____
ROOT
ATOM      1  O   UNL     1       2.214   7.260  19.865  0.00  0.00    +0.000 OA
ATOM      2  C   UNL     1       2.889   6.553  19.120  0.00  0.00    +0.000 C 
ATOM      3  N   UNL     1       3.054   5.197  19.303  0.00  0.00    +0.000 N 
ATOM      4  H   UNL     1       3.681   4.713  18.674  0.00  0.00    +0.000 HD
ENDROOT
BRANCH   3   5
ATOM      5  C   UNL     1       2.436   4.464  20.402  0.00  0.00    +0.000 C 
ATOM      6  C   UNL     1       0.970   4.163  20.082  0.00  0.00    +0.000 C 
ATOM      7  C   UNL     1       0.838   3.155  18.944  0.00  0.00    +0.000 C 
ATOM      8  C   UNL     1       1.545   1.846  19.267  0.00  0.00    +0.000 C 
ATOM      9  C   UNL     1       2.971   2.012  19.793  0.00  0.00    +0.000 C 
ATOM     10  C   UNL     1       3.182   3.175  20.765  0.00  0.00    +0.000 C 
ENDBRANCH   3   5
BRANCH   2  11
ATOM     11  C   UNL     1       3.497   7.096  17.819  0.00  0.00    +0.000 C 
BRANCH  11  12
ATOM     12  O   UNL     1       4.030   6.126  16.915  0.00  0.00    +0.000 OA
BRANCH  12  13
ATOM     13  C   UNL     1       5.193   6.514  16.303  0.00  0.00    +0.000 C 
ATOM     14  O   UNL     1       5.261   6.839  15.128  0.00  0.00    +0.000 OA
BRANCH  13  15
ATOM     15  C   UNL     1       6.286   6.484  17.259  0.00  0.00    +0.000 A 
ATOM     16  C   UNL     1       7.226   7.453  17.568  0.00  0.00    +0.000 A 
ATOM     17  C   UNL     1       8.128   7.031  18.591  0.00  0.00    +0.000 A 
ATOM     18  C   UNL     1       7.852   5.755  19.028  0.00  0.00    +0.000 A 
ATOM     19  S   UNL     1       6.514   5.078  18.214  0.00  0.00    +0.000 S 
ENDBRANCH  13  15
ENDBRANCH  12  13
ENDBRANCH  11  12
ENDBRANCH   2  11
TORSDOF 5
ENDMDL
MODEL 8
REMARK VINA RESULT:      -6.3      0.960      1.253
REMARK  Name = 
REMARK  5 active torsions:
REMARK  status: ('A' for Active; 'I' for Inactive)
REMARK    1  A    between atoms: C_2  and  C_3
REMARK    2  A    between atoms: C_3  and  O_4
REMARK    3  A    between atoms: O_4  and  C_5
REMARK    4  A    between atoms: C_5  and  C_7
REMARK    5  A    between atoms: N_12  and  C_13
REMARK                            x       y       z     vdW  Elec       q    Type
REMARK                         _______ _______ _______ _____ _____    ______ ____
ROOT
ATOM      1  O   UNL     1       6.453   4.882  19.277  0.00  0.00    +0.000 OA
ATOM      2  C   UNL     1       5.768   5.480  18.450  0.00  0.00    +0.000 C 
ATOM      3  N   UNL     1       4.391   5.429  18.425  0.00  0.00    +0.000 N 
ATOM      4  H   UNL     1       3.919   5.903  17.666  0.00  0.00    +0.000 HD
ENDROOT
BRANCH   3   5
ATOM      5  C   UNL     1       3.608   4.662  19.388  0.00  0.00    +0.000 C 
ATOM      6  C   UNL     1       2.112   4.869  19.141  0.00  0.00    +0.000 C 
ATOM      7  C   UNL     1       1.665   4.236  17.827  0.00  0.00    +0.000 C 
ATOM      8  C   UNL     1       1.963   2.743  17.791  0.00  0.00    +0.000 C 
ATOM      9  C   UNL     1       3.386   2.373  18.212  0.00  0.00    +0.000 C 
ATOM     10  C   UNL     1       3.949   3.168  19.392  0.00  0.00    +0.000 C 
ENDBRANCH   3   5
BRANCH   2  11
ATOM     11  C   UNL     1       6.384   6.465  17.447  0.00  0.00    +0.000 C 
BRANCH  11  12
ATOM     12  O   UNL     1       6.337   6.083  16.072  0.00  0.00    +0.000 OA
BRANCH  12  13
ATOM     13  C   UNL     1       7.124   5.003  15.765  0.00  0.00    +0.000 C 
ATOM     14  O   UNL     1       7.948   4.531  16.532  0.00  0.00    +0.000 OA
BRANCH  13  15
ATOM     15  C   UNL     1       6.813   4.531  14.428  0.00  0.00    +0.000 A 
ATOM     16  C   UNL     1       5.768   3.738  13.983  0.00  0.00    +0.000 A 
ATOM     17  C   UNL     1       5.812   3.517  12.574  0.00  0.00    +0.000 A 
ATOM     18  C   UNL     1       6.889   4.143  11.987  0.00  0.00    +0.000 A 
ATOM     19  S   UNL     1       7.832   4.992  13.127  0.00  0.00    +0.000 S 
ENDBRANCH  13  15
ENDBRANCH  12  13
ENDBRANCH  11  12
ENDBRANCH   2  11
TORSDOF 5
ENDMDL
MODEL 9
REMARK VINA RESULT:      -6.3      3.604      5.910
REMARK  Name = 
REMARK  5 active torsions:
REMARK  status: ('A' for Active; 'I' for Inactive)
REMARK    1  A    between atoms: C_2  and  C_3
REMARK    2  A    between atoms: C_3  and  O_4
REMARK    3  A    between atoms: O_4  and  C_5
REMARK    4  A    between atoms: C_5  and  C_7
REMARK    5  A    between atoms: N_12  and  C_13
REMARK                            x       y       z     vdW  Elec       q    Type
REMARK                         _______ _______ _______ _____ _____    ______ ____
ROOT
ATOM      1  O   UNL     1       1.998   5.761  17.919  0.00  0.00    +0.000 OA
ATOM      2  C   UNL     1       2.836   5.872  18.811  0.00  0.00    +0.000 C 
ATOM      3  N   UNL     1       4.165   6.146  18.575  0.00  0.00    +0.000 N 
ATOM      4  H   UNL     1       4.790   6.155  19.370  0.00  0.00    +0.000 HD
ENDROOT
BRANCH   3   5
ATOM      5  C   UNL     1       4.710   6.340  17.235  0.00  0.00    +0.000 C 
ATOM      6  C   UNL     1       6.089   6.997  17.312  0.00  0.00    +0.000 C 
ATOM      7  C   UNL     1       7.127   6.058  17.919  0.00  0.00    +0.000 C 
ATOM      8  C   UNL     1       7.248   4.763  17.126  0.00  0.00    +0.000 C 
ATOM      9  C   UNL     1       5.910   4.094  16.804  0.00  0.00    +0.000 C 
ATOM     10  C   UNL     1       4.776   5.046  16.416  0.00  0.00    +0.000 C 
ENDBRANCH   3   5
BRANCH   2  11
ATOM     11  C   UNL     1       2.445   5.859  20.296  0.00  0.00    +0.000 C 
BRANCH  11  12
ATOM     12  O   UNL     1       1.505   4.861  20.695  0.00  0.00    +0.000 OA
BRANCH  12  13
ATOM     13  C   UNL     1       2.079   3.689  21.113  0.00  0.00    +0.000 C 
ATOM     14  O   UNL     1       2.246   3.401  22.287  0.00  0.00    +0.000 OA
BRANCH  13  15
ATOM     15  C   UNL     1       2.431   2.875  19.963  0.00  0.00    +0.000 A 
ATOM     16  C   UNL     1       1.645   2.427  18.914  0.00  0.00    +0.000 A 
ATOM     17  C   UNL     1       2.386   1.661  17.965  0.00  0.00    +0.000 A 
ATOM     18  C   UNL     1       3.712   1.545  18.319  0.00  0.00    +0.000 A 
ATOM     19  S   UNL     1       4.056   2.357  19.779  0.00  0.00    +0.000 S 
ENDBRANCH  13  15
ENDBRANCH  12  13
ENDBRANCH  11  12
ENDBRANCH   2  11
TORSDOF 5
ENDMDL
