MODEL 1
REMARK VINA RESULT:      -7.1      0.000      0.000
REMARK  Name = 
REMARK  1 active torsions:
REMARK  status: ('A' for Active; 'I' for Inactive)
REMARK    1  A    between atoms: C_1  and  C_2
REMARK                            x       y       z     vdW  Elec       q    Type
REMARK                         _______ _______ _______ _____ _____    ______ ____
ROOT
ATOM      1  C   UNL     1       0.663   2.107  18.586  0.00  0.00    +0.000 C 
ATOM      2  C   UNL     1       2.022   2.694  18.828  0.00  0.00    +0.000 A 
ATOM      3  C   UNL     1       2.903   2.172  19.774  0.00  0.00    +0.000 A 
ATOM      4  C   UNL     1       4.159   2.756  19.962  0.00  0.00    +0.000 A 
ATOM      5  C   UNL     1       4.553   3.871  19.205  0.00  0.00    +0.000 A 
ATOM      6  C   UNL     1       3.677   4.395  18.258  0.00  0.00    +0.000 A 
ATOM      7  C   UNL     1       2.422   3.804  18.076  0.00  0.00    +0.000 A 
ATOM      8  S   UNL     1       4.057   5.793  17.247  0.00  0.00    +0.000 S 
ATOM      9  C   UNL     1       5.685   6.164  17.820  0.00  0.00    +0.000 A 
ATOM     10  C   UNL     1       6.340   7.251  17.224  0.00  0.00    +0.000 A 
ATOM     11  C   UNL     1       7.628   7.612  17.618  0.00  0.00    +0.000 A 
ATOM     12  C   UNL     1       8.271   6.885  18.614  0.00  0.00    +0.000 A 
ATOM     13  C   UNL     1       7.625   5.801  19.211  0.00  0.00    +0.000 A 
ATOM     14  C   UNL     1       6.328   5.433  18.818  0.00  0.00    +0.000 A 
ATOM     15  O   UNL     1       5.810   4.349  19.486  0.00  0.00    +0.000 OA
ENDROOT
TORSDOF 0
ENDMDL
MODEL 2
REMARK VINA RESULT:      -7.0      2.436      5.545
REMARK  Name = 
REMARK  1 active torsions:
REMARK  status: ('A' for Active; 'I' for Inactive)
REMARK    1  A    between atoms: C_1  and  C_2
REMARK                            x       y       z     vdW  Elec       q    Type
REMARK                         _______ _______ _______ _____ _____    ______ ____
ROOT
ATOM      1  C   UNL     1       6.873   4.785  14.088  0.00  0.00    +0.000 C 
ATOM      2  C   UNL     1       5.920   5.008  15.225  0.00  0.00    +0.000 A 
ATOM      3  C   UNL     1       5.572   6.284  15.668  0.00  0.00    +0.000 A 
ATOM      4  C   UNL     1       4.679   6.439  16.732  0.00  0.00    +0.000 A 
ATOM      5  C   UNL     1       4.120   5.319  17.369  0.00  0.00    +0.000 A 
ATOM      6  C   UNL     1       4.464   4.043  16.930  0.00  0.00    +0.000 A 
ATOM      7  C   UNL     1       5.358   3.898  15.864  0.00  0.00    +0.000 A 
ATOM      8  S   UNL     1       3.829   2.561  17.650  0.00  0.00    +0.000 S 
ATOM      9  C   UNL     1       2.783   3.240  18.900  0.00  0.00    +0.000 A 
ATOM     10  C   UNL     1       2.079   2.333  19.706  0.00  0.00    +0.000 A 
ATOM     11  C   UNL     1       1.231   2.785  20.715  0.00  0.00    +0.000 A 
ATOM     12  C   UNL     1       1.081   4.152  20.927  0.00  0.00    +0.000 A 
ATOM     13  C   UNL     1       1.779   5.059  20.128  0.00  0.00    +0.000 A 
ATOM     14  C   UNL     1       2.634   4.609  19.110  0.00  0.00    +0.000 A 
ATOM     15  O   UNL     1       3.257   5.608  18.399  0.00  0.00    +0.000 OA
ENDROOT
TORSDOF 0
ENDMDL
MODEL 3
REMARK VINA RESULT:      -7.0      2.046      5.289
REMARK  Name = 
REMARK  1 active torsions:
REMARK  status: ('A' for Active; 'I' for Inactive)
REMARK    1  A    between atoms: C_1  and  C_2
REMARK                            x       y       z     vdW  Elec       q    Type
REMARK                         _______ _______ _______ _____ _____    ______ ____
ROOT
ATOM      1  C   UNL     1       7.098   4.771  14.473  0.00  0.00    +0.000 C 
ATOM      2  C   UNL     1       6.458   4.593  15.818  0.00  0.00    +0.000 A 
ATOM      3  C   UNL     1       7.149   4.814  17.009  0.00  0.00    +0.000 A 
ATOM      4  C   UNL     1       6.509   4.634  18.238  0.00  0.00    +0.000 A 
ATOM      5  C   UNL     1       5.164   4.231  18.294  0.00  0.00    +0.000 A 
ATOM      6  C   UNL     1       4.469   4.010  17.107  0.00  0.00    +0.000 A 
ATOM      7  C   UNL     1       5.119   4.192  15.882  0.00  0.00    +0.000 A 
ATOM      8  S   UNL     1       2.779   3.500  17.049  0.00  0.00    +0.000 S 
ATOM      9  C   UNL     1       2.414   3.415  18.774  0.00  0.00    +0.000 A 
ATOM     10  C   UNL     1       1.114   3.034  19.135  0.00  0.00    +0.000 A 
ATOM     11  C   UNL     1       0.743   2.942  20.475  0.00  0.00    +0.000 A 
ATOM     12  C   UNL     1       1.673   3.230  21.468  0.00  0.00    +0.000 A 
ATOM     13  C   UNL     1       2.970   3.610  21.115  0.00  0.00    +0.000 A 
ATOM     14  C   UNL     1       3.349   3.705  19.767  0.00  0.00    +0.000 A 
ATOM     15  O   UNL     1       4.652   4.091  19.561  0.00  0.00    +0.000 OA
ENDROOT
TORSDOF 0
ENDMDL
MODEL 4
REMARK VINA RESULT:      -7.0      0.571      5.462
REMARK  Name = 
REMARK  1 active torsions:
REMARK  status: ('A' for Active; 'I' for Inactive)
REMARK    1  A    between atoms: C_1  and  C_2
REMARK                            x       y       z     vdW  Elec       q    Type
REMARK                         _______ _______ _______ _____ _____    ______ ____
ROOT
ATOM      1  C   UNL     1       8.237   8.765  17.470  0.00  0.00    +0.000 C 
ATOM      2  C   UNL     1       7.575   7.510  17.954  0.00  0.00    +0.000 A 
ATOM      3  C   UNL     1       8.162   6.674  18.904  0.00  0.00    +0.000 A 
ATOM      4  C   UNL     1       7.504   5.515  19.323  0.00  0.00    +0.000 A 
ATOM      5  C   UNL     1       6.247   5.173  18.798  0.00  0.00    +0.000 A 
ATOM      6  C   UNL     1       5.656   6.005  17.850  0.00  0.00    +0.000 A 
ATOM      7  C   UNL     1       6.322   7.163  17.437  0.00  0.00    +0.000 A 
ATOM      8  S   UNL     1       4.082   5.682  17.117  0.00  0.00    +0.000 S 
ATOM      9  C   UNL     1       3.657   4.174  17.932  0.00  0.00    +0.000 A 
ATOM     10  C   UNL     1       2.424   3.593  17.599  0.00  0.00    +0.000 A 
ATOM     11  C   UNL     1       2.012   2.403  18.196  0.00  0.00    +0.000 A 
ATOM     12  C   UNL     1       2.832   1.784  19.133  0.00  0.00    +0.000 A 
ATOM     13  C   UNL     1       4.060   2.357  19.469  0.00  0.00    +0.000 A 
ATOM     14  C   UNL     1       4.480   3.556  18.871  0.00  0.00    +0.000 A 
ATOM     15  O   UNL     1       5.707   4.010  19.293  0.00  0.00    +0.000 OA
ENDROOT
TORSDOF 0
ENDMDL
MODEL 5
REMARK VINA RESULT:      -7.0      2.286      3.009
REMARK  Name = 
REMARK  1 active torsions:
REMARK  status: ('A' for Active; 'I' for Inactive)
REMARK    1  A    between atoms: C_1  and  C_2
REMARK                            x       y       z     vdW  Elec       q    Type
REMARK                         _______ _______ _______ _____ _____    ______ ____
ROOT
ATOM      1  C   UNL     1       1.345   2.740  21.715  0.00  0.00    +0.000 C 
ATOM      2  C   UNL     1       1.937   2.969  20.356  0.00  0.00    +0.000 A 
ATOM      3  C   UNL     1       1.249   2.670  19.181  0.00  0.00    +0.000 A 
ATOM      4  C   UNL     1       1.845   2.902  17.938  0.00  0.00    +0.000 A 
ATOM      5  C   UNL     1       3.140   3.439  17.852  0.00  0.00    +0.000 A 
ATOM      6  C   UNL     1       3.831   3.741  19.024  0.00  0.00    +0.000 A 
ATOM      7  C   UNL     1       3.227   3.505  20.263  0.00  0.00    +0.000 A 
ATOM      8  S   UNL     1       5.463   4.418  19.045  0.00  0.00    +0.000 S 
ATOM      9  C   UNL     1       5.780   4.534  17.312  0.00  0.00    +0.000 A 
ATOM     10  C   UNL     1       7.023   5.052  16.923  0.00  0.00    +0.000 A 
ATOM     11  C   UNL     1       7.354   5.179  15.575  0.00  0.00    +0.000 A 
ATOM     12  C   UNL     1       6.440   4.786  14.603  0.00  0.00    +0.000 A 
ATOM     13  C   UNL     1       5.200   4.269  14.984  0.00  0.00    +0.000 A 
ATOM     14  C   UNL     1       4.861   4.141  16.340  0.00  0.00    +0.000 A 
ATOM     15  O   UNL     1       3.611   3.620  16.574  0.00  0.00    +0.000 OA
ENDROOT
TORSDOF 0
ENDMDL
MODEL 6
REMARK VINA RESULT:      -6.7      1.631      5.698
REMARK  Name = 
REMARK  1 active torsions:
REMARK  status: ('A' for Active; 'I' for Inactive)
REMARK    1  A    between atoms: C_1  and  C_2
REMARK                            x       y       z     vdW  Elec       q    Type
REMARK                         _______ _______ _______ _____ _____    ______ ____
ROOT
ATOM      1  C   UNL     1       7.836   7.753  17.337  0.00  0.00    +0.000 C 
ATOM      2  C   UNL     1       6.853   6.620  17.332  0.00  0.00    +0.000 A 
ATOM      3  C   UNL     1       6.987   5.519  16.487  0.00  0.00    +0.000 A 
ATOM      4  C   UNL     1       6.044   4.488  16.520  0.00  0.00    +0.000 A 
ATOM      5  C   UNL     1       4.951   4.543  17.400  0.00  0.00    +0.000 A 
ATOM      6  C   UNL     1       4.814   5.641  18.247  0.00  0.00    +0.000 A 
ATOM      7  C   UNL     1       5.763   6.667  18.207  0.00  0.00    +0.000 A 
ATOM      8  S   UNL     1       3.484   5.824  19.396  0.00  0.00    +0.000 S 
ATOM      9  C   UNL     1       2.591   4.332  19.087  0.00  0.00    +0.000 A 
ATOM     10  C   UNL     1       1.431   4.114  19.843  0.00  0.00    +0.000 A 
ATOM     11  C   UNL     1       0.668   2.961  19.663  0.00  0.00    +0.000 A 
ATOM     12  C   UNL     1       1.061   2.017  18.721  0.00  0.00    +0.000 A 
ATOM     13  C   UNL     1       2.215   2.229  17.964  0.00  0.00    +0.000 A 
ATOM     14  C   UNL     1       2.988   3.387  18.143  0.00  0.00    +0.000 A 
ATOM     15  O   UNL     1       4.098   3.468  17.335  0.00  0.00    +0.000 OA
ENDROOT
TORSDOF 0
ENDMDL
MODEL 7
REMARK VINA RESULT:      -6.5      0.895      5.453
REMARK  Name = 
REMARK  1 active torsions:
REMARK  status: ('A' for Active; 'I' for Inactive)
REMARK    1  A    between atoms: C_1  and  C_2
REMARK                            x       y       z     vdW  Elec       q    Type
REMARK                         _______ _______ _______ _____ _____    ______ ____
ROOT
ATOM      1  C   UNL     1       7.849   8.102  17.178  0.00  0.00    +0.000 C 
ATOM      2  C   UNL     1       7.056   7.016  17.842  0.00  0.00    +0.000 A 
ATOM      3  C   UNL     1       7.592   6.203  18.840  0.00  0.00    +0.000 A 
ATOM      4  C   UNL     1       6.811   5.204  19.428  0.00  0.00    +0.000 A 
ATOM      5  C   UNL     1       5.480   5.004  19.027  0.00  0.00    +0.000 A 
ATOM      6  C   UNL     1       4.940   5.814  18.031  0.00  0.00    +0.000 A 
ATOM      7  C   UNL     1       5.729   6.811  17.448  0.00  0.00    +0.000 A 
ATOM      8  S   UNL     1       3.282   5.658  17.441  0.00  0.00    +0.000 S 
ATOM      9  C   UNL     1       2.713   4.323  18.446  0.00  0.00    +0.000 A 
ATOM     10  C   UNL     1       1.388   3.903  18.260  0.00  0.00    +0.000 A 
ATOM     11  C   UNL     1       0.860   2.855  19.013  0.00  0.00    +0.000 A 
ATOM     12  C   UNL     1       1.655   2.218  19.959  0.00  0.00    +0.000 A 
ATOM     13  C   UNL     1       2.975   2.632  20.149  0.00  0.00    +0.000 A 
ATOM     14  C   UNL     1       3.512   3.686  19.394  0.00  0.00    +0.000 A 
ATOM     15  O   UNL     1       4.822   3.992  19.682  0.00  0.00    +0.000 OA
ENDROOT
TORSDOF 0
ENDMDL
MODEL 8
REMARK VINA RESULT:      -6.5      2.442      3.138
REMARK  Name = 
REMARK  1 active torsions:
REMARK  status: ('A' for Active; 'I' for Inactive)
REMARK    1  A    between atoms: C_1  and  C_2
REMARK                            x       y       z     vdW  Elec       q    Type
REMARK                         _______ _______ _______ _____ _____    ______ ____
ROOT
ATOM      1  C   UNL     1       1.096   2.513  21.948  0.00  0.00    +0.000 C 
ATOM      2  C   UNL     1       1.761   3.405  20.943  0.00  0.00    +0.000 A 
ATOM      3  C   UNL     1       1.662   4.795  20.997  0.00  0.00    +0.000 A 
ATOM      4  C   UNL     1       2.300   5.584  20.035  0.00  0.00    +0.000 A 
ATOM      5  C   UNL     1       3.049   4.993  19.005  0.00  0.00    +0.000 A 
ATOM      6  C   UNL     1       3.152   3.605  18.947  0.00  0.00    +0.000 A 
ATOM      7  C   UNL     1       2.509   2.824  19.914  0.00  0.00    +0.000 A 
ATOM      8  S   UNL     1       4.063   2.747  17.701  0.00  0.00    +0.000 S 
ATOM      9  C   UNL     1       4.671   4.110  16.757  0.00  0.00    +0.000 A 
ATOM     10  C   UNL     1       5.470   3.811  15.645  0.00  0.00    +0.000 A 
ATOM     11  C   UNL     1       5.991   4.829  14.847  0.00  0.00    +0.000 A 
ATOM     12  C   UNL     1       5.713   6.156  15.156  0.00  0.00    +0.000 A 
ATOM     13  C   UNL     1       4.917   6.460  16.263  0.00  0.00    +0.000 A 
ATOM     14  C   UNL     1       4.392   5.439  17.070  0.00  0.00    +0.000 A 
ATOM     15  O   UNL     1       3.627   5.877  18.126  0.00  0.00    +0.000 OA
ENDROOT
TORSDOF 0
ENDMDL
MODEL 9
REMARK VINA RESULT:      -6.1      3.683      4.678
REMARK  Name = 
REMARK  1 active torsions:
REMARK  status: ('A' for Active; 'I' for Inactive)
REMARK    1  A    between atoms: C_1  and  C_2
REMARK                            x       y       z     vdW  Elec       q    Type
REMARK                         _______ _______ _______ _____ _____    ______ ____
ROOT
ATOM      1  C   UNL     1       0.241   8.777  21.453  0.00  0.00    +0.000 C 
ATOM      2  C   UNL     1       1.133   8.453  20.291  0.00  0.00    +0.000 A 
ATOM      3  C   UNL     1       1.231   9.279  19.172  0.00  0.00    +0.000 A 
ATOM      4  C   UNL     1       2.077   8.932  18.115  0.00  0.00    +0.000 A 
ATOM      5  C   UNL     1       2.840   7.754  18.162  0.00  0.00    +0.000 A 
ATOM      6  C   UNL     1       2.746   6.926  19.279  0.00  0.00    +0.000 A 
ATOM      7  C   UNL     1       1.896   7.281  20.332  0.00  0.00    +0.000 A 
ATOM      8  S   UNL     1       3.652   5.421  19.454  0.00  0.00    +0.000 S 
ATOM      9  C   UNL     1       4.549   5.412  17.933  0.00  0.00    +0.000 A 
ATOM     10  C   UNL     1       5.413   4.331  17.706  0.00  0.00    +0.000 A 
ATOM     11  C   UNL     1       6.158   4.247  16.531  0.00  0.00    +0.000 A 
ATOM     12  C   UNL     1       6.044   5.247  15.572  0.00  0.00    +0.000 A 
ATOM     13  C   UNL     1       5.185   6.327  15.791  0.00  0.00    +0.000 A 
ATOM     14  C   UNL     1       4.433   6.416  16.973  0.00  0.00    +0.000 A 
ATOM     15  O   UNL     1       3.630   7.529  17.061  0.00  0.00    +0.000 OA
ENDROOT
TORSDOF 0
ENDMDL
