MODEL 1
REMARK VINA RESULT:      -8.5      0.000      0.000
REMARK  Name = 
REMARK  5 active torsions:
REMARK  status: ('A' for Active; 'I' for Inactive)
REMARK    1  A    between atoms: C_1  and  C_2
REMARK    2  A    between atoms: C_4  and  N_5
REMARK    3  A    between atoms: N_5  and  C_6
REMARK    4  A    between atoms: C_10  and  N_11
REMARK    5  A    between atoms: C_19  and  C_20
REMARK                            x       y       z     vdW  Elec       q    Type
REMARK                         _______ _______ _______ _____ _____    ______ ____
ROOT
ATOM      1  C   UNL     1       7.705   6.953  17.713  0.00  0.00    +0.000 C 
ATOM      2  C   UNL     1       7.170   5.872  16.822  0.00  0.00    +0.000 A 
ATOM      3  C   UNL     1       6.249   4.964  17.302  0.00  0.00    +0.000 A 
ATOM      4  C   UNL     1       5.700   4.012  16.438  0.00  0.00    +0.000 A 
ATOM      5  C   UNL     1       6.049   4.053  15.063  0.00  0.00    +0.000 A 
ATOM      6  C   UNL     1       5.473   3.214  14.076  0.00  0.00    +0.000 A 
ATOM      7  C   UNL     1       5.842   3.304  12.738  0.00  0.00    +0.000 A 
ATOM      8  C   UNL     1       6.823   4.208  12.363  0.00  0.00    +0.000 A 
ATOM      9  C   UNL     1       7.432   5.030  13.324  0.00  0.00    +0.000 A 
ATOM     10  C   UNL     1       8.541   5.955  12.896  0.00  0.00    +0.000 C 
ATOM     11  C   UNL     1       7.033   4.993  14.668  0.00  0.00    +0.000 A 
ATOM     12  N   UNL     1       7.581   5.867  15.536  0.00  0.00    +0.000 NA
ENDROOT
BRANCH   4  13
ATOM     13  N   UNL     1       4.703   3.119  16.939  0.00  0.00    +0.000 N 
ATOM     14  H   UNL     1       5.126   2.256  17.266  0.00  0.00    +0.000 HD
BRANCH  13  15
ATOM     15  C   UNL     1       3.683   3.459  17.863  0.00  0.00    +0.000 A 
ATOM     16  C   UNL     1       2.602   4.231  17.425  0.00  0.00    +0.000 A 
ATOM     17  C   UNL     1       1.517   4.485  18.269  0.00  0.00    +0.000 A 
ATOM     18  C   UNL     1       1.497   3.952  19.558  0.00  0.00    +0.000 A 
ATOM     19  C   UNL     1       2.572   3.168  19.998  0.00  0.00    +0.000 A 
ATOM     20  C   UNL     1       3.652   2.910  19.149  0.00  0.00    +0.000 A 
BRANCH  19  21
ATOM     21  N   UNL     1       2.574   2.597  21.345  0.00  0.00    +0.000 N 
ATOM     22  O   UNL     1       1.535   2.704  22.015  0.00  0.00    +0.000 OA
ATOM     23  O   UNL     1       3.606   2.044  21.739  0.00  0.00    +0.000 OA
ENDBRANCH  19  21
ENDBRANCH  13  15
ENDBRANCH   4  13
TORSDOF 3
ENDMDL
MODEL 2
REMARK VINA RESULT:      -8.1      3.705      6.949
REMARK  Name = 
REMARK  5 active torsions:
REMARK  status: ('A' for Active; 'I' for Inactive)
REMARK    1  A    between atoms: C_1  and  C_2
REMARK    2  A    between atoms: C_4  and  N_5
REMARK    3  A    between atoms: N_5  and  C_6
REMARK    4  A    between atoms: C_10  and  N_11
REMARK    5  A    between atoms: C_19  and  C_20
REMARK                            x       y       z     vdW  Elec       q    Type
REMARK                         _______ _______ _______ _____ _____    ______ ____
ROOT
ATOM      1  C   UNL     1       3.204   7.833  17.810  0.00  0.00    +0.000 C 
ATOM      2  C   UNL     1       3.456   6.359  17.710  0.00  0.00    +0.000 A 
ATOM      3  C   UNL     1       4.542   5.882  17.006  0.00  0.00    +0.000 A 
ATOM      4  C   UNL     1       4.808   4.509  16.988  0.00  0.00    +0.000 A 
ATOM      5  C   UNL     1       3.992   3.644  17.762  0.00  0.00    +0.000 A 
ATOM      6  C   UNL     1       4.232   2.254  17.909  0.00  0.00    +0.000 A 
ATOM      7  C   UNL     1       3.407   1.452  18.690  0.00  0.00    +0.000 A 
ATOM      8  C   UNL     1       2.302   2.013  19.310  0.00  0.00    +0.000 A 
ATOM      9  C   UNL     1       2.023   3.380  19.156  0.00  0.00    +0.000 A 
ATOM     10  C   UNL     1       0.778   3.947  19.787  0.00  0.00    +0.000 C 
ATOM     11  C   UNL     1       2.874   4.216  18.419  0.00  0.00    +0.000 A 
ATOM     12  N   UNL     1       2.616   5.538  18.377  0.00  0.00    +0.000 NA
ENDROOT
BRANCH   4  13
ATOM     13  N   UNL     1       5.973   4.041  16.305  0.00  0.00    +0.000 N 
ATOM     14  H   UNL     1       6.164   3.073  16.545  0.00  0.00    +0.000 HD
BRANCH  13  15
ATOM     15  C   UNL     1       6.227   4.184  14.918  0.00  0.00    +0.000 A 
ATOM     16  C   UNL     1       7.290   4.996  14.504  0.00  0.00    +0.000 A 
ATOM     17  C   UNL     1       7.651   5.067  13.156  0.00  0.00    +0.000 A 
ATOM     18  C   UNL     1       6.961   4.312  12.208  0.00  0.00    +0.000 A 
ATOM     19  C   UNL     1       5.903   3.489  12.619  0.00  0.00    +0.000 A 
ATOM     20  C   UNL     1       5.549   3.413  13.969  0.00  0.00    +0.000 A 
BRANCH  19  21
ATOM     21  N   UNL     1       5.165   2.685  11.644  0.00  0.00    +0.000 N 
ATOM     22  O   UNL     1       4.089   3.139  11.224  0.00  0.00    +0.000 OA
ATOM     23  O   UNL     1       5.650   1.604  11.296  0.00  0.00    +0.000 OA
ENDBRANCH  19  21
ENDBRANCH  13  15
ENDBRANCH   4  13
TORSDOF 3
ENDMDL
MODEL 3
REMARK VINA RESULT:      -8.1      3.458      7.087
REMARK  Name = 
REMARK  5 active torsions:
REMARK  status: ('A' for Active; 'I' for Inactive)
REMARK    1  A    between atoms: C_1  and  C_2
REMARK    2  A    between atoms: C_4  and  N_5
REMARK    3  A    between atoms: N_5  and  C_6
REMARK    4  A    between atoms: C_10  and  N_11
REMARK    5  A    between atoms: C_19  and  C_20
REMARK                            x       y       z     vdW  Elec       q    Type
REMARK                         _______ _______ _______ _____ _____    ______ ____
ROOT
ATOM      1  C   UNL     1       1.672   3.306  21.657  0.00  0.00    +0.000 C 
ATOM      2  C   UNL     1       2.018   4.373  20.663  0.00  0.00    +0.000 A 
ATOM      3  C   UNL     1       2.609   4.043  19.461  0.00  0.00    +0.000 A 
ATOM      4  C   UNL     1       2.853   5.040  18.512  0.00  0.00    +0.000 A 
ATOM      5  C   UNL     1       2.414   6.363  18.780  0.00  0.00    +0.000 A 
ATOM      6  C   UNL     1       2.505   7.429  17.850  0.00  0.00    +0.000 A 
ATOM      7  C   UNL     1       2.048   8.706  18.160  0.00  0.00    +0.000 A 
ATOM      8  C   UNL     1       1.525   8.954  19.418  0.00  0.00    +0.000 A 
ATOM      9  C   UNL     1       1.451   7.924  20.369  0.00  0.00    +0.000 A 
ATOM     10  C   UNL     1       0.938   8.240  21.750  0.00  0.00    +0.000 C 
ATOM     11  C   UNL     1       1.854   6.618  20.057  0.00  0.00    +0.000 A 
ATOM     12  N   UNL     1       1.676   5.643  20.971  0.00  0.00    +0.000 NA
ENDROOT
BRANCH   4  13
ATOM     13  N   UNL     1       3.410   4.669  17.249  0.00  0.00    +0.000 N 
ATOM     14  H   UNL     1       2.841   5.027  16.488  0.00  0.00    +0.000 HD
BRANCH  13  15
ATOM     15  C   UNL     1       4.765   4.829  16.867  0.00  0.00    +0.000 A 
ATOM     16  C   UNL     1       5.243   4.126  15.756  0.00  0.00    +0.000 A 
ATOM     17  C   UNL     1       6.536   4.348  15.273  0.00  0.00    +0.000 A 
ATOM     18  C   UNL     1       7.359   5.291  15.889  0.00  0.00    +0.000 A 
ATOM     19  C   UNL     1       6.880   6.006  16.995  0.00  0.00    +0.000 A 
ATOM     20  C   UNL     1       5.584   5.788  17.471  0.00  0.00    +0.000 A 
BRANCH  19  21
ATOM     21  N   UNL     1       7.723   7.002  17.658  0.00  0.00    +0.000 N 
ATOM     22  O   UNL     1       8.196   6.706  18.766  0.00  0.00    +0.000 OA
ATOM     23  O   UNL     1       7.914   8.077  17.081  0.00  0.00    +0.000 OA
ENDBRANCH  19  21
ENDBRANCH  13  15
ENDBRANCH   4  13
TORSDOF 3
ENDMDL
MODEL 4
REMARK VINA RESULT:      -7.8      3.005      6.742
REMARK  Name = 
REMARK  5 active torsions:
REMARK  status: ('A' for Active; 'I' for Inactive)
REMARK    1  A    between atoms: C_1  and  C_2
REMARK    2  A    between atoms: C_4  and  N_5
REMARK    3  A    between atoms: N_5  and  C_6
REMARK    4  A    between atoms: C_10  and  N_11
REMARK    5  A    between atoms: C_19  and  C_20
REMARK                            x       y       z     vdW  Elec       q    Type
REMARK                         _______ _______ _______ _____ _____    ______ ____
ROOT
ATOM      1  C   UNL     1       1.303   2.938  21.541  0.00  0.00    +0.000 C 
ATOM      2  C   UNL     1       1.783   3.943  20.537  0.00  0.00    +0.000 A 
ATOM      3  C   UNL     1       2.329   3.528  19.340  0.00  0.00    +0.000 A 
ATOM      4  C   UNL     1       2.699   4.477  18.382  0.00  0.00    +0.000 A 
ATOM      5  C   UNL     1       2.431   5.847  18.636  0.00  0.00    +0.000 A 
ATOM      6  C   UNL     1       2.659   6.884  17.696  0.00  0.00    +0.000 A 
ATOM      7  C   UNL     1       2.368   8.211  17.992  0.00  0.00    +0.000 A 
ATOM      8  C   UNL     1       1.879   8.536  19.247  0.00  0.00    +0.000 A 
ATOM      9  C   UNL     1       1.673   7.534  20.208  0.00  0.00    +0.000 A 
ATOM     10  C   UNL     1       1.204   7.926  21.584  0.00  0.00    +0.000 C 
ATOM     11  C   UNL     1       1.907   6.184  19.909  0.00  0.00    +0.000 A 
ATOM     12  N   UNL     1       1.606   5.249  20.832  0.00  0.00    +0.000 NA
ENDROOT
BRANCH   4  13
ATOM     13  N   UNL     1       3.205   4.025  17.124  0.00  0.00    +0.000 N 
ATOM     14  H   UNL     1       2.600   4.326  16.365  0.00  0.00    +0.000 HD
BRANCH  13  15
ATOM     15  C   UNL     1       4.541   4.170  16.673  0.00  0.00    +0.000 A 
ATOM     16  C   UNL     1       4.785   4.267  15.299  0.00  0.00    +0.000 A 
ATOM     17  C   UNL     1       6.071   4.532  14.820  0.00  0.00    +0.000 A 
ATOM     18  C   UNL     1       7.124   4.722  15.714  0.00  0.00    +0.000 A 
ATOM     19  C   UNL     1       6.882   4.639  17.092  0.00  0.00    +0.000 A 
ATOM     20  C   UNL     1       5.594   4.380  17.569  0.00  0.00    +0.000 A 
BRANCH  19  21
ATOM     21  N   UNL     1       7.969   4.835  18.051  0.00  0.00    +0.000 N 
ATOM     22  O   UNL     1       8.849   3.962  18.107  0.00  0.00    +0.000 OA
ATOM     23  O   UNL     1       7.949   5.853  18.750  0.00  0.00    +0.000 OA
ENDBRANCH  19  21
ENDBRANCH  13  15
ENDBRANCH   4  13
TORSDOF 3
ENDMDL
MODEL 5
REMARK VINA RESULT:      -7.8      3.669      7.101
REMARK  Name = 
REMARK  5 active torsions:
REMARK  status: ('A' for Active; 'I' for Inactive)
REMARK    1  A    between atoms: C_1  and  C_2
REMARK    2  A    between atoms: C_4  and  N_5
REMARK    3  A    between atoms: N_5  and  C_6
REMARK    4  A    between atoms: C_10  and  N_11
REMARK    5  A    between atoms: C_19  and  C_20
REMARK                            x       y       z     vdW  Elec       q    Type
REMARK                         _______ _______ _______ _____ _____    ______ ____
ROOT
ATOM      1  C   UNL     1       1.602   3.033  21.714  0.00  0.00    +0.000 C 
ATOM      2  C   UNL     1       2.151   3.950  20.663  0.00  0.00    +0.000 A 
ATOM      3  C   UNL     1       2.815   3.437  19.567  0.00  0.00    +0.000 A 
ATOM      4  C   UNL     1       3.251   4.299  18.556  0.00  0.00    +0.000 A 
ATOM      5  C   UNL     1       2.930   5.678  18.646  0.00  0.00    +0.000 A 
ATOM      6  C   UNL     1       3.221   6.625  17.632  0.00  0.00    +0.000 A 
ATOM      7  C   UNL     1       2.873   7.965  17.766  0.00  0.00    +0.000 A 
ATOM      8  C   UNL     1       2.263   8.396  18.933  0.00  0.00    +0.000 A 
ATOM      9  C   UNL     1       1.991   7.486  19.966  0.00  0.00    +0.000 A 
ATOM     10  C   UNL     1       1.387   7.996  21.248  0.00  0.00    +0.000 C 
ATOM     11  C   UNL     1       2.283   6.121  19.827  0.00  0.00    +0.000 A 
ATOM     12  N   UNL     1       1.918   5.272  20.808  0.00  0.00    +0.000 NA
ENDROOT
BRANCH   4  13
ATOM     13  N   UNL     1       3.882   3.742  17.400  0.00  0.00    +0.000 N 
ATOM     14  H   UNL     1       3.207   3.612  16.652  0.00  0.00    +0.000 HD
BRANCH  13  15
ATOM     15  C   UNL     1       5.077   4.218  16.805  0.00  0.00    +0.000 A 
ATOM     16  C   UNL     1       6.138   4.604  17.632  0.00  0.00    +0.000 A 
ATOM     17  C   UNL     1       7.374   4.961  17.087  0.00  0.00    +0.000 A 
ATOM     18  C   UNL     1       7.566   4.920  15.706  0.00  0.00    +0.000 A 
ATOM     19  C   UNL     1       6.510   4.523  14.874  0.00  0.00    +0.000 A 
ATOM     20  C   UNL     1       5.277   4.158  15.423  0.00  0.00    +0.000 A 
BRANCH  19  21
ATOM     21  N   UNL     1       6.686   4.470  13.423  0.00  0.00    +0.000 N 
ATOM     22  O   UNL     1       5.954   3.697  12.784  0.00  0.00    +0.000 OA
ATOM     23  O   UNL     1       7.551   5.192  12.916  0.00  0.00    +0.000 OA
ENDBRANCH  19  21
ENDBRANCH  13  15
ENDBRANCH   4  13
TORSDOF 3
ENDMDL
MODEL 6
REMARK VINA RESULT:      -7.8      4.205      7.599
REMARK  Name = 
REMARK  5 active torsions:
REMARK  status: ('A' for Active; 'I' for Inactive)
REMARK    1  A    between atoms: C_1  and  C_2
REMARK    2  A    between atoms: C_4  and  N_5
REMARK    3  A    between atoms: N_5  and  C_6
REMARK    4  A    between atoms: C_10  and  N_11
REMARK    5  A    between atoms: C_19  and  C_20
REMARK                            x       y       z     vdW  Elec       q    Type
REMARK                         _______ _______ _______ _____ _____    ______ ____
ROOT
ATOM      1  C   UNL     1       2.061   4.080  21.324  0.00  0.00    +0.000 C 
ATOM      2  C   UNL     1       2.237   5.287  20.453  0.00  0.00    +0.000 A 
ATOM      3  C   UNL     1       2.882   5.183  19.238  0.00  0.00    +0.000 A 
ATOM      4  C   UNL     1       2.969   6.300  18.401  0.00  0.00    +0.000 A 
ATOM      5  C   UNL     1       2.320   7.499  18.792  0.00  0.00    +0.000 A 
ATOM      6  C   UNL     1       2.244   8.658  17.978  0.00  0.00    +0.000 A 
ATOM      7  C   UNL     1       1.585   9.806  18.405  0.00  0.00    +0.000 A 
ATOM      8  C   UNL     1       1.020   9.834  19.670  0.00  0.00    +0.000 A 
ATOM      9  C   UNL     1       1.106   8.712  20.508  0.00  0.00    +0.000 A 
ATOM     10  C   UNL     1       0.539   8.797  21.902  0.00  0.00    +0.000 C 
ATOM     11  C   UNL     1       1.717   7.527  20.074  0.00  0.00    +0.000 A 
ATOM     12  N   UNL     1       1.693   6.446  20.880  0.00  0.00    +0.000 NA
ENDROOT
BRANCH   4  13
ATOM     13  N   UNL     1       3.587   6.156  17.120  0.00  0.00    +0.000 N 
ATOM     14  H   UNL     1       3.428   6.982  16.552  0.00  0.00    +0.000 HD
BRANCH  13  15
ATOM     15  C   UNL     1       4.924   5.744  16.893  0.00  0.00    +0.000 A 
ATOM     16  C   UNL     1       5.708   5.357  17.985  0.00  0.00    +0.000 A 
ATOM     17  C   UNL     1       6.988   4.829  17.793  0.00  0.00    +0.000 A 
ATOM     18  C   UNL     1       7.490   4.667  16.502  0.00  0.00    +0.000 A 
ATOM     19  C   UNL     1       6.703   5.043  15.404  0.00  0.00    +0.000 A 
ATOM     20  C   UNL     1       5.421   5.563  15.599  0.00  0.00    +0.000 A 
BRANCH  19  21
ATOM     21  N   UNL     1       7.206   4.882  14.040  0.00  0.00    +0.000 N 
ATOM     22  O   UNL     1       8.131   5.625  13.678  0.00  0.00    +0.000 OA
ATOM     23  O   UNL     1       6.683   4.020  13.326  0.00  0.00    +0.000 OA
ENDBRANCH  19  21
ENDBRANCH  13  15
ENDBRANCH   4  13
TORSDOF 3
ENDMDL
MODEL 7
REMARK VINA RESULT:      -7.7      1.796      1.941
REMARK  Name = 
REMARK  5 active torsions:
REMARK  status: ('A' for Active; 'I' for Inactive)
REMARK    1  A    between atoms: C_1  and  C_2
REMARK    2  A    between atoms: C_4  and  N_5
REMARK    3  A    between atoms: N_5  and  C_6
REMARK    4  A    between atoms: C_10  and  N_11
REMARK    5  A    between atoms: C_19  and  C_20
REMARK                            x       y       z     vdW  Elec       q    Type
REMARK                         _______ _______ _______ _____ _____    ______ ____
ROOT
ATOM      1  C   UNL     1       7.673   6.773  17.677  0.00  0.00    +0.000 C 
ATOM      2  C   UNL     1       7.158   5.740  16.721  0.00  0.00    +0.000 A 
ATOM      3  C   UNL     1       6.219   4.815  17.131  0.00  0.00    +0.000 A 
ATOM      4  C   UNL     1       5.690   3.910  16.207  0.00  0.00    +0.000 A 
ATOM      5  C   UNL     1       6.077   4.014  14.846  0.00  0.00    +0.000 A 
ATOM      6  C   UNL     1       5.525   3.227  13.805  0.00  0.00    +0.000 A 
ATOM      7  C   UNL     1       5.932   3.378  12.483  0.00  0.00    +0.000 A 
ATOM      8  C   UNL     1       6.928   4.292  12.179  0.00  0.00    +0.000 A 
ATOM      9  C   UNL     1       7.514   5.063  13.195  0.00  0.00    +0.000 A 
ATOM     10  C   UNL     1       8.639   6.001  12.843  0.00  0.00    +0.000 C 
ATOM     11  C   UNL     1       7.077   4.966  14.524  0.00  0.00    +0.000 A 
ATOM     12  N   UNL     1       7.605   5.793  15.448  0.00  0.00    +0.000 NA
ENDROOT
BRANCH   4  13
ATOM     13  N   UNL     1       4.674   3.001  16.637  0.00  0.00    +0.000 N 
ATOM     14  H   UNL     1       5.088   2.168  17.045  0.00  0.00    +0.000 HD
BRANCH  13  15
ATOM     15  C   UNL     1       3.549   3.338  17.431  0.00  0.00    +0.000 A 
ATOM     16  C   UNL     1       2.624   2.340  17.754  0.00  0.00    +0.000 A 
ATOM     17  C   UNL     1       1.569   2.601  18.633  0.00  0.00    +0.000 A 
ATOM     18  C   UNL     1       1.439   3.863  19.211  0.00  0.00    +0.000 A 
ATOM     19  C   UNL     1       2.370   4.864  18.900  0.00  0.00    +0.000 A 
ATOM     20  C   UNL     1       3.429   4.598  18.027  0.00  0.00    +0.000 A 
BRANCH  19  21
ATOM     21  N   UNL     1       2.257   6.196  19.495  0.00  0.00    +0.000 N 
ATOM     22  O   UNL     1       1.656   6.292  20.576  0.00  0.00    +0.000 OA
ATOM     23  O   UNL     1       2.763   7.146  18.889  0.00  0.00    +0.000 OA
ENDBRANCH  19  21
ENDBRANCH  13  15
ENDBRANCH   4  13
TORSDOF 3
ENDMDL
MODEL 8
REMARK VINA RESULT:      -7.6      3.489      7.053
REMARK  Name = 
REMARK  5 active torsions:
REMARK  status: ('A' for Active; 'I' for Inactive)
REMARK    1  A    between atoms: C_1  and  C_2
REMARK    2  A    between atoms: C_4  and  N_5
REMARK    3  A    between atoms: N_5  and  C_6
REMARK    4  A    between atoms: C_10  and  N_11
REMARK    5  A    between atoms: C_19  and  C_20
REMARK                            x       y       z     vdW  Elec       q    Type
REMARK                         _______ _______ _______ _____ _____    ______ ____
ROOT
ATOM      1  C   UNL     1       1.422   7.872  21.343  0.00  0.00    +0.000 C 
ATOM      2  C   UNL     1       1.837   6.835  20.343  0.00  0.00    +0.000 A 
ATOM      3  C   UNL     1       2.466   7.206  19.173  0.00  0.00    +0.000 A 
ATOM      4  C   UNL     1       2.919   6.223  18.288  0.00  0.00    +0.000 A 
ATOM      5  C   UNL     1       2.788   4.859  18.654  0.00  0.00    +0.000 A 
ATOM      6  C   UNL     1       3.308   3.783  17.892  0.00  0.00    +0.000 A 
ATOM      7  C   UNL     1       3.161   2.462  18.303  0.00  0.00    +0.000 A 
ATOM      8  C   UNL     1       2.459   2.186  19.465  0.00  0.00    +0.000 A 
ATOM      9  C   UNL     1       1.906   3.230  20.223  0.00  0.00    +0.000 A 
ATOM     10  C   UNL     1       1.092   2.894  21.445  0.00  0.00    +0.000 C 
ATOM     11  C   UNL     1       2.092   4.571  19.855  0.00  0.00    +0.000 A 
ATOM     12  N   UNL     1       1.623   5.541  20.664  0.00  0.00    +0.000 NA
ENDROOT
BRANCH   4  13
ATOM     13  N   UNL     1       3.622   6.627  17.110  0.00  0.00    +0.000 N 
ATOM     14  H   UNL     1       3.500   7.621  16.943  0.00  0.00    +0.000 HD
BRANCH  13  15
ATOM     15  C   UNL     1       4.972   6.317  16.811  0.00  0.00    +0.000 A 
ATOM     16  C   UNL     1       5.926   6.386  17.833  0.00  0.00    +0.000 A 
ATOM     17  C   UNL     1       7.242   5.972  17.610  0.00  0.00    +0.000 A 
ATOM     18  C   UNL     1       7.614   5.468  16.365  0.00  0.00    +0.000 A 
ATOM     19  C   UNL     1       6.660   5.385  15.341  0.00  0.00    +0.000 A 
ATOM     20  C   UNL     1       5.342   5.793  15.568  0.00  0.00    +0.000 A 
BRANCH  19  21
ATOM     21  N   UNL     1       7.024   4.859  14.026  0.00  0.00    +0.000 N 
ATOM     22  O   UNL     1       7.943   5.426  13.415  0.00  0.00    +0.000 OA
ATOM     23  O   UNL     1       6.398   3.884  13.597  0.00  0.00    +0.000 OA
ENDBRANCH  19  21
ENDBRANCH  13  15
ENDBRANCH   4  13
TORSDOF 3
ENDMDL
MODEL 9
REMARK VINA RESULT:      -7.5      4.488      6.642
REMARK  Name = 
REMARK  5 active torsions:
REMARK  status: ('A' for Active; 'I' for Inactive)
REMARK    1  A    between atoms: C_1  and  C_2
REMARK    2  A    between atoms: C_4  and  N_5
REMARK    3  A    between atoms: N_5  and  C_6
REMARK    4  A    between atoms: C_10  and  N_11
REMARK    5  A    between atoms: C_19  and  C_20
REMARK                            x       y       z     vdW  Elec       q    Type
REMARK                         _______ _______ _______ _____ _____    ______ ____
ROOT
ATOM      1  C   UNL     1       6.425   5.388  18.166  0.00  0.00    +0.000 C 
ATOM      2  C   UNL     1       5.085   5.059  18.753  0.00  0.00    +0.000 A 
ATOM      3  C   UNL     1       4.352   6.029  19.406  0.00  0.00    +0.000 A 
ATOM      4  C   UNL     1       3.071   5.728  19.878  0.00  0.00    +0.000 A 
ATOM      5  C   UNL     1       2.524   4.447  19.606  0.00  0.00    +0.000 A 
ATOM      6  C   UNL     1       1.199   4.067  19.936  0.00  0.00    +0.000 A 
ATOM      7  C   UNL     1       0.708   2.801  19.636  0.00  0.00    +0.000 A 
ATOM      8  C   UNL     1       1.543   1.874  19.033  0.00  0.00    +0.000 A 
ATOM      9  C   UNL     1       2.869   2.213  18.723  0.00  0.00    +0.000 A 
ATOM     10  C   UNL     1       3.771   1.163  18.129  0.00  0.00    +0.000 C 
ATOM     11  C   UNL     1       3.365   3.502  18.967  0.00  0.00    +0.000 A 
ATOM     12  N   UNL     1       4.615   3.807  18.566  0.00  0.00    +0.000 NA
ENDROOT
BRANCH   4  13
ATOM     13  N   UNL     1       2.303   6.763  20.497  0.00  0.00    +0.000 N 
ATOM     14  H   UNL     1       2.697   7.010  21.399  0.00  0.00    +0.000 HD
BRANCH  13  15
ATOM     15  C   UNL     1       1.897   7.970  19.875  0.00  0.00    +0.000 A 
ATOM     16  C   UNL     1       2.078   8.116  18.495  0.00  0.00    +0.000 A 
ATOM     17  C   UNL     1       1.581   9.236  17.825  0.00  0.00    +0.000 A 
ATOM     18  C   UNL     1       0.881  10.217  18.527  0.00  0.00    +0.000 A 
ATOM     19  C   UNL     1       0.686  10.070  19.908  0.00  0.00    +0.000 A 
ATOM     20  C   UNL     1       1.177   8.944  20.575  0.00  0.00    +0.000 A 
BRANCH  19  21
ATOM     21  N   UNL     1      -0.046  11.083  20.667  0.00  0.00    +0.000 N 
ATOM     22  O   UNL     1      -1.169  11.410  20.253  0.00  0.00    +0.000 OA
ATOM     23  O   UNL     1       0.492  11.556  21.673  0.00  0.00    +0.000 OA
ENDBRANCH  19  21
ENDBRANCH  13  15
ENDBRANCH   4  13
TORSDOF 3
ENDMDL
