MODEL 1
REMARK VINA RESULT:      -9.5      0.000      0.000
REMARK  Name = 
REMARK  9 active torsions:
REMARK  status: ('A' for Active; 'I' for Inactive)
REMARK    1  A    between atoms: C_1  and  C_2
REMARK    2  A    between atoms: C_2  and  C_3
REMARK    3  A    between atoms: C_2  and  C_4
REMARK    4  A    between atoms: C_4  and  C_5
REMARK    5  A    between atoms: C_8  and  C_9
REMARK    6  A    between atoms: C_9  and  N_10
REMARK    7  A    between atoms: N_10  and  C_11
REMARK    8  A    between atoms: N_10  and  C_12
REMARK    9  A    between atoms: C_14  and  C_15
REMARK                            x       y       z     vdW  Elec       q    Type
REMARK                         _______ _______ _______ _____ _____    ______ ____
ROOT
ATOM      1  C   UNL     1       4.184   5.424  18.058  0.00  0.00    +0.000 A 
ATOM      2  N   UNL     1       3.612   6.524  18.602  0.00  0.00    +0.000 NA
ATOM      3  C   UNL     1       2.404   6.438  19.204  0.00  0.00    +0.000 A 
ATOM      4  N   UNL     1       1.715   5.300  19.313  0.00  0.00    +0.000 NA
ATOM      5  C   UNL     1       2.279   4.196  18.792  0.00  0.00    +0.000 A 
ATOM      6  C   UNL     1       3.530   4.198  18.165  0.00  0.00    +0.000 A 
ATOM      7  C   UNL     1       4.080   2.883  17.680  0.00  0.00    +0.000 C 
ATOM      8  C   UNL     1       3.430   1.656  18.325  0.00  0.00    +0.000 C 
ATOM      9  N   UNL     1       1.978   1.749  18.256  0.00  0.00    +0.000 NA
ATOM     10  C   UNL     1       1.523   2.906  19.044  0.00  0.00    +0.000 C 
ATOM     11  H   UNL     1       1.561   0.911  18.654  0.00  0.00    +0.000 HD
ENDROOT
BRANCH   3  12
ATOM     12  C   UNL     1       1.823   7.680  19.792  0.00  0.00    +0.000 A 
ATOM     13  C   UNL     1       1.612   8.831  19.029  0.00  0.00    +0.000 A 
ATOM     14  C   UNL     1       1.057   9.969  19.623  0.00  0.00    +0.000 A 
ATOM     15  C   UNL     1       0.725   9.939  20.969  0.00  0.00    +0.000 A 
ATOM     16  C   UNL     1       0.962   8.772  21.670  0.00  0.00    +0.000 A 
ATOM     17  N   UNL     1       1.497   7.658  21.121  0.00  0.00    +0.000 NA
ENDBRANCH   3  12
BRANCH   1  18
ATOM     18  N   UNL     1       5.454   5.597  17.506  0.00  0.00    +0.000 N 
ATOM     19  C   UNL     1       5.733   6.916  16.930  0.00  0.00    +0.000 C 
BRANCH  18  20
ATOM     20  C   UNL     1       6.272   4.498  16.955  0.00  0.00    +0.000 C 
BRANCH  20  24
ATOM     21  C   UNL     1       6.846   4.404  13.443  0.00  0.00    +0.000 A 
ATOM     22  N   UNL     1       7.830   5.246  13.785  0.00  0.00    +0.000 NA
ATOM     23  O   UNL     1       7.699   5.331  15.173  0.00  0.00    +0.000 OA
ATOM     24  C   UNL     1       6.641   4.537  15.513  0.00  0.00    +0.000 A 
ATOM     25  N   UNL     1       6.054   3.978  14.478  0.00  0.00    +0.000 NA
BRANCH  21  26
ATOM     26  C   UNL     1       6.695   3.846  12.077  0.00  0.00    +0.000 C 
BRANCH  26  28
ATOM     27  C   UNL     1       4.332   3.228  11.335  0.00  0.00    +0.000 C 
ATOM     28  C   UNL     1       5.622   2.743  12.007  0.00  0.00    +0.000 C 
ATOM     29  C   UNL     1       6.166   1.525  11.260  0.00  0.00    +0.000 C 
ENDBRANCH  26  28
ENDBRANCH  21  26
ENDBRANCH  20  24
ENDBRANCH  18  20
ENDBRANCH   1  18
TORSDOF 6
ENDMDL
MODEL 2
REMARK VINA RESULT:      -9.1      0.947      1.269
REMARK  Name = 
REMARK  9 active torsions:
REMARK  status: ('A' for Active; 'I' for Inactive)
REMARK    1  A    between atoms: C_1  and  C_2
REMARK    2  A    between atoms: C_2  and  C_3
REMARK    3  A    between atoms: C_2  and  C_4
REMARK    4  A    between atoms: C_4  and  C_5
REMARK    5  A    between atoms: C_8  and  C_9
REMARK    6  A    between atoms: C_9  and  N_10
REMARK    7  A    between atoms: N_10  and  C_11
REMARK    8  A    between atoms: N_10  and  C_12
REMARK    9  A    between atoms: C_14  and  C_15
REMARK                            x       y       z     vdW  Elec       q    Type
REMARK                         _______ _______ _______ _____ _____    ______ ____
ROOT
ATOM      1  C   UNL     1       4.627   5.368  18.298  0.00  0.00    +0.000 A 
ATOM      2  N   UNL     1       4.011   6.552  18.532  0.00  0.00    +0.000 NA
ATOM      3  C   UNL     1       2.676   6.599  18.734  0.00  0.00    +0.000 A 
ATOM      4  N   UNL     1       1.892   5.517  18.732  0.00  0.00    +0.000 NA
ATOM      5  C   UNL     1       2.492   4.333  18.518  0.00  0.00    +0.000 A 
ATOM      6  C   UNL     1       3.870   4.198  18.313  0.00  0.00    +0.000 A 
ATOM      7  C   UNL     1       4.427   2.809  18.149  0.00  0.00    +0.000 C 
ATOM      8  C   UNL     1       3.511   1.700  18.674  0.00  0.00    +0.000 C 
ATOM      9  N   UNL     1       2.161   1.859  18.149  0.00  0.00    +0.000 NA
ATOM     10  C   UNL     1       1.588   3.122  18.644  0.00  0.00    +0.000 C 
ATOM     11  H   UNL     1       1.574   1.095  18.476  0.00  0.00    +0.000 HD
ENDROOT
BRANCH   3  12
ATOM     12  C   UNL     1       2.051   7.929  18.994  0.00  0.00    +0.000 A 
ATOM     13  C   UNL     1       1.962   8.908  18.002  0.00  0.00    +0.000 A 
ATOM     14  C   UNL     1       1.360  10.138  18.290  0.00  0.00    +0.000 A 
ATOM     15  C   UNL     1       0.861  10.369  19.563  0.00  0.00    +0.000 A 
ATOM     16  C   UNL     1       0.984   9.360  20.501  0.00  0.00    +0.000 A 
ATOM     17  N   UNL     1       1.561   8.164  20.249  0.00  0.00    +0.000 NA
ENDBRANCH   3  12
BRANCH   1  18
ATOM     18  N   UNL     1       6.014   5.410  18.154  0.00  0.00    +0.000 N 
ATOM     19  C   UNL     1       6.788   5.541  19.393  0.00  0.00    +0.000 C 
BRANCH  18  20
ATOM     20  C   UNL     1       6.704   5.895  16.942  0.00  0.00    +0.000 C 
BRANCH  20  24
ATOM     21  C   UNL     1       5.832   4.106  13.990  0.00  0.00    +0.000 A 
ATOM     22  N   UNL     1       7.022   4.577  13.596  0.00  0.00    +0.000 NA
ATOM     23  O   UNL     1       7.463   5.288  14.715  0.00  0.00    +0.000 OA
ATOM     24  C   UNL     1       6.482   5.175  15.658  0.00  0.00    +0.000 A 
ATOM     25  N   UNL     1       5.436   4.493  15.245  0.00  0.00    +0.000 NA
BRANCH  21  26
ATOM     26  C   UNL     1       5.050   3.121  13.205  0.00  0.00    +0.000 C 
BRANCH  26  28
ATOM     27  C   UNL     1       6.028   1.890  11.194  0.00  0.00    +0.000 C 
ATOM     28  C   UNL     1       5.372   3.179  11.700  0.00  0.00    +0.000 C 
ATOM     29  C   UNL     1       4.100   3.459  10.899  0.00  0.00    +0.000 C 
ENDBRANCH  26  28
ENDBRANCH  21  26
ENDBRANCH  20  24
ENDBRANCH  18  20
ENDBRANCH   1  18
TORSDOF 6
ENDMDL
MODEL 3
REMARK VINA RESULT:      -9.0      1.190      1.216
REMARK  Name = 
REMARK  9 active torsions:
REMARK  status: ('A' for Active; 'I' for Inactive)
REMARK    1  A    between atoms: C_1  and  C_2
REMARK    2  A    between atoms: C_2  and  C_3
REMARK    3  A    between atoms: C_2  and  C_4
REMARK    4  A    between atoms: C_4  and  C_5
REMARK    5  A    between atoms: C_8  and  C_9
REMARK    6  A    between atoms: C_9  and  N_10
REMARK    7  A    between atoms: N_10  and  C_11
REMARK    8  A    between atoms: N_10  and  C_12
REMARK    9  A    between atoms: C_14  and  C_15
REMARK                            x       y       z     vdW  Elec       q    Type
REMARK                         _______ _______ _______ _____ _____    ______ ____
ROOT
ATOM      1  C   UNL     1       3.848   5.708  18.518  0.00  0.00    +0.000 A 
ATOM      2  N   UNL     1       3.209   6.888  18.695  0.00  0.00    +0.000 NA
ATOM      3  C   UNL     1       2.262   7.016  19.652  0.00  0.00    +0.000 A 
ATOM      4  N   UNL     1       1.908   6.025  20.474  0.00  0.00    +0.000 NA
ATOM      5  C   UNL     1       2.547   4.852  20.322  0.00  0.00    +0.000 A 
ATOM      6  C   UNL     1       3.547   4.642  19.365  0.00  0.00    +0.000 A 
ATOM      7  C   UNL     1       4.231   3.301  19.340  0.00  0.00    +0.000 C 
ATOM      8  C   UNL     1       4.079   2.495  20.633  0.00  0.00    +0.000 C 
ATOM      9  N   UNL     1       2.681   2.436  21.039  0.00  0.00    +0.000 NA
ATOM     10  C   UNL     1       2.204   3.793  21.352  0.00  0.00    +0.000 C 
ATOM     11  H   UNL     1       2.591   1.868  21.878  0.00  0.00    +0.000 HD
ENDROOT
BRANCH   3  12
ATOM     12  C   UNL     1       1.594   8.341  19.806  0.00  0.00    +0.000 A 
ATOM     13  C   UNL     1       1.462   9.230  18.737  0.00  0.00    +0.000 A 
ATOM     14  C   UNL     1       0.821  10.458  18.928  0.00  0.00    +0.000 A 
ATOM     15  C   UNL     1       0.325  10.778  20.184  0.00  0.00    +0.000 A 
ATOM     16  C   UNL     1       0.492   9.857  21.201  0.00  0.00    +0.000 A 
ATOM     17  N   UNL     1       1.108   8.664  21.043  0.00  0.00    +0.000 NA
ENDBRANCH   3  12
BRANCH   1  18
ATOM     18  N   UNL     1       4.846   5.684  17.544  0.00  0.00    +0.000 N 
ATOM     19  C   UNL     1       4.861   6.814  16.609  0.00  0.00    +0.000 C 
BRANCH  18  20
ATOM     20  C   UNL     1       5.468   4.449  17.028  0.00  0.00    +0.000 C 
BRANCH  20  24
ATOM     21  C   UNL     1       6.620   4.374  13.660  0.00  0.00    +0.000 A 
ATOM     22  N   UNL     1       7.653   5.024  14.211  0.00  0.00    +0.000 NA
ATOM     23  O   UNL     1       7.299   5.085  15.561  0.00  0.00    +0.000 OA
ATOM     24  C   UNL     1       6.084   4.472  15.672  0.00  0.00    +0.000 A 
ATOM     25  N   UNL     1       5.602   4.055  14.521  0.00  0.00    +0.000 NA
BRANCH  21  26
ATOM     26  C   UNL     1       6.621   3.895  12.257  0.00  0.00    +0.000 C 
BRANCH  26  28
ATOM     27  C   UNL     1       4.343   3.219  11.322  0.00  0.00    +0.000 C 
ATOM     28  C   UNL     1       5.620   2.746  12.026  0.00  0.00    +0.000 C 
ATOM     29  C   UNL     1       6.276   1.631  11.211  0.00  0.00    +0.000 C 
ENDBRANCH  26  28
ENDBRANCH  21  26
ENDBRANCH  20  24
ENDBRANCH  18  20
ENDBRANCH   1  18
TORSDOF 6
ENDMDL
MODEL 4
REMARK VINA RESULT:      -9.0      2.673      4.922
REMARK  Name = 
REMARK  9 active torsions:
REMARK  status: ('A' for Active; 'I' for Inactive)
REMARK    1  A    between atoms: C_1  and  C_2
REMARK    2  A    between atoms: C_2  and  C_3
REMARK    3  A    between atoms: C_2  and  C_4
REMARK    4  A    between atoms: C_4  and  C_5
REMARK    5  A    between atoms: C_8  and  C_9
REMARK    6  A    between atoms: C_9  and  N_10
REMARK    7  A    between atoms: N_10  and  C_11
REMARK    8  A    between atoms: N_10  and  C_12
REMARK    9  A    between atoms: C_14  and  C_15
REMARK                            x       y       z     vdW  Elec       q    Type
REMARK                         _______ _______ _______ _____ _____    ______ ____
ROOT
ATOM      1  C   UNL     1       4.262   5.332  17.150  0.00  0.00    +0.000 A 
ATOM      2  N   UNL     1       3.748   6.539  17.486  0.00  0.00    +0.000 NA
ATOM      3  C   UNL     1       2.627   6.619  18.236  0.00  0.00    +0.000 A 
ATOM      4  N   UNL     1       1.972   5.551  18.698  0.00  0.00    +0.000 NA
ATOM      5  C   UNL     1       2.481   4.345  18.387  0.00  0.00    +0.000 A 
ATOM      6  C   UNL     1       3.643   4.177  17.626  0.00  0.00    +0.000 A 
ATOM      7  C   UNL     1       4.145   2.776  17.403  0.00  0.00    +0.000 C 
ATOM      8  C   UNL     1       3.598   1.748  18.397  0.00  0.00    +0.000 C 
ATOM      9  N   UNL     1       2.148   1.846  18.490  0.00  0.00    +0.000 NA
ATOM     10  C   UNL     1       1.779   3.165  19.031  0.00  0.00    +0.000 C 
ATOM     11  H   UNL     1       1.795   1.134  19.124  0.00  0.00    +0.000 HD
ENDROOT
BRANCH   3  12
ATOM     12  C   UNL     1       2.108   7.975  18.581  0.00  0.00    +0.000 A 
ATOM     13  C   UNL     1       1.557   8.258  19.833  0.00  0.00    +0.000 A 
ATOM     14  C   UNL     1       1.091   9.546  20.113  0.00  0.00    +0.000 A 
ATOM     15  C   UNL     1       1.180  10.529  19.138  0.00  0.00    +0.000 A 
ATOM     16  C   UNL     1       1.731  10.183  17.918  0.00  0.00    +0.000 A 
ATOM     17  N   UNL     1       2.188   8.946  17.621  0.00  0.00    +0.000 NA
ENDBRANCH   3  12
BRANCH   1  18
ATOM     18  N   UNL     1       5.450   5.347  16.419  0.00  0.00    +0.000 N 
ATOM     19  C   UNL     1       5.374   4.820  15.053  0.00  0.00    +0.000 C 
BRANCH  18  20
ATOM     20  C   UNL     1       6.795   5.293  17.027  0.00  0.00    +0.000 C 
BRANCH  20  24
ATOM     21  C   UNL     1       8.031   8.483  18.012  0.00  0.00    +0.000 A 
ATOM     22  N   UNL     1       8.563   7.748  18.997  0.00  0.00    +0.000 NA
ATOM     23  O   UNL     1       8.146   6.453  18.681  0.00  0.00    +0.000 OA
ATOM     24  C   UNL     1       7.397   6.553  17.544  0.00  0.00    +0.000 A 
ATOM     25  N   UNL     1       7.259   7.789  17.116  0.00  0.00    +0.000 NA
BRANCH  21  26
ATOM     26  C   UNL     1       8.356   9.914  17.803  0.00  0.00    +0.000 C 
BRANCH  26  28
ATOM     27  C   UNL     1      10.403  11.440  17.815  0.00  0.00    +0.000 C 
ATOM     28  C   UNL     1       9.629  10.345  18.557  0.00  0.00    +0.000 C 
ATOM     29  C   UNL     1       9.272  10.828  19.962  0.00  0.00    +0.000 C 
ENDBRANCH  26  28
ENDBRANCH  21  26
ENDBRANCH  20  24
ENDBRANCH  18  20
ENDBRANCH   1  18
TORSDOF 6
ENDMDL
MODEL 5
REMARK VINA RESULT:      -9.0      0.947      1.157
REMARK  Name = 
REMARK  9 active torsions:
REMARK  status: ('A' for Active; 'I' for Inactive)
REMARK    1  A    between atoms: C_1  and  C_2
REMARK    2  A    between atoms: C_2  and  C_3
REMARK    3  A    between atoms: C_2  and  C_4
REMARK    4  A    between atoms: C_4  and  C_5
REMARK    5  A    between atoms: C_8  and  C_9
REMARK    6  A    between atoms: C_9  and  N_10
REMARK    7  A    between atoms: N_10  and  C_11
REMARK    8  A    between atoms: N_10  and  C_12
REMARK    9  A    between atoms: C_14  and  C_15
REMARK                            x       y       z     vdW  Elec       q    Type
REMARK                         _______ _______ _______ _____ _____    ______ ____
ROOT
ATOM      1  C   UNL     1       4.455   5.397  18.421  0.00  0.00    +0.000 A 
ATOM      2  N   UNL     1       3.861   6.592  18.653  0.00  0.00    +0.000 NA
ATOM      3  C   UNL     1       2.546   6.653  18.962  0.00  0.00    +0.000 A 
ATOM      4  N   UNL     1       1.764   5.576  19.070  0.00  0.00    +0.000 NA
ATOM      5  C   UNL     1       2.344   4.381  18.859  0.00  0.00    +0.000 A 
ATOM      6  C   UNL     1       3.701   4.231  18.548  0.00  0.00    +0.000 A 
ATOM      7  C   UNL     1       4.242   2.835  18.400  0.00  0.00    +0.000 C 
ATOM      8  C   UNL     1       3.371   1.753  19.045  0.00  0.00    +0.000 C 
ATOM      9  N   UNL     1       1.984   1.895  18.626  0.00  0.00    +0.000 NA
ATOM     10  C   UNL     1       1.454   3.180  19.110  0.00  0.00    +0.000 C 
ATOM     11  H   UNL     1       1.425   1.148  19.032  0.00  0.00    +0.000 HD
ENDROOT
BRANCH   3  12
ATOM     12  C   UNL     1       1.945   7.996  19.213  0.00  0.00    +0.000 A 
ATOM     13  C   UNL     1       1.862   8.967  18.213  0.00  0.00    +0.000 A 
ATOM     14  C   UNL     1       1.283  10.208  18.494  0.00  0.00    +0.000 A 
ATOM     15  C   UNL     1       0.800  10.460  19.770  0.00  0.00    +0.000 A 
ATOM     16  C   UNL     1       0.916   9.458  20.716  0.00  0.00    +0.000 A 
ATOM     17  N   UNL     1       1.471   8.250  20.471  0.00  0.00    +0.000 NA
ENDBRANCH   3  12
BRANCH   1  18
ATOM     18  N   UNL     1       5.825   5.427  18.163  0.00  0.00    +0.000 N 
ATOM     19  C   UNL     1       6.700   5.559  19.332  0.00  0.00    +0.000 C 
BRANCH  18  20
ATOM     20  C   UNL     1       6.416   5.900  16.895  0.00  0.00    +0.000 C 
BRANCH  20  24
ATOM     21  C   UNL     1       6.399   4.055  13.850  0.00  0.00    +0.000 A 
ATOM     22  N   UNL     1       6.087   3.060  14.690  0.00  0.00    +0.000 NA
ATOM     23  O   UNL     1       6.047   3.700  15.931  0.00  0.00    +0.000 OA
ATOM     24  C   UNL     1       6.351   5.011  15.702  0.00  0.00    +0.000 A 
ATOM     25  N   UNL     1       6.620   5.272  14.441  0.00  0.00    +0.000 NA
BRANCH  21  26
ATOM     26  C   UNL     1       6.371   3.909  12.375  0.00  0.00    +0.000 C 
BRANCH  26  28
ATOM     27  C   UNL     1       4.272   3.181  11.117  0.00  0.00    +0.000 C 
ATOM     28  C   UNL     1       5.498   2.725  11.917  0.00  0.00    +0.000 C 
ATOM     29  C   UNL     1       6.326   1.750  11.080  0.00  0.00    +0.000 C 
ENDBRANCH  26  28
ENDBRANCH  21  26
ENDBRANCH  20  24
ENDBRANCH  18  20
ENDBRANCH   1  18
TORSDOF 6
ENDMDL
MODEL 6
REMARK VINA RESULT:      -8.9      1.400      1.715
REMARK  Name = 
REMARK  9 active torsions:
REMARK  status: ('A' for Active; 'I' for Inactive)
REMARK    1  A    between atoms: C_1  and  C_2
REMARK    2  A    between atoms: C_2  and  C_3
REMARK    3  A    between atoms: C_2  and  C_4
REMARK    4  A    between atoms: C_4  and  C_5
REMARK    5  A    between atoms: C_8  and  C_9
REMARK    6  A    between atoms: C_9  and  N_10
REMARK    7  A    between atoms: N_10  and  C_11
REMARK    8  A    between atoms: N_10  and  C_12
REMARK    9  A    between atoms: C_14  and  C_15
REMARK                            x       y       z     vdW  Elec       q    Type
REMARK                         _______ _______ _______ _____ _____    ______ ____
ROOT
ATOM      1  C   UNL     1       3.485   4.825  18.247  0.00  0.00    +0.000 A 
ATOM      2  N   UNL     1       3.079   6.115  18.183  0.00  0.00    +0.000 NA
ATOM      3  C   UNL     1       2.397   6.669  19.211  0.00  0.00    +0.000 A 
ATOM      4  N   UNL     1       2.093   6.010  20.333  0.00  0.00    +0.000 NA
ATOM      5  C   UNL     1       2.504   4.733  20.417  0.00  0.00    +0.000 A 
ATOM      6  C   UNL     1       3.226   4.091  19.404  0.00  0.00    +0.000 A 
ATOM      7  C   UNL     1       3.684   2.678  19.648  0.00  0.00    +0.000 C 
ATOM      8  C   UNL     1       3.706   2.273  21.125  0.00  0.00    +0.000 C 
ATOM      9  N   UNL     1       2.440   2.601  21.766  0.00  0.00    +0.000 NA
ATOM     10  C   UNL     1       2.247   4.061  21.752  0.00  0.00    +0.000 C 
ATOM     11  H   UNL     1       2.456   2.293  22.735  0.00  0.00    +0.000 HD
ENDROOT
BRANCH   3  12
ATOM     12  C   UNL     1       1.980   8.096  19.090  0.00  0.00    +0.000 A 
ATOM     13  C   UNL     1       2.271   8.856  17.955  0.00  0.00    +0.000 A 
ATOM     14  C   UNL     1       1.853  10.189  17.883  0.00  0.00    +0.000 A 
ATOM     15  C   UNL     1       1.154  10.740  18.947  0.00  0.00    +0.000 A 
ATOM     16  C   UNL     1       0.902   9.936  20.043  0.00  0.00    +0.000 A 
ATOM     17  N   UNL     1       1.295   8.646  20.138  0.00  0.00    +0.000 NA
ENDBRANCH   3  12
BRANCH   1  18
ATOM     18  N   UNL     1       4.228   4.356  17.164  0.00  0.00    +0.000 N 
ATOM     19  C   UNL     1       3.713   3.154  16.500  0.00  0.00    +0.000 C 
BRANCH  18  20
ATOM     20  C   UNL     1       5.679   4.576  17.000  0.00  0.00    +0.000 C 
BRANCH  20  24
ATOM     21  C   UNL     1       6.750   4.448  13.607  0.00  0.00    +0.000 A 
ATOM     22  N   UNL     1       7.609   5.372  14.054  0.00  0.00    +0.000 NA
ATOM     23  O   UNL     1       7.278   5.479  15.407  0.00  0.00    +0.000 OA
ATOM     24  C   UNL     1       6.244   4.612  15.623  0.00  0.00    +0.000 A 
ATOM     25  N   UNL     1       5.853   3.985  14.535  0.00  0.00    +0.000 NA
BRANCH  21  26
ATOM     26  C   UNL     1       6.836   3.849  12.253  0.00  0.00    +0.000 C 
BRANCH  26  28
ATOM     27  C   UNL     1       4.501   3.285  11.390  0.00  0.00    +0.000 C 
ATOM     28  C   UNL     1       5.785   2.745  12.030  0.00  0.00    +0.000 C 
ATOM     29  C   UNL     1       6.366   1.632  11.158  0.00  0.00    +0.000 C 
ENDBRANCH  26  28
ENDBRANCH  21  26
ENDBRANCH  20  24
ENDBRANCH  18  20
ENDBRANCH   1  18
TORSDOF 6
ENDMDL
MODEL 7
REMARK VINA RESULT:      -8.9      2.742      4.936
REMARK  Name = 
REMARK  9 active torsions:
REMARK  status: ('A' for Active; 'I' for Inactive)
REMARK    1  A    between atoms: C_1  and  C_2
REMARK    2  A    between atoms: C_2  and  C_3
REMARK    3  A    between atoms: C_2  and  C_4
REMARK    4  A    between atoms: C_4  and  C_5
REMARK    5  A    between atoms: C_8  and  C_9
REMARK    6  A    between atoms: C_9  and  N_10
REMARK    7  A    between atoms: N_10  and  C_11
REMARK    8  A    between atoms: N_10  and  C_12
REMARK    9  A    between atoms: C_14  and  C_15
REMARK                            x       y       z     vdW  Elec       q    Type
REMARK                         _______ _______ _______ _____ _____    ______ ____
ROOT
ATOM      1  C   UNL     1       4.385   5.239  17.534  0.00  0.00    +0.000 A 
ATOM      2  N   UNL     1       3.843   6.440  17.846  0.00  0.00    +0.000 NA
ATOM      3  C   UNL     1       2.631   6.509  18.441  0.00  0.00    +0.000 A 
ATOM      4  N   UNL     1       1.909   5.434  18.766  0.00  0.00    +0.000 NA
ATOM      5  C   UNL     1       2.442   4.234  18.477  0.00  0.00    +0.000 A 
ATOM      6  C   UNL     1       3.695   4.076  17.874  0.00  0.00    +0.000 A 
ATOM      7  C   UNL     1       4.207   2.677  17.663  0.00  0.00    +0.000 C 
ATOM      8  C   UNL     1       3.519   1.620  18.531  0.00  0.00    +0.000 C 
ATOM      9  N   UNL     1       2.071   1.738  18.431  0.00  0.00    +0.000 NA
ATOM     10  C   UNL     1       1.647   3.041  18.972  0.00  0.00    +0.000 C 
ATOM     11  H   UNL     1       1.628   1.007  18.983  0.00  0.00    +0.000 HD
ENDROOT
BRANCH   3  12
ATOM     12  C   UNL     1       2.085   7.859  18.768  0.00  0.00    +0.000 A 
ATOM     13  C   UNL     1       2.011   8.876  17.814  0.00  0.00    +0.000 A 
ATOM     14  C   UNL     1       1.484  10.122  18.165  0.00  0.00    +0.000 A 
ATOM     15  C   UNL     1       1.043  10.333  19.463  0.00  0.00    +0.000 A 
ATOM     16  C   UNL     1       1.148   9.287  20.361  0.00  0.00    +0.000 A 
ATOM     17  N   UNL     1       1.653   8.073  20.048  0.00  0.00    +0.000 NA
ENDBRANCH   3  12
BRANCH   1  18
ATOM     18  N   UNL     1       5.661   5.263  16.971  0.00  0.00    +0.000 N 
ATOM     19  C   UNL     1       5.835   4.497  15.733  0.00  0.00    +0.000 C 
BRANCH  18  20
ATOM     20  C   UNL     1       6.901   5.474  17.744  0.00  0.00    +0.000 C 
BRANCH  20  24
ATOM     21  C   UNL     1       8.411   8.649  18.307  0.00  0.00    +0.000 A 
ATOM     22  N   UNL     1       7.620   8.982  17.279  0.00  0.00    +0.000 NA
ATOM     23  O   UNL     1       6.957   7.785  16.994  0.00  0.00    +0.000 OA
ATOM     24  C   UNL     1       7.432   6.859  17.879  0.00  0.00    +0.000 A 
ATOM     25  N   UNL     1       8.362   7.330  18.680  0.00  0.00    +0.000 NA
BRANCH  21  26
ATOM     26  C   UNL     1       9.181   9.644  19.092  0.00  0.00    +0.000 C 
BRANCH  26  28
ATOM     27  C   UNL     1       8.918  12.175  19.295  0.00  0.00    +0.000 C 
ATOM     28  C   UNL     1       9.285  11.005  18.376  0.00  0.00    +0.000 C 
ATOM     29  C   UNL     1      10.697  11.204  17.826  0.00  0.00    +0.000 C 
ENDBRANCH  26  28
ENDBRANCH  21  26
ENDBRANCH  20  24
ENDBRANCH  18  20
ENDBRANCH   1  18
TORSDOF 6
ENDMDL
MODEL 8
REMARK VINA RESULT:      -8.8      0.984      1.392
REMARK  Name = 
REMARK  9 active torsions:
REMARK  status: ('A' for Active; 'I' for Inactive)
REMARK    1  A    between atoms: C_1  and  C_2
REMARK    2  A    between atoms: C_2  and  C_3
REMARK    3  A    between atoms: C_2  and  C_4
REMARK    4  A    between atoms: C_4  and  C_5
REMARK    5  A    between atoms: C_8  and  C_9
REMARK    6  A    between atoms: C_9  and  N_10
REMARK    7  A    between atoms: N_10  and  C_11
REMARK    8  A    between atoms: N_10  and  C_12
REMARK    9  A    between atoms: C_14  and  C_15
REMARK                            x       y       z     vdW  Elec       q    Type
REMARK                         _______ _______ _______ _____ _____    ______ ____
ROOT
ATOM      1  C   UNL     1       4.016   5.487  18.632  0.00  0.00    +0.000 A 
ATOM      2  N   UNL     1       3.452   6.616  19.122  0.00  0.00    +0.000 NA
ATOM      3  C   UNL     1       2.203   6.587  19.639  0.00  0.00    +0.000 A 
ATOM      4  N   UNL     1       1.463   5.479  19.713  0.00  0.00    +0.000 NA
ATOM      5  C   UNL     1       2.016   4.346  19.245  0.00  0.00    +0.000 A 
ATOM      6  C   UNL     1       3.307   4.289  18.707  0.00  0.00    +0.000 A 
ATOM      7  C   UNL     1       3.835   2.947  18.278  0.00  0.00    +0.000 C 
ATOM      8  C   UNL     1       3.093   1.755  18.890  0.00  0.00    +0.000 C 
ATOM      9  N   UNL     1       1.654   1.905  18.718  0.00  0.00    +0.000 NA
ATOM     10  C   UNL     1       1.193   3.091  19.459  0.00  0.00    +0.000 C 
ATOM     11  H   UNL     1       1.177   1.090  19.096  0.00  0.00    +0.000 HD
ENDROOT
BRANCH   3  12
ATOM     12  C   UNL     1       1.634   7.860  20.171  0.00  0.00    +0.000 A 
ATOM     13  C   UNL     1       1.247   7.994  21.506  0.00  0.00    +0.000 A 
ATOM     14  C   UNL     1       0.725   9.209  21.961  0.00  0.00    +0.000 A 
ATOM     15  C   UNL     1       0.597  10.268  21.075  0.00  0.00    +0.000 A 
ATOM     16  C   UNL     1       0.994  10.070  19.765  0.00  0.00    +0.000 A 
ATOM     17  N   UNL     1       1.500   8.906  19.300  0.00  0.00    +0.000 NA
ENDBRANCH   3  12
BRANCH   1  18
ATOM     18  N   UNL     1       5.327   5.601  18.169  0.00  0.00    +0.000 N 
ATOM     19  C   UNL     1       6.365   5.732  19.196  0.00  0.00    +0.000 C 
BRANCH  18  20
ATOM     20  C   UNL     1       5.692   6.156  16.850  0.00  0.00    +0.000 C 
BRANCH  20  24
ATOM     21  C   UNL     1       6.352   4.200  13.950  0.00  0.00    +0.000 A 
ATOM     22  N   UNL     1       6.400   3.224  14.866  0.00  0.00    +0.000 NA
ATOM     23  O   UNL     1       6.127   3.900  16.058  0.00  0.00    +0.000 OA
ATOM     24  C   UNL     1       5.954   5.214  15.727  0.00  0.00    +0.000 A 
ATOM     25  N   UNL     1       6.126   5.458  14.446  0.00  0.00    +0.000 NA
BRANCH  21  26
ATOM     26  C   UNL     1       6.391   3.943  12.490  0.00  0.00    +0.000 C 
BRANCH  26  28
ATOM     27  C   UNL     1       4.235   3.378  11.244  0.00  0.00    +0.000 C 
ATOM     28  C   UNL     1       5.412   2.833  12.061  0.00  0.00    +0.000 C 
ATOM     29  C   UNL     1       6.148   1.763  11.255  0.00  0.00    +0.000 C 
ENDBRANCH  26  28
ENDBRANCH  21  26
ENDBRANCH  20  24
ENDBRANCH  18  20
ENDBRANCH   1  18
TORSDOF 6
ENDMDL
MODEL 9
REMARK VINA RESULT:      -8.8      2.954      5.118
REMARK  Name = 
REMARK  9 active torsions:
REMARK  status: ('A' for Active; 'I' for Inactive)
REMARK    1  A    between atoms: C_1  and  C_2
REMARK    2  A    between atoms: C_2  and  C_3
REMARK    3  A    between atoms: C_2  and  C_4
REMARK    4  A    between atoms: C_4  and  C_5
REMARK    5  A    between atoms: C_8  and  C_9
REMARK    6  A    between atoms: C_9  and  N_10
REMARK    7  A    between atoms: N_10  and  C_11
REMARK    8  A    between atoms: N_10  and  C_12
REMARK    9  A    between atoms: C_14  and  C_15
REMARK                            x       y       z     vdW  Elec       q    Type
REMARK                         _______ _______ _______ _____ _____    ______ ____
ROOT
ATOM      1  C   UNL     1       4.377   5.895  17.180  0.00  0.00    +0.000 A 
ATOM      2  N   UNL     1       3.794   7.039  17.610  0.00  0.00    +0.000 NA
ATOM      3  C   UNL     1       2.612   6.998  18.265  0.00  0.00    +0.000 A 
ATOM      4  N   UNL     1       1.960   5.865  18.538  0.00  0.00    +0.000 NA
ATOM      5  C   UNL     1       2.536   4.720  18.131  0.00  0.00    +0.000 A 
ATOM      6  C   UNL     1       3.763   4.675  17.459  0.00  0.00    +0.000 A 
ATOM      7  C   UNL     1       4.332   3.325  17.115  0.00  0.00    +0.000 C 
ATOM      8  C   UNL     1       3.741   2.170  17.929  0.00  0.00    +0.000 C 
ATOM      9  N   UNL     1       2.286   2.219  17.906  0.00  0.00    +0.000 NA
ATOM     10  C   UNL     1       1.827   3.452  18.566  0.00  0.00    +0.000 C 
ATOM     11  H   UNL     1       1.908   1.426  18.418  0.00  0.00    +0.000 HD
ENDROOT
BRANCH   3  12
ATOM     12  C   UNL     1       2.017   8.288  18.723  0.00  0.00    +0.000 A 
ATOM     13  C   UNL     1       2.039   9.434  17.926  0.00  0.00    +0.000 A 
ATOM     14  C   UNL     1       1.461  10.619  18.394  0.00  0.00    +0.000 A 
ATOM     15  C   UNL     1       0.876  10.639  19.652  0.00  0.00    +0.000 A 
ATOM     16  C   UNL     1       0.892   9.472  20.393  0.00  0.00    +0.000 A 
ATOM     17  N   UNL     1       1.443   8.314  19.964  0.00  0.00    +0.000 NA
ENDBRANCH   3  12
BRANCH   1  18
ATOM     18  N   UNL     1       5.621   6.030  16.562  0.00  0.00    +0.000 N 
ATOM     19  C   UNL     1       5.682   5.653  15.146  0.00  0.00    +0.000 C 
BRANCH  18  20
ATOM     20  C   UNL     1       6.911   5.953  17.276  0.00  0.00    +0.000 C 
BRANCH  20  24
ATOM     21  C   UNL     1       8.252   9.155  18.067  0.00  0.00    +0.000 A 
ATOM     22  N   UNL     1       8.872   8.438  19.014  0.00  0.00    +0.000 NA
ATOM     23  O   UNL     1       8.419   7.139  18.768  0.00  0.00    +0.000 OA
ATOM     24  C   UNL     1       7.566   7.220  17.704  0.00  0.00    +0.000 A 
ATOM     25  N   UNL     1       7.396   8.447  17.264  0.00  0.00    +0.000 NA
BRANCH  21  26
ATOM     26  C   UNL     1       8.565  10.579  17.796  0.00  0.00    +0.000 C 
BRANCH  26  28
ATOM     27  C   UNL     1      10.941  11.507  17.885  0.00  0.00    +0.000 C 
ATOM     28  C   UNL     1       9.698  11.114  18.691  0.00  0.00    +0.000 C 
ATOM     29  C   UNL     1       9.208  12.313  19.502  0.00  0.00    +0.000 C 
ENDBRANCH  26  28
ENDBRANCH  21  26
ENDBRANCH  20  24
ENDBRANCH  18  20
ENDBRANCH   1  18
TORSDOF 6
ENDMDL
