MODEL 1
REMARK VINA RESULT:      -7.9      0.000      0.000
REMARK  Name = 
REMARK  14 active torsions:
REMARK  status: ('A' for Active; 'I' for Inactive)
REMARK    1  A    between atoms: C_1  and  O_2
REMARK    2  A    between atoms: O_2  and  C_3
REMARK    3  A    between atoms: C_3  and  C_5
REMARK    4  A    between atoms: C_5  and  C_6
REMARK    5  A    between atoms: C_5  and  N_13
REMARK    6  A    between atoms: C_6  and  C_7
REMARK    7  A    between atoms: N_13  and  C_14
REMARK    8  A    between atoms: C_14  and  C_15
REMARK    9  A    between atoms: C_15  and  C_16
REMARK   10  A    between atoms: C_16  and  N_17
REMARK   11  A    between atoms: C_20  and  C_21
REMARK   12  A    between atoms: N_23  and  C_24
REMARK   13  A    between atoms: C_27  and  C_28
REMARK   14  A    between atoms: C_29  and  C_30
REMARK                            x       y       z     vdW  Elec       q    Type
REMARK                         _______ _______ _______ _____ _____    ______ ____
ROOT
ATOM      1  C   UNL     1       1.982   8.977  18.109  0.00  0.00    +0.000 C 
ENDROOT
BRANCH   1   2
ATOM      2  N   UNL     1       1.499   8.931  19.472  0.00  0.00    +0.000 N 
ATOM      3  C   UNL     1       1.736   7.949  20.364  0.00  0.00    +0.000 A 
ATOM      4  N   UNL     1       1.131   8.227  21.499  0.00  0.00    +0.000 NA
ATOM      5  C   UNL     1       0.611   9.484  21.297  0.00  0.00    +0.000 A 
ATOM      6  N   UNL     1       0.784   9.929  20.021  0.00  0.00    +0.000 NA
BRANCH   5   7
ATOM      7  C   UNL     1      -0.032  10.281  22.354  0.00  0.00    +0.000 C 
ATOM      8  O   UNL     1       0.155  10.039  23.531  0.00  0.00    +0.000 OA
ATOM      9  N   UNL     1      -0.922  11.279  21.894  0.00  0.00    +0.000 N 
ATOM     10  H   UNL     1      -1.164  11.243  20.916  0.00  0.00    +0.000 HD
BRANCH   9  11
ATOM     11  C   UNL     1      -1.540  12.255  22.718  0.00  0.00    +0.000 A 
ATOM     12  C   UNL     1      -0.940  13.489  22.960  0.00  0.00    +0.000 A 
ATOM     13  C   UNL     1      -1.567  14.462  23.746  0.00  0.00    +0.000 A 
ATOM     14  C   UNL     1      -2.814  14.224  24.325  0.00  0.00    +0.000 A 
ATOM     15  C   UNL     1      -3.445  15.326  25.126  0.00  0.00    +0.000 C 
ATOM     16  C   UNL     1      -3.433  12.975  24.116  0.00  0.00    +0.000 A 
ATOM     17  C   UNL     1      -4.743  12.619  24.768  0.00  0.00    +0.000 C 
ATOM     18  C   UNL     1      -2.792  12.007  23.287  0.00  0.00    +0.000 A 
ENDBRANCH   9  11
ENDBRANCH   5   7
ENDBRANCH   1   2
BRANCH   1  19
ATOM     19  C   UNL     1       2.443   7.629  17.550  0.00  0.00    +0.000 C 
BRANCH  19  20
ATOM     20  C   UNL     1       3.943   7.371  17.734  0.00  0.00    +0.000 C 
BRANCH  20  21
ATOM     21  N   UNL     1       4.500   6.590  16.637  0.00  0.00    +0.000 NA
ATOM     22  H   UNL     1       3.781   6.178  16.044  0.00  0.00    +0.000 HD
BRANCH  21  23
ATOM     23  C   UNL     1       5.393   5.482  17.076  0.00  0.00    +0.000 C 
BRANCH  23  24
ATOM     24  C   UNL     1       6.712   5.562  16.274  0.00  0.00    +0.000 C 
ATOM     25  O   UNL     1       7.084   4.744  15.439  0.00  0.00    +0.000 OA
BRANCH  24  27
ATOM     26  C   UNL     1       7.717   6.716  18.056  0.00  0.00    +0.000 C 
ATOM     27  O   UNL     1       7.442   6.653  16.654  0.00  0.00    +0.000 OA
ENDBRANCH  24  27
ENDBRANCH  23  24
BRANCH  23  28
ATOM     28  C   UNL     1       4.755   4.066  16.973  0.00  0.00    +0.000 C 
BRANCH  28  29
ATOM     29  C   UNL     1       3.668   3.719  17.973  0.00  0.00    +0.000 A 
ATOM     30  C   UNL     1       3.924   3.606  19.345  0.00  0.00    +0.000 A 
ATOM     31  C   UNL     1       2.968   3.106  20.234  0.00  0.00    +0.000 A 
ATOM     32  C   UNL     1       1.693   2.816  19.781  0.00  0.00    +0.000 A 
ATOM     33  C   UNL     1       1.363   3.119  18.468  0.00  0.00    +0.000 A 
ATOM     34  C   UNL     1       2.352   3.513  17.551  0.00  0.00    +0.000 A 
ENDBRANCH  28  29
ENDBRANCH  23  28
ENDBRANCH  21  23
ENDBRANCH  20  21
ENDBRANCH  19  20
ENDBRANCH   1  19
TORSDOF 11
ENDMDL
MODEL 2
REMARK VINA RESULT:      -7.4      3.719      5.004
REMARK  Name = 
REMARK  14 active torsions:
REMARK  status: ('A' for Active; 'I' for Inactive)
REMARK    1  A    between atoms: C_1  and  O_2
REMARK    2  A    between atoms: O_2  and  C_3
REMARK    3  A    between atoms: C_3  and  C_5
REMARK    4  A    between atoms: C_5  and  C_6
REMARK    5  A    between atoms: C_5  and  N_13
REMARK    6  A    between atoms: C_6  and  C_7
REMARK    7  A    between atoms: N_13  and  C_14
REMARK    8  A    between atoms: C_14  and  C_15
REMARK    9  A    between atoms: C_15  and  C_16
REMARK   10  A    between atoms: C_16  and  N_17
REMARK   11  A    between atoms: C_20  and  C_21
REMARK   12  A    between atoms: N_23  and  C_24
REMARK   13  A    between atoms: C_27  and  C_28
REMARK   14  A    between atoms: C_29  and  C_30
REMARK                            x       y       z     vdW  Elec       q    Type
REMARK                         _______ _______ _______ _____ _____    ______ ____
ROOT
ATOM      1  C   UNL     1       2.584   8.270  18.130  0.00  0.00    +0.000 C 
ENDROOT
BRANCH   1   2
ATOM      2  N   UNL     1       1.496   9.017  18.723  0.00  0.00    +0.000 N 
ATOM      3  C   UNL     1       1.249   9.146  20.042  0.00  0.00    +0.000 A 
ATOM      4  N   UNL     1       0.172   9.881  20.219  0.00  0.00    +0.000 NA
ATOM      5  C   UNL     1      -0.159  10.296  18.951  0.00  0.00    +0.000 A 
ATOM      6  N   UNL     1       0.623   9.731  17.990  0.00  0.00    +0.000 NA
BRANCH   5   7
ATOM      7  C   UNL     1      -1.221  11.272  18.663  0.00  0.00    +0.000 C 
ATOM      8  O   UNL     1      -0.961  12.429  18.392  0.00  0.00    +0.000 OA
ATOM      9  N   UNL     1      -2.541  10.779  18.797  0.00  0.00    +0.000 N 
ATOM     10  H   UNL     1      -2.636   9.877  19.235  0.00  0.00    +0.000 HD
BRANCH   9  11
ATOM     11  C   UNL     1      -3.712  11.493  18.433  0.00  0.00    +0.000 A 
ATOM     12  C   UNL     1      -4.224  11.440  17.139  0.00  0.00    +0.000 A 
ATOM     13  C   UNL     1      -5.398  12.117  16.791  0.00  0.00    +0.000 A 
ATOM     14  C   UNL     1      -6.091  12.881  17.731  0.00  0.00    +0.000 A 
ATOM     15  C   UNL     1      -7.363  13.551  17.299  0.00  0.00    +0.000 C 
ATOM     16  C   UNL     1      -5.583  12.972  19.042  0.00  0.00    +0.000 A 
ATOM     17  C   UNL     1      -6.235  13.835  20.089  0.00  0.00    +0.000 C 
ATOM     18  C   UNL     1      -4.401  12.249  19.385  0.00  0.00    +0.000 A 
ENDBRANCH   9  11
ENDBRANCH   5   7
ENDBRANCH   1   2
BRANCH   1  19
ATOM     19  C   UNL     1       2.349   6.760  18.046  0.00  0.00    +0.000 C 
BRANCH  19  20
ATOM     20  C   UNL     1       2.615   6.027  19.366  0.00  0.00    +0.000 C 
BRANCH  20  21
ATOM     21  N   UNL     1       3.889   5.316  19.346  0.00  0.00    +0.000 NA
ATOM     22  H   UNL     1       4.684   5.940  19.218  0.00  0.00    +0.000 HD
BRANCH  21  23
ATOM     23  C   UNL     1       3.980   4.269  18.292  0.00  0.00    +0.000 C 
BRANCH  23  24
ATOM     24  C   UNL     1       4.208   2.900  18.973  0.00  0.00    +0.000 C 
ATOM     25  O   UNL     1       4.886   2.713  19.978  0.00  0.00    +0.000 OA
BRANCH  24  27
ATOM     26  C   UNL     1       2.259   2.223  17.851  0.00  0.00    +0.000 C 
ATOM     27  O   UNL     1       3.587   1.904  18.273  0.00  0.00    +0.000 OA
ENDBRANCH  24  27
ENDBRANCH  23  24
BRANCH  23  28
ATOM     28  C   UNL     1       5.060   4.546  17.205  0.00  0.00    +0.000 C 
BRANCH  28  29
ATOM     29  C   UNL     1       6.179   5.504  17.566  0.00  0.00    +0.000 A 
ATOM     30  C   UNL     1       7.182   5.170  18.482  0.00  0.00    +0.000 A 
ATOM     31  C   UNL     1       8.099   6.116  18.949  0.00  0.00    +0.000 A 
ATOM     32  C   UNL     1       8.100   7.394  18.417  0.00  0.00    +0.000 A 
ATOM     33  C   UNL     1       7.248   7.680  17.360  0.00  0.00    +0.000 A 
ATOM     34  C   UNL     1       6.254   6.767  16.971  0.00  0.00    +0.000 A 
ENDBRANCH  28  29
ENDBRANCH  23  28
ENDBRANCH  21  23
ENDBRANCH  20  21
ENDBRANCH  19  20
ENDBRANCH   1  19
TORSDOF 11
ENDMDL
MODEL 3
REMARK VINA RESULT:      -7.3      1.287      1.653
REMARK  Name = 
REMARK  14 active torsions:
REMARK  status: ('A' for Active; 'I' for Inactive)
REMARK    1  A    between atoms: C_1  and  O_2
REMARK    2  A    between atoms: O_2  and  C_3
REMARK    3  A    between atoms: C_3  and  C_5
REMARK    4  A    between atoms: C_5  and  C_6
REMARK    5  A    between atoms: C_5  and  N_13
REMARK    6  A    between atoms: C_6  and  C_7
REMARK    7  A    between atoms: N_13  and  C_14
REMARK    8  A    between atoms: C_14  and  C_15
REMARK    9  A    between atoms: C_15  and  C_16
REMARK   10  A    between atoms: C_16  and  N_17
REMARK   11  A    between atoms: C_20  and  C_21
REMARK   12  A    between atoms: N_23  and  C_24
REMARK   13  A    between atoms: C_27  and  C_28
REMARK   14  A    between atoms: C_29  and  C_30
REMARK                            x       y       z     vdW  Elec       q    Type
REMARK                         _______ _______ _______ _____ _____    ______ ____
ROOT
ATOM      1  C   UNL     1       1.862   7.992  17.758  0.00  0.00    +0.000 C 
ENDROOT
BRANCH   1   2
ATOM      2  N   UNL     1       1.137   9.070  18.394  0.00  0.00    +0.000 N 
ATOM      3  C   UNL     1       0.297   9.929  17.784  0.00  0.00    +0.000 A 
ATOM      4  N   UNL     1      -0.174  10.787  18.663  0.00  0.00    +0.000 NA
ATOM      5  C   UNL     1       0.327  10.340  19.863  0.00  0.00    +0.000 A 
ATOM      6  N   UNL     1       1.189   9.296  19.719  0.00  0.00    +0.000 NA
BRANCH   5   7
ATOM      7  C   UNL     1      -0.055  10.903  21.168  0.00  0.00    +0.000 C 
ATOM      8  O   UNL     1       0.480  10.537  22.197  0.00  0.00    +0.000 OA
ATOM      9  N   UNL     1      -1.123  11.830  21.130  0.00  0.00    +0.000 N 
ATOM     10  H   UNL     1      -1.630  11.890  20.261  0.00  0.00    +0.000 HD
BRANCH   9  11
ATOM     11  C   UNL     1      -1.563  12.603  22.235  0.00  0.00    +0.000 A 
ATOM     12  C   UNL     1      -0.867  13.735  22.655  0.00  0.00    +0.000 A 
ATOM     13  C   UNL     1      -1.322  14.514  23.725  0.00  0.00    +0.000 A 
ATOM     14  C   UNL     1      -2.485  14.177  24.416  0.00  0.00    +0.000 A 
ATOM     15  C   UNL     1      -2.934  15.079  25.529  0.00  0.00    +0.000 C 
ATOM     16  C   UNL     1      -3.197  13.024  24.028  0.00  0.00    +0.000 A 
ATOM     17  C   UNL     1      -4.419  12.556  24.772  0.00  0.00    +0.000 C 
ATOM     18  C   UNL     1      -2.735  12.258  22.916  0.00  0.00    +0.000 A 
ENDBRANCH   9  11
ENDBRANCH   5   7
ENDBRANCH   1   2
BRANCH   1  19
ATOM     19  C   UNL     1       3.367   7.984  18.039  0.00  0.00    +0.000 C 
BRANCH  19  20
ATOM     20  C   UNL     1       4.164   7.104  17.069  0.00  0.00    +0.000 C 
BRANCH  20  21
ATOM     21  N   UNL     1       5.330   6.505  17.710  0.00  0.00    +0.000 NA
ATOM     22  H   UNL     1       6.196   6.705  17.213  0.00  0.00    +0.000 HD
BRANCH  21  23
ATOM     23  C   UNL     1       5.243   5.027  17.861  0.00  0.00    +0.000 C 
BRANCH  23  24
ATOM     24  C   UNL     1       6.543   4.396  17.309  0.00  0.00    +0.000 C 
ATOM     25  O   UNL     1       7.624   4.380  17.889  0.00  0.00    +0.000 OA
BRANCH  24  27
ATOM     26  C   UNL     1       6.966   4.645  15.012  0.00  0.00    +0.000 C 
ATOM     27  O   UNL     1       6.340   3.893  16.055  0.00  0.00    +0.000 OA
ENDBRANCH  24  27
ENDBRANCH  23  24
BRANCH  23  28
ATOM     28  C   UNL     1       3.984   4.388  17.205  0.00  0.00    +0.000 C 
BRANCH  28  29
ATOM     29  C   UNL     1       2.871   3.935  18.132  0.00  0.00    +0.000 A 
ATOM     30  C   UNL     1       2.516   4.655  19.278  0.00  0.00    +0.000 A 
ATOM     31  C   UNL     1       1.623   4.142  20.224  0.00  0.00    +0.000 A 
ATOM     32  C   UNL     1       0.980   2.940  19.980  0.00  0.00    +0.000 A 
ATOM     33  C   UNL     1       1.165   2.318  18.754  0.00  0.00    +0.000 A 
ATOM     34  C   UNL     1       2.144   2.774  17.856  0.00  0.00    +0.000 A 
ENDBRANCH  28  29
ENDBRANCH  23  28
ENDBRANCH  21  23
ENDBRANCH  20  21
ENDBRANCH  19  20
ENDBRANCH   1  19
TORSDOF 11
ENDMDL
MODEL 4
REMARK VINA RESULT:      -7.3      1.100      1.576
REMARK  Name = 
REMARK  14 active torsions:
REMARK  status: ('A' for Active; 'I' for Inactive)
REMARK    1  A    between atoms: C_1  and  O_2
REMARK    2  A    between atoms: O_2  and  C_3
REMARK    3  A    between atoms: C_3  and  C_5
REMARK    4  A    between atoms: C_5  and  C_6
REMARK    5  A    between atoms: C_5  and  N_13
REMARK    6  A    between atoms: C_6  and  C_7
REMARK    7  A    between atoms: N_13  and  C_14
REMARK    8  A    between atoms: C_14  and  C_15
REMARK    9  A    between atoms: C_15  and  C_16
REMARK   10  A    between atoms: C_16  and  N_17
REMARK   11  A    between atoms: C_20  and  C_21
REMARK   12  A    between atoms: N_23  and  C_24
REMARK   13  A    between atoms: C_27  and  C_28
REMARK   14  A    between atoms: C_29  and  C_30
REMARK                            x       y       z     vdW  Elec       q    Type
REMARK                         _______ _______ _______ _____ _____    ______ ____
ROOT
ATOM      1  C   UNL     1       2.222   7.684  18.287  0.00  0.00    +0.000 C 
ENDROOT
BRANCH   1   2
ATOM      2  N   UNL     1       1.705   8.291  19.493  0.00  0.00    +0.000 N 
ATOM      3  C   UNL     1       1.688   7.731  20.719  0.00  0.00    +0.000 A 
ATOM      4  N   UNL     1       1.132   8.561  21.577  0.00  0.00    +0.000 NA
ATOM      5  C   UNL     1       0.917   9.702  20.841  0.00  0.00    +0.000 A 
ATOM      6  N   UNL     1       1.221   9.546  19.523  0.00  0.00    +0.000 NA
BRANCH   5   7
ATOM      7  C   UNL     1       0.444  10.969  21.421  0.00  0.00    +0.000 C 
ATOM      8  O   UNL     1       1.002  12.023  21.181  0.00  0.00    +0.000 OA
ATOM      9  N   UNL     1      -0.644  10.848  22.317  0.00  0.00    +0.000 N 
ATOM     10  H   UNL     1      -0.880   9.912  22.606  0.00  0.00    +0.000 HD
BRANCH   9  11
ATOM     11  C   UNL     1      -1.354  11.940  22.879  0.00  0.00    +0.000 A 
ATOM     12  C   UNL     1      -0.799  13.217  22.939  0.00  0.00    +0.000 A 
ATOM     13  C   UNL     1      -1.514  14.299  23.464  0.00  0.00    +0.000 A 
ATOM     14  C   UNL     1      -2.808  14.132  23.957  0.00  0.00    +0.000 A 
ATOM     15  C   UNL     1      -3.530  15.344  24.472  0.00  0.00    +0.000 C 
ATOM     16  C   UNL     1      -3.386  12.847  23.931  0.00  0.00    +0.000 A 
ATOM     17  C   UNL     1      -4.748  12.577  24.513  0.00  0.00    +0.000 C 
ATOM     18  C   UNL     1      -2.653  11.762  23.364  0.00  0.00    +0.000 A 
ENDBRANCH   9  11
ENDBRANCH   5   7
ENDBRANCH   1   2
BRANCH   1  19
ATOM     19  C   UNL     1       3.635   7.111  18.417  0.00  0.00    +0.000 C 
BRANCH  19  20
ATOM     20  C   UNL     1       4.329   6.884  17.070  0.00  0.00    +0.000 C 
BRANCH  20  21
ATOM     21  N   UNL     1       5.658   6.305  17.232  0.00  0.00    +0.000 NA
ATOM     22  H   UNL     1       6.295   6.568  16.481  0.00  0.00    +0.000 HD
BRANCH  21  23
ATOM     23  C   UNL     1       5.664   4.818  17.309  0.00  0.00    +0.000 C 
BRANCH  23  24
ATOM     24  C   UNL     1       6.897   4.288  16.543  0.00  0.00    +0.000 C 
ATOM     25  O   UNL     1       8.038   4.232  16.990  0.00  0.00    +0.000 OA
BRANCH  24  27
ATOM     26  C   UNL     1       6.942   4.873  14.269  0.00  0.00    +0.000 C 
ATOM     27  O   UNL     1       6.557   3.928  15.270  0.00  0.00    +0.000 OA
ENDBRANCH  24  27
ENDBRANCH  23  24
BRANCH  23  28
ATOM     28  C   UNL     1       4.353   4.145  16.804  0.00  0.00    +0.000 C 
BRANCH  28  29
ATOM     29  C   UNL     1       3.431   3.547  17.849  0.00  0.00    +0.000 A 
ATOM     30  C   UNL     1       2.073   3.318  17.603  0.00  0.00    +0.000 A 
ATOM     31  C   UNL     1       1.192   2.943  18.621  0.00  0.00    +0.000 A 
ATOM     32  C   UNL     1       1.680   2.679  19.890  0.00  0.00    +0.000 A 
ATOM     33  C   UNL     1       3.051   2.701  20.097  0.00  0.00    +0.000 A 
ATOM     34  C   UNL     1       3.921   3.185  19.107  0.00  0.00    +0.000 A 
ENDBRANCH  28  29
ENDBRANCH  23  28
ENDBRANCH  21  23
ENDBRANCH  20  21
ENDBRANCH  19  20
ENDBRANCH   1  19
TORSDOF 11
ENDMDL
MODEL 5
REMARK VINA RESULT:      -7.3      3.389      5.244
REMARK  Name = 
REMARK  14 active torsions:
REMARK  status: ('A' for Active; 'I' for Inactive)
REMARK    1  A    between atoms: C_1  and  O_2
REMARK    2  A    between atoms: O_2  and  C_3
REMARK    3  A    between atoms: C_3  and  C_5
REMARK    4  A    between atoms: C_5  and  C_6
REMARK    5  A    between atoms: C_5  and  N_13
REMARK    6  A    between atoms: C_6  and  C_7
REMARK    7  A    between atoms: N_13  and  C_14
REMARK    8  A    between atoms: C_14  and  C_15
REMARK    9  A    between atoms: C_15  and  C_16
REMARK   10  A    between atoms: C_16  and  N_17
REMARK   11  A    between atoms: C_20  and  C_21
REMARK   12  A    between atoms: N_23  and  C_24
REMARK   13  A    between atoms: C_27  and  C_28
REMARK   14  A    between atoms: C_29  and  C_30
REMARK                            x       y       z     vdW  Elec       q    Type
REMARK                         _______ _______ _______ _____ _____    ______ ____
ROOT
ATOM      1  C   UNL     1       2.973   2.981  19.363  0.00  0.00    +0.000 C 
ENDROOT
BRANCH   1   2
ATOM      2  N   UNL     1       2.533   4.292  19.790  0.00  0.00    +0.000 N 
ATOM      3  C   UNL     1       2.206   4.648  21.048  0.00  0.00    +0.000 A 
ATOM      4  N   UNL     1       1.837   5.911  21.067  0.00  0.00    +0.000 NA
ATOM      5  C   UNL     1       2.066   6.343  19.782  0.00  0.00    +0.000 A 
ATOM      6  N   UNL     1       2.455   5.339  18.949  0.00  0.00    +0.000 NA
BRANCH   5   7
ATOM      7  C   UNL     1       1.940   7.747  19.359  0.00  0.00    +0.000 C 
ATOM      8  O   UNL     1       2.574   8.183  18.417  0.00  0.00    +0.000 OA
ATOM      9  N   UNL     1       1.094   8.542  20.166  0.00  0.00    +0.000 N 
ATOM     10  H   UNL     1       0.798   8.133  21.039  0.00  0.00    +0.000 HD
BRANCH   9  11
ATOM     11  C   UNL     1       0.711   9.875  19.869  0.00  0.00    +0.000 A 
ATOM     12  C   UNL     1       1.324  10.964  20.484  0.00  0.00    +0.000 A 
ATOM     13  C   UNL     1       0.967  12.279  20.164  0.00  0.00    +0.000 A 
ATOM     14  C   UNL     1      -0.027  12.544  19.222  0.00  0.00    +0.000 A 
ATOM     15  C   UNL     1      -0.333  13.978  18.901  0.00  0.00    +0.000 C 
ATOM     16  C   UNL     1      -0.681  11.461  18.601  0.00  0.00    +0.000 A 
ATOM     17  C   UNL     1      -1.813  11.668  17.630  0.00  0.00    +0.000 C 
ATOM     18  C   UNL     1      -0.282  10.128  18.918  0.00  0.00    +0.000 A 
ENDBRANCH   9  11
ENDBRANCH   5   7
ENDBRANCH   1   2
BRANCH   1  19
ATOM     19  C   UNL     1       4.481   2.862  19.125  0.00  0.00    +0.000 C 
BRANCH  19  20
ATOM     20  C   UNL     1       5.189   4.217  19.010  0.00  0.00    +0.000 C 
BRANCH  20  21
ATOM     21  N   UNL     1       6.442   4.115  18.270  0.00  0.00    +0.000 NA
ATOM     22  H   UNL     1       7.243   4.438  18.810  0.00  0.00    +0.000 HD
BRANCH  21  23
ATOM     23  C   UNL     1       6.447   4.868  16.986  0.00  0.00    +0.000 C 
BRANCH  23  24
ATOM     24  C   UNL     1       6.044   6.333  17.270  0.00  0.00    +0.000 C 
ATOM     25  O   UNL     1       5.073   6.907  16.787  0.00  0.00    +0.000 OA
BRANCH  24  27
ATOM     26  C   UNL     1       7.753   7.931  17.475  0.00  0.00    +0.000 C 
ATOM     27  O   UNL     1       6.948   6.930  18.103  0.00  0.00    +0.000 OA
ENDBRANCH  24  27
ENDBRANCH  23  24
BRANCH  23  28
ATOM     28  C   UNL     1       5.556   4.243  15.872  0.00  0.00    +0.000 C 
BRANCH  28  29
ATOM     29  C   UNL     1       6.091   4.276  14.453  0.00  0.00    +0.000 A 
ATOM     30  C   UNL     1       5.482   3.570  13.409  0.00  0.00    +0.000 A 
ATOM     31  C   UNL     1       6.080   3.454  12.151  0.00  0.00    +0.000 A 
ATOM     32  C   UNL     1       7.251   4.141  11.880  0.00  0.00    +0.000 A 
ATOM     33  C   UNL     1       7.755   5.009  12.838  0.00  0.00    +0.000 A 
ATOM     34  C   UNL     1       7.219   5.038  14.135  0.00  0.00    +0.000 A 
ENDBRANCH  28  29
ENDBRANCH  23  28
ENDBRANCH  21  23
ENDBRANCH  20  21
ENDBRANCH  19  20
ENDBRANCH   1  19
TORSDOF 11
ENDMDL
MODEL 6
REMARK VINA RESULT:      -7.3      1.241      1.627
REMARK  Name = 
REMARK  14 active torsions:
REMARK  status: ('A' for Active; 'I' for Inactive)
REMARK    1  A    between atoms: C_1  and  O_2
REMARK    2  A    between atoms: O_2  and  C_3
REMARK    3  A    between atoms: C_3  and  C_5
REMARK    4  A    between atoms: C_5  and  C_6
REMARK    5  A    between atoms: C_5  and  N_13
REMARK    6  A    between atoms: C_6  and  C_7
REMARK    7  A    between atoms: N_13  and  C_14
REMARK    8  A    between atoms: C_14  and  C_15
REMARK    9  A    between atoms: C_15  and  C_16
REMARK   10  A    between atoms: C_16  and  N_17
REMARK   11  A    between atoms: C_20  and  C_21
REMARK   12  A    between atoms: N_23  and  C_24
REMARK   13  A    between atoms: C_27  and  C_28
REMARK   14  A    between atoms: C_29  and  C_30
REMARK                            x       y       z     vdW  Elec       q    Type
REMARK                         _______ _______ _______ _____ _____    ______ ____
ROOT
ATOM      1  C   UNL     1       2.299   7.624  18.403  0.00  0.00    +0.000 C 
ENDROOT
BRANCH   1   2
ATOM      2  N   UNL     1       1.654   8.804  18.936  0.00  0.00    +0.000 N 
ATOM      3  C   UNL     1       1.157   9.831  18.217  0.00  0.00    +0.000 A 
ATOM      4  N   UNL     1       0.656  10.737  19.029  0.00  0.00    +0.000 NA
ATOM      5  C   UNL     1       0.763  10.163  20.274  0.00  0.00    +0.000 A 
ATOM      6  N   UNL     1       1.428   8.975  20.251  0.00  0.00    +0.000 NA
BRANCH   5   7
ATOM      7  C   UNL     1       0.191  10.750  21.495  0.00  0.00    +0.000 C 
ATOM      8  O   UNL     1       0.505  10.347  22.599  0.00  0.00    +0.000 OA
ATOM      9  N   UNL     1      -0.787  11.749  21.278  0.00  0.00    +0.000 N 
ATOM     10  H   UNL     1      -1.123  11.845  20.332  0.00  0.00    +0.000 HD
BRANCH   9  11
ATOM     11  C   UNL     1      -1.366  12.550  22.296  0.00  0.00    +0.000 A 
ATOM     12  C   UNL     1      -0.782  13.748  22.701  0.00  0.00    +0.000 A 
ATOM     13  C   UNL     1      -1.372  14.552  23.682  0.00  0.00    +0.000 A 
ATOM     14  C   UNL     1      -2.566  14.173  24.297  0.00  0.00    +0.000 A 
ATOM     15  C   UNL     1      -3.163  15.102  25.315  0.00  0.00    +0.000 C 
ATOM     16  C   UNL     1      -3.167  12.955  23.924  0.00  0.00    +0.000 A 
ATOM     17  C   UNL     1      -4.414  12.445  24.596  0.00  0.00    +0.000 C 
ATOM     18  C   UNL     1      -2.565  12.163  22.901  0.00  0.00    +0.000 A 
ENDBRANCH   9  11
ENDBRANCH   5   7
ENDBRANCH   1   2
BRANCH   1  19
ATOM     19  C   UNL     1       3.470   7.910  17.459  0.00  0.00    +0.000 C 
BRANCH  19  20
ATOM     20  C   UNL     1       4.550   6.823  17.479  0.00  0.00    +0.000 C 
BRANCH  20  21
ATOM     21  N   UNL     1       4.177   5.700  18.332  0.00  0.00    +0.000 NA
ATOM     22  H   UNL     1       4.063   5.971  19.308  0.00  0.00    +0.000 HD
BRANCH  21  23
ATOM     23  C   UNL     1       5.146   4.571  18.301  0.00  0.00    +0.000 C 
BRANCH  23  24
ATOM     24  C   UNL     1       5.458   4.226  16.827  0.00  0.00    +0.000 C 
ATOM     25  O   UNL     1       4.634   3.865  15.994  0.00  0.00    +0.000 OA
BRANCH  24  27
ATOM     26  C   UNL     1       7.119   4.753  15.251  0.00  0.00    +0.000 C 
ATOM     27  O   UNL     1       6.798   4.334  16.580  0.00  0.00    +0.000 OA
ENDBRANCH  24  27
ENDBRANCH  23  24
BRANCH  23  28
ATOM     28  C   UNL     1       4.685   3.310  19.090  0.00  0.00    +0.000 C 
BRANCH  28  29
ATOM     29  C   UNL     1       3.207   3.191  19.409  0.00  0.00    +0.000 A 
ATOM     30  C   UNL     1       2.675   3.589  20.641  0.00  0.00    +0.000 A 
ATOM     31  C   UNL     1       1.354   3.308  20.999  0.00  0.00    +0.000 A 
ATOM     32  C   UNL     1       0.503   2.719  20.079  0.00  0.00    +0.000 A 
ATOM     33  C   UNL     1       0.958   2.508  18.785  0.00  0.00    +0.000 A 
ATOM     34  C   UNL     1       2.312   2.686  18.462  0.00  0.00    +0.000 A 
ENDBRANCH  28  29
ENDBRANCH  23  28
ENDBRANCH  21  23
ENDBRANCH  20  21
ENDBRANCH  19  20
ENDBRANCH   1  19
TORSDOF 11
ENDMDL
MODEL 7
REMARK VINA RESULT:      -7.2      2.119      2.778
REMARK  Name = 
REMARK  14 active torsions:
REMARK  status: ('A' for Active; 'I' for Inactive)
REMARK    1  A    between atoms: C_1  and  O_2
REMARK    2  A    between atoms: O_2  and  C_3
REMARK    3  A    between atoms: C_3  and  C_5
REMARK    4  A    between atoms: C_5  and  C_6
REMARK    5  A    between atoms: C_5  and  N_13
REMARK    6  A    between atoms: C_6  and  C_7
REMARK    7  A    between atoms: N_13  and  C_14
REMARK    8  A    between atoms: C_14  and  C_15
REMARK    9  A    between atoms: C_15  and  C_16
REMARK   10  A    between atoms: C_16  and  N_17
REMARK   11  A    between atoms: C_20  and  C_21
REMARK   12  A    between atoms: N_23  and  C_24
REMARK   13  A    between atoms: C_27  and  C_28
REMARK   14  A    between atoms: C_29  and  C_30
REMARK                            x       y       z     vdW  Elec       q    Type
REMARK                         _______ _______ _______ _____ _____    ______ ____
ROOT
ATOM      1  C   UNL     1       2.756   6.662  18.534  0.00  0.00    +0.000 C 
ENDROOT
BRANCH   1   2
ATOM      2  N   UNL     1       2.061   7.486  19.499  0.00  0.00    +0.000 N 
ATOM      3  C   UNL     1       1.694   7.114  20.741  0.00  0.00    +0.000 A 
ATOM      4  N   UNL     1       1.070   8.109  21.334  0.00  0.00    +0.000 NA
ATOM      5  C   UNL     1       1.177   9.148  20.440  0.00  0.00    +0.000 A 
ATOM      6  N   UNL     1       1.750   8.773  19.262  0.00  0.00    +0.000 NA
BRANCH   5   7
ATOM      7  C   UNL     1       0.753  10.526  20.734  0.00  0.00    +0.000 C 
ATOM      8  O   UNL     1       0.780  10.968  21.867  0.00  0.00    +0.000 OA
ATOM      9  N   UNL     1       0.254  11.248  19.625  0.00  0.00    +0.000 N 
ATOM     10  H   UNL     1       0.075  10.713  18.789  0.00  0.00    +0.000 HD
BRANCH   9  11
ATOM     11  C   UNL     1      -0.076  12.628  19.640  0.00  0.00    +0.000 A 
ATOM     12  C   UNL     1       0.742  13.579  19.033  0.00  0.00    +0.000 A 
ATOM     13  C   UNL     1       0.398  14.935  19.021  0.00  0.00    +0.000 A 
ATOM     14  C   UNL     1      -0.775  15.383  19.628  0.00  0.00    +0.000 A 
ATOM     15  C   UNL     1      -1.100  16.847  19.544  0.00  0.00    +0.000 C 
ATOM     16  C   UNL     1      -1.610  14.447  20.270  0.00  0.00    +0.000 A 
ATOM     17  C   UNL     1      -2.853  14.866  21.009  0.00  0.00    +0.000 C 
ATOM     18  C   UNL     1      -1.257  13.064  20.246  0.00  0.00    +0.000 A 
ENDBRANCH   9  11
ENDBRANCH   5   7
ENDBRANCH   1   2
BRANCH   1  19
ATOM     19  C   UNL     1       3.436   7.440  17.404  0.00  0.00    +0.000 C 
BRANCH  19  20
ATOM     20  C   UNL     1       4.922   7.104  17.238  0.00  0.00    +0.000 C 
BRANCH  20  21
ATOM     21  N   UNL     1       5.120   5.829  16.558  0.00  0.00    +0.000 NA
ATOM     22  H   UNL     1       4.265   5.476  16.132  0.00  0.00    +0.000 HD
BRANCH  21  23
ATOM     23  C   UNL     1       5.648   4.751  17.438  0.00  0.00    +0.000 C 
BRANCH  23  24
ATOM     24  C   UNL     1       7.162   4.589  17.168  0.00  0.00    +0.000 C 
ATOM     25  O   UNL     1       7.677   4.493  16.059  0.00  0.00    +0.000 OA
BRANCH  24  27
ATOM     26  C   UNL     1       7.794   5.705  19.135  0.00  0.00    +0.000 C 
ATOM     27  O   UNL     1       7.856   4.517  18.342  0.00  0.00    +0.000 OA
ENDBRANCH  24  27
ENDBRANCH  23  24
BRANCH  23  28
ATOM     28  C   UNL     1       4.902   3.391  17.304  0.00  0.00    +0.000 C 
BRANCH  28  29
ATOM     29  C   UNL     1       3.664   3.190  18.157  0.00  0.00    +0.000 A 
ATOM     30  C   UNL     1       2.380   3.120  17.605  0.00  0.00    +0.000 A 
ATOM     31  C   UNL     1       1.233   3.122  18.404  0.00  0.00    +0.000 A 
ATOM     32  C   UNL     1       1.355   3.079  19.782  0.00  0.00    +0.000 A 
ATOM     33  C   UNL     1       2.618   2.938  20.339  0.00  0.00    +0.000 A 
ATOM     34  C   UNL     1       3.770   3.050  19.544  0.00  0.00    +0.000 A 
ENDBRANCH  28  29
ENDBRANCH  23  28
ENDBRANCH  21  23
ENDBRANCH  20  21
ENDBRANCH  19  20
ENDBRANCH   1  19
TORSDOF 11
ENDMDL
MODEL 8
REMARK VINA RESULT:      -7.2      6.466      8.739
REMARK  Name = 
REMARK  14 active torsions:
REMARK  status: ('A' for Active; 'I' for Inactive)
REMARK    1  A    between atoms: C_1  and  O_2
REMARK    2  A    between atoms: O_2  and  C_3
REMARK    3  A    between atoms: C_3  and  C_5
REMARK    4  A    between atoms: C_5  and  C_6
REMARK    5  A    between atoms: C_5  and  N_13
REMARK    6  A    between atoms: C_6  and  C_7
REMARK    7  A    between atoms: N_13  and  C_14
REMARK    8  A    between atoms: C_14  and  C_15
REMARK    9  A    between atoms: C_15  and  C_16
REMARK   10  A    between atoms: C_16  and  N_17
REMARK   11  A    between atoms: C_20  and  C_21
REMARK   12  A    between atoms: N_23  and  C_24
REMARK   13  A    between atoms: C_27  and  C_28
REMARK   14  A    between atoms: C_29  and  C_30
REMARK                            x       y       z     vdW  Elec       q    Type
REMARK                         _______ _______ _______ _____ _____    ______ ____
ROOT
ATOM      1  C   UNL     1       7.700   5.685  18.374  0.00  0.00    +0.000 C 
ENDROOT
BRANCH   1   2
ATOM      2  N   UNL     1       7.909   7.103  18.172  0.00  0.00    +0.000 N 
ATOM      3  C   UNL     1       7.334   7.861  17.217  0.00  0.00    +0.000 A 
ATOM      4  N   UNL     1       7.762   9.101  17.320  0.00  0.00    +0.000 NA
ATOM      5  C   UNL     1       8.535   9.091  18.458  0.00  0.00    +0.000 A 
ATOM      6  N   UNL     1       8.684   7.844  18.983  0.00  0.00    +0.000 NA
BRANCH   5   7
ATOM      7  C   UNL     1       9.111  10.302  19.063  0.00  0.00    +0.000 C 
ATOM      8  O   UNL     1       9.224  10.414  20.269  0.00  0.00    +0.000 OA
ATOM      9  N   UNL     1       9.447  11.327  18.148  0.00  0.00    +0.000 N 
ATOM     10  H   UNL     1       9.110  11.211  17.206  0.00  0.00    +0.000 HD
BRANCH   9  11
ATOM     11  C   UNL     1      10.143  12.517  18.486  0.00  0.00    +0.000 A 
ATOM     12  C   UNL     1      11.536  12.565  18.505  0.00  0.00    +0.000 A 
ATOM     13  C   UNL     1      12.220  13.747  18.806  0.00  0.00    +0.000 A 
ATOM     14  C   UNL     1      11.528  14.920  19.108  0.00  0.00    +0.000 A 
ATOM     15  C   UNL     1      12.326  16.161  19.385  0.00  0.00    +0.000 C 
ATOM     16  C   UNL     1      10.119  14.895  19.119  0.00  0.00    +0.000 A 
ATOM     17  C   UNL     1       9.305  16.101  19.507  0.00  0.00    +0.000 C 
ATOM     18  C   UNL     1       9.439  13.687  18.780  0.00  0.00    +0.000 A 
ENDBRANCH   9  11
ENDBRANCH   5   7
ENDBRANCH   1   2
BRANCH   1  19
ATOM     19  C   UNL     1       6.769   5.338  19.538  0.00  0.00    +0.000 C 
BRANCH  19  20
ATOM     20  C   UNL     1       5.366   4.911  19.091  0.00  0.00    +0.000 C 
BRANCH  20  21
ATOM     21  N   UNL     1       5.406   3.765  18.190  0.00  0.00    +0.000 NA
ATOM     22  H   UNL     1       6.353   3.530  17.897  0.00  0.00    +0.000 HD
BRANCH  21  23
ATOM     23  C   UNL     1       4.595   3.939  16.954  0.00  0.00    +0.000 C 
BRANCH  23  24
ATOM     24  C   UNL     1       4.767   5.390  16.450  0.00  0.00    +0.000 C 
ATOM     25  O   UNL     1       4.133   6.359  16.853  0.00  0.00    +0.000 OA
BRANCH  24  27
ATOM     26  C   UNL     1       5.681   4.318  14.570  0.00  0.00    +0.000 C 
ATOM     27  O   UNL     1       5.695   5.446  15.449  0.00  0.00    +0.000 OA
ENDBRANCH  24  27
ENDBRANCH  23  24
BRANCH  23  28
ATOM     28  C   UNL     1       3.091   3.572  17.118  0.00  0.00    +0.000 C 
BRANCH  28  29
ATOM     29  C   UNL     1       2.530   3.549  18.527  0.00  0.00    +0.000 A 
ATOM     30  C   UNL     1       2.559   2.398  19.323  0.00  0.00    +0.000 A 
ATOM     31  C   UNL     1       1.879   2.329  20.543  0.00  0.00    +0.000 A 
ATOM     32  C   UNL     1       1.248   3.455  21.043  0.00  0.00    +0.000 A 
ATOM     33  C   UNL     1       1.386   4.657  20.365  0.00  0.00    +0.000 A 
ATOM     34  C   UNL     1       1.971   4.700  19.089  0.00  0.00    +0.000 A 
ENDBRANCH  28  29
ENDBRANCH  23  28
ENDBRANCH  21  23
ENDBRANCH  20  21
ENDBRANCH  19  20
ENDBRANCH   1  19
TORSDOF 11
ENDMDL
MODEL 9
REMARK VINA RESULT:      -7.2      1.334      2.299
REMARK  Name = 
REMARK  14 active torsions:
REMARK  status: ('A' for Active; 'I' for Inactive)
REMARK    1  A    between atoms: C_1  and  O_2
REMARK    2  A    between atoms: O_2  and  C_3
REMARK    3  A    between atoms: C_3  and  C_5
REMARK    4  A    between atoms: C_5  and  C_6
REMARK    5  A    between atoms: C_5  and  N_13
REMARK    6  A    between atoms: C_6  and  C_7
REMARK    7  A    between atoms: N_13  and  C_14
REMARK    8  A    between atoms: C_14  and  C_15
REMARK    9  A    between atoms: C_15  and  C_16
REMARK   10  A    between atoms: C_16  and  N_17
REMARK   11  A    between atoms: C_20  and  C_21
REMARK   12  A    between atoms: N_23  and  C_24
REMARK   13  A    between atoms: C_27  and  C_28
REMARK   14  A    between atoms: C_29  and  C_30
REMARK                            x       y       z     vdW  Elec       q    Type
REMARK                         _______ _______ _______ _____ _____    ______ ____
ROOT
ATOM      1  C   UNL     1       2.247   8.352  17.636  0.00  0.00    +0.000 C 
ENDROOT
BRANCH   1   2
ATOM      2  N   UNL     1       1.849   9.505  18.414  0.00  0.00    +0.000 N 
ATOM      3  C   UNL     1       1.898  10.790  18.009  0.00  0.00    +0.000 A 
ATOM      4  N   UNL     1       1.473  11.575  18.977  0.00  0.00    +0.000 NA
ATOM      5  C   UNL     1       1.051  10.700  19.951  0.00  0.00    +0.000 A 
ATOM      6  N   UNL     1       1.319   9.401  19.645  0.00  0.00    +0.000 NA
BRANCH   5   7
ATOM      7  C   UNL     1       0.352  11.119  21.176  0.00  0.00    +0.000 C 
ATOM      8  O   UNL     1       0.517  10.535  22.230  0.00  0.00    +0.000 OA
ATOM      9  N   UNL     1      -0.562  12.186  21.008  0.00  0.00    +0.000 N 
ATOM     10  H   UNL     1      -0.777  12.444  20.058  0.00  0.00    +0.000 HD
BRANCH   9  11
ATOM     11  C   UNL     1      -1.236  12.848  22.067  0.00  0.00    +0.000 A 
ATOM     12  C   UNL     1      -2.447  12.374  22.568  0.00  0.00    +0.000 A 
ATOM     13  C   UNL     1      -3.093  13.008  23.634  0.00  0.00    +0.000 A 
ATOM     14  C   UNL     1      -2.549  14.148  24.227  0.00  0.00    +0.000 A 
ATOM     15  C   UNL     1      -3.277  14.756  25.391  0.00  0.00    +0.000 C 
ATOM     16  C   UNL     1      -1.337  14.663  23.726  0.00  0.00    +0.000 A 
ATOM     17  C   UNL     1      -0.729  15.931  24.266  0.00  0.00    +0.000 C 
ATOM     18  C   UNL     1      -0.678  13.985  22.658  0.00  0.00    +0.000 A 
ENDBRANCH   9  11
ENDBRANCH   5   7
ENDBRANCH   1   2
BRANCH   1  19
ATOM     19  C   UNL     1       2.699   7.149  18.466  0.00  0.00    +0.000 C 
BRANCH  19  20
ATOM     20  C   UNL     1       3.547   6.145  17.676  0.00  0.00    +0.000 C 
BRANCH  20  21
ATOM     21  N   UNL     1       4.806   5.847  18.349  0.00  0.00    +0.000 NA
ATOM     22  H   UNL     1       5.554   6.485  18.083  0.00  0.00    +0.000 HD
BRANCH  21  23
ATOM     23  C   UNL     1       5.305   4.464  18.111  0.00  0.00    +0.000 C 
BRANCH  23  24
ATOM     24  C   UNL     1       6.370   4.509  16.991  0.00  0.00    +0.000 C 
ATOM     25  O   UNL     1       7.577   4.636  17.166  0.00  0.00    +0.000 OA
BRANCH  24  27
ATOM     26  C   UNL     1       6.700   4.422  14.668  0.00  0.00    +0.000 C 
ATOM     27  O   UNL     1       5.780   4.433  15.761  0.00  0.00    +0.000 OA
ENDBRANCH  24  27
ENDBRANCH  23  24
BRANCH  23  28
ATOM     28  C   UNL     1       4.189   3.427  17.789  0.00  0.00    +0.000 C 
BRANCH  28  29
ATOM     29  C   UNL     1       3.158   3.157  18.868  0.00  0.00    +0.000 A 
ATOM     30  C   UNL     1       1.789   3.074  18.588  0.00  0.00    +0.000 A 
ATOM     31  C   UNL     1       0.832   3.011  19.604  0.00  0.00    +0.000 A 
ATOM     32  C   UNL     1       1.236   2.915  20.925  0.00  0.00    +0.000 A 
ATOM     33  C   UNL     1       2.589   2.788  21.203  0.00  0.00    +0.000 A 
ATOM     34  C   UNL     1       3.550   2.964  20.195  0.00  0.00    +0.000 A 
ENDBRANCH  28  29
ENDBRANCH  23  28
ENDBRANCH  21  23
ENDBRANCH  20  21
ENDBRANCH  19  20
ENDBRANCH   1  19
TORSDOF 11
ENDMDL
