MODEL 1
REMARK VINA RESULT:      -7.5      0.000      0.000
REMARK  Name = 
REMARK  7 active torsions:
REMARK  status: ('A' for Active; 'I' for Inactive)
REMARK    1  A    between atoms: C_1  and  N_2
REMARK    2  A    between atoms: N_2  and  C_3
REMARK    3  A    between atoms: N_2  and  S_14
REMARK    4  A    between atoms: C_3  and  C_4
REMARK    5  A    between atoms: N_6  and  C_7
REMARK    6  A    between atoms: C_7  and  C_8
REMARK    7  A    between atoms: S_14  and  C_17
REMARK                            x       y       z     vdW  Elec       q    Type
REMARK                         _______ _______ _______ _____ _____    ______ ____
ROOT
ATOM      1  C   UNL     1       0.988   2.906  18.909  0.00  0.00    +0.000 C 
ATOM      2  N   UNL     1       2.087   2.077  19.474  0.00  0.00    +0.000 NA
ENDROOT
BRANCH   2   3
ATOM      3  S   UNL     1       3.022   2.906  20.662  0.00  0.00    +0.000 S 
ATOM      4  O   UNL     1       2.434   2.637  21.956  0.00  0.00    +0.000 OA
ATOM      5  O   UNL     1       4.409   2.613  20.389  0.00  0.00    +0.000 OA
BRANCH   3   6
ATOM      6  C   UNL     1       2.743   4.636  20.326  0.00  0.00    +0.000 A 
ATOM      7  C   UNL     1       3.527   5.294  19.370  0.00  0.00    +0.000 A 
ATOM      8  C   UNL     1       3.225   6.614  19.021  0.00  0.00    +0.000 A 
ATOM      9  C   UNL     1       2.148   7.266  19.625  0.00  0.00    +0.000 A 
ATOM     10 CL   UNL     1       1.757   8.880  19.172  0.00  0.00    +0.000 Cl
ATOM     11  C   UNL     1       1.371   6.612  20.582  0.00  0.00    +0.000 A 
ATOM     12  C   UNL     1       1.666   5.291  20.933  0.00  0.00    +0.000 A 
ENDBRANCH   3   6
ENDBRANCH   2   3
BRANCH   2  13
ATOM     13  C   UNL     1       2.978   1.553  18.382  0.00  0.00    +0.000 C 
BRANCH  13  14
ATOM     14  C   UNL     1       3.399   2.614  17.376  0.00  0.00    +0.000 C 
ATOM     15  O   UNL     1       2.580   3.226  16.694  0.00  0.00    +0.000 OA
ATOM     16  N   UNL     1       4.750   2.849  17.301  0.00  0.00    +0.000 N 
ATOM     17  H   UNL     1       5.405   2.216  17.750  0.00  0.00    +0.000 HD
BRANCH  16  18
ATOM     18  C   UNL     1       5.302   3.833  16.390  0.00  0.00    +0.000 C 
BRANCH  18  19
ATOM     19  C   UNL     1       6.139   4.881  17.089  0.00  0.00    +0.000 A 
ATOM     20  C   UNL     1       6.127   6.195  16.619  0.00  0.00    +0.000 A 
ATOM     21  C   UNL     1       6.922   7.148  17.251  0.00  0.00    +0.000 A 
ATOM     22  C   UNL     1       7.715   6.766  18.325  0.00  0.00    +0.000 A 
ATOM     23  C   UNL     1       7.682   5.440  18.722  0.00  0.00    +0.000 A 
ATOM     24  N   UNL     1       6.923   4.487  18.130  0.00  0.00    +0.000 NA
ENDBRANCH  18  19
ENDBRANCH  16  18
ENDBRANCH  13  14
ENDBRANCH   2  13
TORSDOF 6
ENDMDL
MODEL 2
REMARK VINA RESULT:      -7.4      2.442      3.324
REMARK  Name = 
REMARK  7 active torsions:
REMARK  status: ('A' for Active; 'I' for Inactive)
REMARK    1  A    between atoms: C_1  and  N_2
REMARK    2  A    between atoms: N_2  and  C_3
REMARK    3  A    between atoms: N_2  and  S_14
REMARK    4  A    between atoms: C_3  and  C_4
REMARK    5  A    between atoms: N_6  and  C_7
REMARK    6  A    between atoms: C_7  and  C_8
REMARK    7  A    between atoms: S_14  and  C_17
REMARK                            x       y       z     vdW  Elec       q    Type
REMARK                         _______ _______ _______ _____ _____    ______ ____
ROOT
ATOM      1  C   UNL     1       4.459   1.814  20.867  0.00  0.00    +0.000 C 
ATOM      2  N   UNL     1       4.061   2.964  20.010  0.00  0.00    +0.000 NA
ENDROOT
BRANCH   2   3
ATOM      3  S   UNL     1       2.364   3.270  20.031  0.00  0.00    +0.000 S 
ATOM      4  O   UNL     1       1.747   2.418  19.039  0.00  0.00    +0.000 OA
ATOM      5  O   UNL     1       1.946   3.243  21.413  0.00  0.00    +0.000 OA
BRANCH   3   6
ATOM      6  C   UNL     1       2.204   4.945  19.435  0.00  0.00    +0.000 A 
ATOM      7  C   UNL     1       2.167   6.007  20.346  0.00  0.00    +0.000 A 
ATOM      8  C   UNL     1       2.165   7.322  19.872  0.00  0.00    +0.000 A 
ATOM      9  C   UNL     1       2.202   7.569  18.497  0.00  0.00    +0.000 A 
ATOM     10 CL   UNL     1       2.232   9.188  17.915  0.00  0.00    +0.000 Cl
ATOM     11  C   UNL     1       2.232   6.509  17.590  0.00  0.00    +0.000 A 
ATOM     12  C   UNL     1       2.236   5.192  18.058  0.00  0.00    +0.000 A 
ENDBRANCH   3   6
ENDBRANCH   2   3
BRANCH   2  13
ATOM     13  C   UNL     1       4.539   2.771  18.598  0.00  0.00    +0.000 C 
BRANCH  13  14
ATOM     14  C   UNL     1       5.538   3.824  18.144  0.00  0.00    +0.000 C 
ATOM     15  O   UNL     1       6.246   4.437  18.940  0.00  0.00    +0.000 OA
ATOM     16  N   UNL     1       5.605   4.024  16.786  0.00  0.00    +0.000 N 
ATOM     17  H   UNL     1       4.895   3.628  16.176  0.00  0.00    +0.000 HD
BRANCH  16  18
ATOM     18  C   UNL     1       6.511   4.993  16.203  0.00  0.00    +0.000 C 
BRANCH  18  19
ATOM     19  C   UNL     1       6.733   4.777  14.721  0.00  0.00    +0.000 A 
ATOM     20  C   UNL     1       5.935   3.861  14.034  0.00  0.00    +0.000 A 
ATOM     21  C   UNL     1       6.165   3.647  12.678  0.00  0.00    +0.000 A 
ATOM     22  C   UNL     1       7.188   4.341  12.045  0.00  0.00    +0.000 A 
ATOM     23  C   UNL     1       7.944   5.221  12.800  0.00  0.00    +0.000 A 
ATOM     24  N   UNL     1       7.750   5.453  14.120  0.00  0.00    +0.000 NA
ENDBRANCH  18  19
ENDBRANCH  16  18
ENDBRANCH  13  14
ENDBRANCH   2  13
TORSDOF 6
ENDMDL
MODEL 3
REMARK VINA RESULT:      -7.4      2.581      5.172
REMARK  Name = 
REMARK  7 active torsions:
REMARK  status: ('A' for Active; 'I' for Inactive)
REMARK    1  A    between atoms: C_1  and  N_2
REMARK    2  A    between atoms: N_2  and  C_3
REMARK    3  A    between atoms: N_2  and  S_14
REMARK    4  A    between atoms: C_3  and  C_4
REMARK    5  A    between atoms: N_6  and  C_7
REMARK    6  A    between atoms: C_7  and  C_8
REMARK    7  A    between atoms: S_14  and  C_17
REMARK                            x       y       z     vdW  Elec       q    Type
REMARK                         _______ _______ _______ _____ _____    ______ ____
ROOT
ATOM      1  C   UNL     1       5.972   4.346  15.340  0.00  0.00    +0.000 C 
ATOM      2  N   UNL     1       5.624   5.013  16.624  0.00  0.00    +0.000 NA
ENDROOT
BRANCH   2   3
ATOM      3  S   UNL     1       5.330   6.703  16.454  0.00  0.00    +0.000 S 
ATOM      4  O   UNL     1       6.480   7.408  16.974  0.00  0.00    +0.000 OA
ATOM      5  O   UNL     1       4.862   6.917  15.105  0.00  0.00    +0.000 OA
BRANCH   3   6
ATOM      6  C   UNL     1       3.979   7.039  17.570  0.00  0.00    +0.000 A 
ATOM      7  C   UNL     1       3.648   6.107  18.561  0.00  0.00    +0.000 A 
ATOM      8  C   UNL     1       2.672   6.427  19.510  0.00  0.00    +0.000 A 
ATOM      9  C   UNL     1       2.035   7.670  19.465  0.00  0.00    +0.000 A 
ATOM     10 CL   UNL     1       0.856   8.075  20.651  0.00  0.00    +0.000 Cl
ATOM     11  C   UNL     1       2.362   8.595  18.473  0.00  0.00    +0.000 A 
ATOM     12  C   UNL     1       3.338   8.282  17.523  0.00  0.00    +0.000 A 
ENDBRANCH   3   6
ENDBRANCH   2   3
BRANCH   2  13
ATOM     13  C   UNL     1       6.686   4.770  17.660  0.00  0.00    +0.000 C 
BRANCH  13  14
ATOM     14  C   UNL     1       6.145   4.217  18.970  0.00  0.00    +0.000 C 
ATOM     15  O   UNL     1       6.426   4.720  20.056  0.00  0.00    +0.000 OA
ATOM     16  N   UNL     1       5.308   3.133  18.849  0.00  0.00    +0.000 N 
ATOM     17  H   UNL     1       5.232   2.643  17.963  0.00  0.00    +0.000 HD
BRANCH  16  18
ATOM     18  C   UNL     1       4.714   2.498  20.008  0.00  0.00    +0.000 C 
BRANCH  18  19
ATOM     19  C   UNL     1       3.216   2.695  20.086  0.00  0.00    +0.000 A 
ATOM     20  C   UNL     1       2.452   2.617  18.921  0.00  0.00    +0.000 A 
ATOM     21  C   UNL     1       1.077   2.828  18.997  0.00  0.00    +0.000 A 
ATOM     22  C   UNL     1       0.503   3.121  20.226  0.00  0.00    +0.000 A 
ATOM     23  C   UNL     1       1.331   3.196  21.333  0.00  0.00    +0.000 A 
ATOM     24  N   UNL     1       2.671   2.998  21.296  0.00  0.00    +0.000 NA
ENDBRANCH  18  19
ENDBRANCH  16  18
ENDBRANCH  13  14
ENDBRANCH   2  13
TORSDOF 6
ENDMDL
MODEL 4
REMARK VINA RESULT:      -7.4      3.359      6.380
REMARK  Name = 
REMARK  7 active torsions:
REMARK  status: ('A' for Active; 'I' for Inactive)
REMARK    1  A    between atoms: C_1  and  N_2
REMARK    2  A    between atoms: N_2  and  C_3
REMARK    3  A    between atoms: N_2  and  S_14
REMARK    4  A    between atoms: C_3  and  C_4
REMARK    5  A    between atoms: N_6  and  C_7
REMARK    6  A    between atoms: C_7  and  C_8
REMARK    7  A    between atoms: S_14  and  C_17
REMARK                            x       y       z     vdW  Elec       q    Type
REMARK                         _______ _______ _______ _____ _____    ______ ____
ROOT
ATOM      1  C   UNL     1       7.652   7.334  17.984  0.00  0.00    +0.000 C 
ATOM      2  N   UNL     1       6.443   6.470  18.051  0.00  0.00    +0.000 NA
ENDROOT
BRANCH   2   3
ATOM      3  S   UNL     1       6.792   4.795  17.834  0.00  0.00    +0.000 S 
ATOM      4  O   UNL     1       8.208   4.605  18.056  0.00  0.00    +0.000 OA
ATOM      5  O   UNL     1       5.805   4.057  18.586  0.00  0.00    +0.000 OA
BRANCH   3   6
ATOM      6  C   UNL     1       6.504   4.498  16.098  0.00  0.00    +0.000 A 
ATOM      7  C   UNL     1       7.412   4.981  15.150  0.00  0.00    +0.000 A 
ATOM      8  C   UNL     1       7.249   4.641  13.803  0.00  0.00    +0.000 A 
ATOM      9  C   UNL     1       6.185   3.824  13.413  0.00  0.00    +0.000 A 
ATOM     10 CL   UNL     1       6.003   3.381  11.760  0.00  0.00    +0.000 Cl
ATOM     11  C   UNL     1       5.276   3.348  14.359  0.00  0.00    +0.000 A 
ATOM     12  C   UNL     1       5.435   3.682  15.707  0.00  0.00    +0.000 A 
ENDBRANCH   3   6
ENDBRANCH   2   3
BRANCH   2  13
ATOM     13  C   UNL     1       5.407   6.919  17.058  0.00  0.00    +0.000 C 
BRANCH  13  14
ATOM     14  C   UNL     1       3.988   6.899  17.606  0.00  0.00    +0.000 C 
ATOM     15  O   UNL     1       3.439   7.914  18.030  0.00  0.00    +0.000 OA
ATOM     16  N   UNL     1       3.363   5.676  17.574  0.00  0.00    +0.000 N 
ATOM     17  H   UNL     1       3.896   4.834  17.378  0.00  0.00    +0.000 HD
BRANCH  16  18
ATOM     18  C   UNL     1       2.008   5.502  18.060  0.00  0.00    +0.000 C 
BRANCH  18  19
ATOM     19  C   UNL     1       1.920   4.547  19.231  0.00  0.00    +0.000 A 
ATOM     20  C   UNL     1       1.315   3.301  19.058  0.00  0.00    +0.000 A 
ATOM     21  C   UNL     1       1.213   2.441  20.148  0.00  0.00    +0.000 A 
ATOM     22  C   UNL     1       1.706   2.846  21.381  0.00  0.00    +0.000 A 
ATOM     23  C   UNL     1       2.279   4.103  21.474  0.00  0.00    +0.000 A 
ATOM     24  N   UNL     1       2.393   4.966  20.437  0.00  0.00    +0.000 NA
ENDBRANCH  18  19
ENDBRANCH  16  18
ENDBRANCH  13  14
ENDBRANCH   2  13
TORSDOF 6
ENDMDL
MODEL 5
REMARK VINA RESULT:      -7.3      3.504      6.058
REMARK  Name = 
REMARK  7 active torsions:
REMARK  status: ('A' for Active; 'I' for Inactive)
REMARK    1  A    between atoms: C_1  and  N_2
REMARK    2  A    between atoms: N_2  and  C_3
REMARK    3  A    between atoms: N_2  and  S_14
REMARK    4  A    between atoms: C_3  and  C_4
REMARK    5  A    between atoms: N_6  and  C_7
REMARK    6  A    between atoms: C_7  and  C_8
REMARK    7  A    between atoms: S_14  and  C_17
REMARK                            x       y       z     vdW  Elec       q    Type
REMARK                         _______ _______ _______ _____ _____    ______ ____
ROOT
ATOM      1  C   UNL     1       1.028   3.066  19.466  0.00  0.00    +0.000 C 
ATOM      2  N   UNL     1       2.210   3.900  19.119  0.00  0.00    +0.000 NA
ENDROOT
BRANCH   2   3
ATOM      3  S   UNL     1       3.655   2.981  18.921  0.00  0.00    +0.000 S 
ATOM      4  O   UNL     1       4.056   2.497  20.223  0.00  0.00    +0.000 OA
ATOM      5  O   UNL     1       3.434   2.077  17.816  0.00  0.00    +0.000 OA
BRANCH   3   6
ATOM      6  C   UNL     1       4.882   4.177  18.422  0.00  0.00    +0.000 A 
ATOM      7  C   UNL     1       4.909   4.636  17.100  0.00  0.00    +0.000 A 
ATOM      8  C   UNL     1       5.790   5.662  16.744  0.00  0.00    +0.000 A 
ATOM      9  C   UNL     1       6.635   6.221  17.705  0.00  0.00    +0.000 A 
ATOM     10 CL   UNL     1       7.697   7.505  17.274  0.00  0.00    +0.000 Cl
ATOM     11  C   UNL     1       6.612   5.758  19.022  0.00  0.00    +0.000 A 
ATOM     12  C   UNL     1       5.732   4.735  19.384  0.00  0.00    +0.000 A 
ENDBRANCH   3   6
ENDBRANCH   2   3
BRANCH   2  13
ATOM     13  C   UNL     1       2.418   4.986  20.137  0.00  0.00    +0.000 C 
BRANCH  13  14
ATOM     14  C   UNL     1       2.247   6.389  19.576  0.00  0.00    +0.000 C 
ATOM     15  O   UNL     1       2.428   6.642  18.387  0.00  0.00    +0.000 OA
ATOM     16  N   UNL     1       1.859   7.342  20.486  0.00  0.00    +0.000 N 
ATOM     17  H   UNL     1       1.882   7.139  21.481  0.00  0.00    +0.000 HD
BRANCH  16  18
ATOM     18  C   UNL     1       1.654   8.725  20.100  0.00  0.00    +0.000 C 
BRANCH  18  19
ATOM     19  C   UNL     1       0.810   9.496  21.091  0.00  0.00    +0.000 A 
ATOM     20  C   UNL     1       0.499   8.918  22.323  0.00  0.00    +0.000 A 
ATOM     21  C   UNL     1      -0.302   9.623  23.218  0.00  0.00    +0.000 A 
ATOM     22  C   UNL     1      -0.779  10.876  22.860  0.00  0.00    +0.000 A 
ATOM     23  C   UNL     1      -0.438  11.373  21.613  0.00  0.00    +0.000 A 
ATOM     24  N   UNL     1       0.336  10.716  20.718  0.00  0.00    +0.000 NA
ENDBRANCH  18  19
ENDBRANCH  16  18
ENDBRANCH  13  14
ENDBRANCH   2  13
TORSDOF 6
ENDMDL
MODEL 6
REMARK VINA RESULT:      -7.3      4.329      6.182
REMARK  Name = 
REMARK  7 active torsions:
REMARK  status: ('A' for Active; 'I' for Inactive)
REMARK    1  A    between atoms: C_1  and  N_2
REMARK    2  A    between atoms: N_2  and  C_3
REMARK    3  A    between atoms: N_2  and  S_14
REMARK    4  A    between atoms: C_3  and  C_4
REMARK    5  A    between atoms: N_6  and  C_7
REMARK    6  A    between atoms: C_7  and  C_8
REMARK    7  A    between atoms: S_14  and  C_17
REMARK                            x       y       z     vdW  Elec       q    Type
REMARK                         _______ _______ _______ _____ _____    ______ ____
ROOT
ATOM      1  C   UNL     1       7.411   4.597  16.939  0.00  0.00    +0.000 C 
ATOM      2  N   UNL     1       6.555   5.790  17.182  0.00  0.00    +0.000 NA
ENDROOT
BRANCH   2   3
ATOM      3  S   UNL     1       5.045   5.723  16.353  0.00  0.00    +0.000 S 
ATOM      4  O   UNL     1       4.649   7.079  16.042  0.00  0.00    +0.000 OA
ATOM      5  O   UNL     1       5.172   4.721  15.322  0.00  0.00    +0.000 OA
BRANCH   3   6
ATOM      6  C   UNL     1       3.889   5.122  17.572  0.00  0.00    +0.000 A 
ATOM      7  C   UNL     1       3.589   5.906  18.692  0.00  0.00    +0.000 A 
ATOM      8  C   UNL     1       2.593   5.487  19.579  0.00  0.00    +0.000 A 
ATOM      9  C   UNL     1       1.906   4.293  19.345  0.00  0.00    +0.000 A 
ATOM     10 CL   UNL     1       0.659   3.794  20.421  0.00  0.00    +0.000 Cl
ATOM     11  C   UNL     1       2.211   3.509  18.232  0.00  0.00    +0.000 A 
ATOM     12  C   UNL     1       3.204   3.924  17.340  0.00  0.00    +0.000 A 
ENDBRANCH   3   6
ENDBRANCH   2   3
BRANCH   2  13
ATOM     13  C   UNL     1       7.287   7.055  16.832  0.00  0.00    +0.000 C 
BRANCH  13  14
ATOM     14  C   UNL     1       7.960   7.721  18.023  0.00  0.00    +0.000 C 
ATOM     15  O   UNL     1       8.273   7.090  19.031  0.00  0.00    +0.000 OA
ATOM     16  N   UNL     1       8.209   9.064  17.882  0.00  0.00    +0.000 N 
ATOM     17  H   UNL     1       7.791   9.584  17.116  0.00  0.00    +0.000 HD
BRANCH  16  18
ATOM     18  C   UNL     1       8.847   9.834  18.932  0.00  0.00    +0.000 C 
BRANCH  18  19
ATOM     19  C   UNL     1       9.585  11.047  18.409  0.00  0.00    +0.000 A 
ATOM     20  C   UNL     1      10.964  11.146  18.600  0.00  0.00    +0.000 A 
ATOM     21  C   UNL     1      11.632  12.279  18.140  0.00  0.00    +0.000 A 
ATOM     22  C   UNL     1      10.909  13.285  17.514  0.00  0.00    +0.000 A 
ATOM     23  C   UNL     1       9.541  13.118  17.376  0.00  0.00    +0.000 A 
ATOM     24  N   UNL     1       8.860  12.032  17.812  0.00  0.00    +0.000 NA
ENDBRANCH  18  19
ENDBRANCH  16  18
ENDBRANCH  13  14
ENDBRANCH   2  13
TORSDOF 6
ENDMDL
MODEL 7
REMARK VINA RESULT:      -7.2      4.031      6.784
REMARK  Name = 
REMARK  7 active torsions:
REMARK  status: ('A' for Active; 'I' for Inactive)
REMARK    1  A    between atoms: C_1  and  N_2
REMARK    2  A    between atoms: N_2  and  C_3
REMARK    3  A    between atoms: N_2  and  S_14
REMARK    4  A    between atoms: C_3  and  C_4
REMARK    5  A    between atoms: N_6  and  C_7
REMARK    6  A    between atoms: C_7  and  C_8
REMARK    7  A    between atoms: S_14  and  C_17
REMARK                            x       y       z     vdW  Elec       q    Type
REMARK                         _______ _______ _______ _____ _____    ______ ____
ROOT
ATOM      1  C   UNL     1       2.507   3.432  19.006  0.00  0.00    +0.000 C 
ATOM      2  N   UNL     1       3.331   4.668  18.919  0.00  0.00    +0.000 NA
ENDROOT
BRANCH   2   3
ATOM      3  S   UNL     1       5.026   4.361  19.002  0.00  0.00    +0.000 S 
ATOM      4  O   UNL     1       5.627   5.404  19.803  0.00  0.00    +0.000 OA
ATOM      5  O   UNL     1       5.187   2.966  19.338  0.00  0.00    +0.000 OA
BRANCH   3   6
ATOM      6  C   UNL     1       5.608   4.601  17.333  0.00  0.00    +0.000 A 
ATOM      7  C   UNL     1       6.833   5.241  17.108  0.00  0.00    +0.000 A 
ATOM      8  C   UNL     1       7.342   5.317  15.808  0.00  0.00    +0.000 A 
ATOM      9  C   UNL     1       6.630   4.757  14.745  0.00  0.00    +0.000 A 
ATOM     10 CL   UNL     1       7.272   4.824  13.149  0.00  0.00    +0.000 Cl
ATOM     11  C   UNL     1       5.406   4.126  14.969  0.00  0.00    +0.000 A 
ATOM     12  C   UNL     1       4.892   4.044  16.267  0.00  0.00    +0.000 A 
ENDBRANCH   3   6
ENDBRANCH   2   3
BRANCH   2  13
ATOM     13  C   UNL     1       2.928   5.657  19.978  0.00  0.00    +0.000 C 
BRANCH  13  14
ATOM     14  C   UNL     1       2.484   7.000  19.419  0.00  0.00    +0.000 C 
ATOM     15  O   UNL     1       2.701   7.325  18.254  0.00  0.00    +0.000 OA
ATOM     16  N   UNL     1       1.809   7.809  20.301  0.00  0.00    +0.000 N 
ATOM     17  H   UNL     1       1.795   7.585  21.292  0.00  0.00    +0.000 HD
BRANCH  16  18
ATOM     18  C   UNL     1       1.322   9.118  19.913  0.00  0.00    +0.000 C 
BRANCH  18  19
ATOM     19  C   UNL     1       0.546   9.808  21.014  0.00  0.00    +0.000 A 
ATOM     20  C   UNL     1       0.072   9.060  22.093  0.00  0.00    +0.000 A 
ATOM     21  C   UNL     1      -0.666   9.698  23.086  0.00  0.00    +0.000 A 
ATOM     22  C   UNL     1      -0.921  11.059  22.975  0.00  0.00    +0.000 A 
ATOM     23  C   UNL     1      -0.429  11.727  21.866  0.00  0.00    +0.000 A 
ATOM     24  N   UNL     1       0.290  11.139  20.881  0.00  0.00    +0.000 NA
ENDBRANCH  18  19
ENDBRANCH  16  18
ENDBRANCH  13  14
ENDBRANCH   2  13
TORSDOF 6
ENDMDL
MODEL 8
REMARK VINA RESULT:      -7.2      4.376      6.243
REMARK  Name = 
REMARK  7 active torsions:
REMARK  status: ('A' for Active; 'I' for Inactive)
REMARK    1  A    between atoms: C_1  and  N_2
REMARK    2  A    between atoms: N_2  and  C_3
REMARK    3  A    between atoms: N_2  and  S_14
REMARK    4  A    between atoms: C_3  and  C_4
REMARK    5  A    between atoms: N_6  and  C_7
REMARK    6  A    between atoms: C_7  and  C_8
REMARK    7  A    between atoms: S_14  and  C_17
REMARK                            x       y       z     vdW  Elec       q    Type
REMARK                         _______ _______ _______ _____ _____    ______ ____
ROOT
ATOM      1  C   UNL     1       7.335   4.501  16.931  0.00  0.00    +0.000 C 
ATOM      2  N   UNL     1       6.584   5.769  17.134  0.00  0.00    +0.000 NA
ENDROOT
BRANCH   2   3
ATOM      3  S   UNL     1       5.097   5.825  16.261  0.00  0.00    +0.000 S 
ATOM      4  O   UNL     1       4.644   7.198  16.244  0.00  0.00    +0.000 OA
ATOM      5  O   UNL     1       5.296   5.082  15.039  0.00  0.00    +0.000 OA
BRANCH   3   6
ATOM      6  C   UNL     1       3.945   4.921  17.280  0.00  0.00    +0.000 A 
ATOM      7  C   UNL     1       3.186   5.599  18.242  0.00  0.00    +0.000 A 
ATOM      8  C   UNL     1       2.198   4.910  18.951  0.00  0.00    +0.000 A 
ATOM      9  C   UNL     1       1.972   3.555  18.697  0.00  0.00    +0.000 A 
ATOM     10 CL   UNL     1       0.735   2.715  19.548  0.00  0.00    +0.000 Cl
ATOM     11  C   UNL     1       2.734   2.879  17.743  0.00  0.00    +0.000 A 
ATOM     12  C   UNL     1       3.722   3.562  17.028  0.00  0.00    +0.000 A 
ENDBRANCH   3   6
ENDBRANCH   2   3
BRANCH   2  13
ATOM     13  C   UNL     1       7.435   6.959  16.789  0.00  0.00    +0.000 C 
BRANCH  13  14
ATOM     14  C   UNL     1       8.048   7.643  18.002  0.00  0.00    +0.000 C 
ATOM     15  O   UNL     1       8.316   7.026  19.031  0.00  0.00    +0.000 OA
ATOM     16  N   UNL     1       8.298   8.986  17.855  0.00  0.00    +0.000 N 
ATOM     17  H   UNL     1       7.915   9.494  17.064  0.00  0.00    +0.000 HD
BRANCH  16  18
ATOM     18  C   UNL     1       8.882   9.772  18.924  0.00  0.00    +0.000 C 
BRANCH  18  19
ATOM     19  C   UNL     1       9.569  11.026  18.427  0.00  0.00    +0.000 A 
ATOM     20  C   UNL     1       8.797  12.119  18.029  0.00  0.00    +0.000 A 
ATOM     21  C   UNL     1       9.436  13.258  17.547  0.00  0.00    +0.000 A 
ATOM     22  C   UNL     1      10.822  13.275  17.464  0.00  0.00    +0.000 A 
ATOM     23  C   UNL     1      11.514  12.145  17.864  0.00  0.00    +0.000 A 
ATOM     24  N   UNL     1      10.926  11.020  18.337  0.00  0.00    +0.000 NA
ENDBRANCH  18  19
ENDBRANCH  16  18
ENDBRANCH  13  14
ENDBRANCH   2  13
TORSDOF 6
ENDMDL
MODEL 9
REMARK VINA RESULT:      -7.1      3.779      6.733
REMARK  Name = 
REMARK  7 active torsions:
REMARK  status: ('A' for Active; 'I' for Inactive)
REMARK    1  A    between atoms: C_1  and  N_2
REMARK    2  A    between atoms: N_2  and  C_3
REMARK    3  A    between atoms: N_2  and  S_14
REMARK    4  A    between atoms: C_3  and  C_4
REMARK    5  A    between atoms: N_6  and  C_7
REMARK    6  A    between atoms: C_7  and  C_8
REMARK    7  A    between atoms: S_14  and  C_17
REMARK                            x       y       z     vdW  Elec       q    Type
REMARK                         _______ _______ _______ _____ _____    ______ ____
ROOT
ATOM      1  C   UNL     1       6.512   5.542  19.083  0.00  0.00    +0.000 C 
ATOM      2  N   UNL     1       6.105   5.533  17.652  0.00  0.00    +0.000 NA
ENDROOT
BRANCH   2   3
ATOM      3  S   UNL     1       7.427   5.290  16.571  0.00  0.00    +0.000 S 
ATOM      4  O   UNL     1       7.934   6.589  16.190  0.00  0.00    +0.000 OA
ATOM      5  O   UNL     1       8.283   4.292  17.169  0.00  0.00    +0.000 OA
BRANCH   3   6
ATOM      6  C   UNL     1       6.687   4.583  15.110  0.00  0.00    +0.000 A 
ATOM      7  C   UNL     1       5.410   4.014  15.182  0.00  0.00    +0.000 A 
ATOM      8  C   UNL     1       4.785   3.574  14.011  0.00  0.00    +0.000 A 
ATOM      9  C   UNL     1       5.434   3.703  12.782  0.00  0.00    +0.000 A 
ATOM     10 CL   UNL     1       4.651   3.189  11.338  0.00  0.00    +0.000 Cl
ATOM     11  C   UNL     1       6.710   4.264  12.712  0.00  0.00    +0.000 A 
ATOM     12  C   UNL     1       7.340   4.708  13.878  0.00  0.00    +0.000 A 
ENDBRANCH   3   6
ENDBRANCH   2   3
BRANCH   2  13
ATOM     13  C   UNL     1       5.367   6.794  17.296  0.00  0.00    +0.000 C 
BRANCH  13  14
ATOM     14  C   UNL     1       3.894   6.765  17.674  0.00  0.00    +0.000 C 
ATOM     15  O   UNL     1       3.238   7.795  17.817  0.00  0.00    +0.000 OA
ATOM     16  N   UNL     1       3.350   5.513  17.823  0.00  0.00    +0.000 N 
ATOM     17  H   UNL     1       3.952   4.695  17.864  0.00  0.00    +0.000 HD
BRANCH  16  18
ATOM     18  C   UNL     1       1.957   5.325  18.181  0.00  0.00    +0.000 C 
BRANCH  18  19
ATOM     19  C   UNL     1       1.768   4.362  19.332  0.00  0.00    +0.000 A 
ATOM     20  C   UNL     1       1.043   3.186  19.131  0.00  0.00    +0.000 A 
ATOM     21  C   UNL     1       0.850   2.319  20.203  0.00  0.00    +0.000 A 
ATOM     22  C   UNL     1       1.374   2.649  21.446  0.00  0.00    +0.000 A 
ATOM     23  C   UNL     1       2.068   3.841  21.567  0.00  0.00    +0.000 A 
ATOM     24  N   UNL     1       2.273   4.708  20.548  0.00  0.00    +0.000 NA
ENDBRANCH  18  19
ENDBRANCH  16  18
ENDBRANCH  13  14
ENDBRANCH   2  13
TORSDOF 6
ENDMDL
