MODEL 1
REMARK VINA RESULT:      -7.2      0.000      0.000
REMARK  Name = 
REMARK  6 active torsions:
REMARK  status: ('A' for Active; 'I' for Inactive)
REMARK    1  A    between atoms: C_1  and  O_2
REMARK    2  A    between atoms: O_2  and  C_3
REMARK    3  A    between atoms: C_7  and  C_8
REMARK    4  A    between atoms: C_8  and  N_9
REMARK    5  A    between atoms: C_19  and  O_20
REMARK    6  A    between atoms: O_20  and  C_21
REMARK                            x       y       z     vdW  Elec       q    Type
REMARK                         _______ _______ _______ _____ _____    ______ ____
ROOT
ATOM      1  C   UNL     1       5.059   3.606  16.399  0.00  0.00    +0.000 C 
ENDROOT
BRANCH   1   2
ATOM      2  N   UNL     1       3.676   3.428  16.873  0.00  0.00    +0.000 NA
ATOM      3  C   UNL     1       3.097   4.732  17.260  0.00  0.00    +0.000 C 
ATOM      4  C   UNL     1       1.696   4.544  17.817  0.00  0.00    +0.000 C 
ATOM      5  C   UNL     1       1.884   3.855  19.136  0.00  0.00    +0.000 A 
ATOM      6  C   UNL     1       1.304   4.346  20.305  0.00  0.00    +0.000 A 
ATOM      7  C   UNL     1       1.573   3.722  21.518  0.00  0.00    +0.000 A 
ATOM      8  C   UNL     1       2.371   2.574  21.550  0.00  0.00    +0.000 A 
ATOM      9  C   UNL     1       2.958   2.089  20.379  0.00  0.00    +0.000 A 
ATOM     10  C   UNL     1       2.772   2.766  19.169  0.00  0.00    +0.000 A 
ATOM     11  C   UNL     1       3.540   2.378  17.913  0.00  0.00    +0.000 C 
ENDBRANCH   1   2
BRANCH   1  16
ATOM     12  C   UNL     1       7.271   6.593  17.412  0.00  0.00    +0.000 A 
ATOM     13  C   UNL     1       7.374   6.365  18.793  0.00  0.00    +0.000 A 
ATOM     14  C   UNL     1       6.728   5.283  19.383  0.00  0.00    +0.000 A 
ATOM     15  C   UNL     1       5.960   4.431  18.598  0.00  0.00    +0.000 A 
ATOM     16  C   UNL     1       5.790   4.671  17.221  0.00  0.00    +0.000 A 
ATOM     17  C   UNL     1       6.417   5.793  16.626  0.00  0.00    +0.000 A 
BRANCH  12  19
ATOM     18  C   UNL     1       8.090   8.799  17.592  0.00  0.00    +0.000 C 
ATOM     19  O   UNL     1       8.007   7.594  16.830  0.00  0.00    +0.000 OA
ENDBRANCH  12  19
BRANCH  17  20
ATOM     20  O   UNL     1       6.174   5.933  15.281  0.00  0.00    +0.000 OA
ATOM     21  C   UNL     1       7.013   5.247  14.361  0.00  0.00    +0.000 C 
ENDBRANCH  17  20
ENDBRANCH   1  16
TORSDOF 4
ENDMDL
MODEL 2
REMARK VINA RESULT:      -7.1      1.388      2.905
REMARK  Name = 
REMARK  6 active torsions:
REMARK  status: ('A' for Active; 'I' for Inactive)
REMARK    1  A    between atoms: C_1  and  O_2
REMARK    2  A    between atoms: O_2  and  C_3
REMARK    3  A    between atoms: C_7  and  C_8
REMARK    4  A    between atoms: C_8  and  N_9
REMARK    5  A    between atoms: C_19  and  O_20
REMARK    6  A    between atoms: O_20  and  C_21
REMARK                            x       y       z     vdW  Elec       q    Type
REMARK                         _______ _______ _______ _____ _____    ______ ____
ROOT
ATOM      1  C   UNL     1       4.689   5.261  16.951  0.00  0.00    +0.000 C 
ENDROOT
BRANCH   1   2
ATOM      2  N   UNL     1       3.610   4.302  17.246  0.00  0.00    +0.000 NA
ATOM      3  C   UNL     1       2.374   5.023  17.617  0.00  0.00    +0.000 C 
ATOM      4  C   UNL     1       1.280   4.038  17.993  0.00  0.00    +0.000 C 
ATOM      5  C   UNL     1       1.720   3.435  19.293  0.00  0.00    +0.000 A 
ATOM      6  C   UNL     1       0.878   3.401  20.404  0.00  0.00    +0.000 A 
ATOM      7  C   UNL     1       1.357   2.907  21.612  0.00  0.00    +0.000 A 
ATOM      8  C   UNL     1       2.655   2.392  21.690  0.00  0.00    +0.000 A 
ATOM      9  C   UNL     1       3.500   2.436  20.578  0.00  0.00    +0.000 A 
ATOM     10  C   UNL     1       3.060   3.019  19.385  0.00  0.00    +0.000 A 
ATOM     11  C   UNL     1       4.006   3.251  18.215  0.00  0.00    +0.000 C 
ENDBRANCH   1   2
BRANCH   1  16
ATOM     12  C   UNL     1       7.333   5.099  14.154  0.00  0.00    +0.000 A 
ATOM     13  C   UNL     1       6.691   4.227  13.260  0.00  0.00    +0.000 A 
ATOM     14  C   UNL     1       5.443   3.692  13.565  0.00  0.00    +0.000 A 
ATOM     15  C   UNL     1       4.836   4.010  14.774  0.00  0.00    +0.000 A 
ATOM     16  C   UNL     1       5.484   4.834  15.715  0.00  0.00    +0.000 A 
ATOM     17  C   UNL     1       6.770   5.350  15.422  0.00  0.00    +0.000 A 
BRANCH  12  19
ATOM     18  C   UNL     1       8.574   6.105  12.417  0.00  0.00    +0.000 C 
ATOM     19  O   UNL     1       8.506   5.708  13.788  0.00  0.00    +0.000 OA
ENDBRANCH  12  19
BRANCH  17  20
ATOM     20  O   UNL     1       7.309   6.130  16.415  0.00  0.00    +0.000 OA
ATOM     21  C   UNL     1       7.586   5.536  17.676  0.00  0.00    +0.000 C 
ENDBRANCH  17  20
ENDBRANCH   1  16
TORSDOF 4
ENDMDL
MODEL 3
REMARK VINA RESULT:      -7.0      3.321      4.604
REMARK  Name = 
REMARK  6 active torsions:
REMARK  status: ('A' for Active; 'I' for Inactive)
REMARK    1  A    between atoms: C_1  and  O_2
REMARK    2  A    between atoms: O_2  and  C_3
REMARK    3  A    between atoms: C_7  and  C_8
REMARK    4  A    between atoms: C_8  and  N_9
REMARK    5  A    between atoms: C_19  and  O_20
REMARK    6  A    between atoms: O_20  and  C_21
REMARK                            x       y       z     vdW  Elec       q    Type
REMARK                         _______ _______ _______ _____ _____    ______ ____
ROOT
ATOM      1  C   UNL     1       4.268   5.907  19.227  0.00  0.00    +0.000 C 
ENDROOT
BRANCH   1   2
ATOM      2  N   UNL     1       2.971   6.528  18.909  0.00  0.00    +0.000 NA
ATOM      3  C   UNL     1       3.173   7.734  18.078  0.00  0.00    +0.000 C 
ATOM      4  C   UNL     1       1.844   8.419  17.808  0.00  0.00    +0.000 C 
ATOM      5  C   UNL     1       1.417   8.988  19.129  0.00  0.00    +0.000 A 
ATOM      6  C   UNL     1       1.046  10.326  19.262  0.00  0.00    +0.000 A 
ATOM      7  C   UNL     1       0.738  10.830  20.520  0.00  0.00    +0.000 A 
ATOM      8  C   UNL     1       0.740   9.980  21.632  0.00  0.00    +0.000 A 
ATOM      9  C   UNL     1       1.120   8.643  21.497  0.00  0.00    +0.000 A 
ATOM     10  C   UNL     1       1.526   8.150  20.252  0.00  0.00    +0.000 A 
ATOM     11  C   UNL     1       2.119   6.756  20.102  0.00  0.00    +0.000 C 
ENDBRANCH   1   2
BRANCH   1  16
ATOM     12  C   UNL     1       6.331   4.971  16.111  0.00  0.00    +0.000 A 
ATOM     13  C   UNL     1       5.569   3.896  15.626  0.00  0.00    +0.000 A 
ATOM     14  C   UNL     1       4.428   3.474  16.302  0.00  0.00    +0.000 A 
ATOM     15  C   UNL     1       4.051   4.113  17.477  0.00  0.00    +0.000 A 
ATOM     16  C   UNL     1       4.830   5.154  18.018  0.00  0.00    +0.000 A 
ATOM     17  C   UNL     1       6.012   5.560  17.351  0.00  0.00    +0.000 A 
BRANCH  12  19
ATOM     18  C   UNL     1       7.379   5.057  13.998  0.00  0.00    +0.000 C 
ATOM     19  O   UNL     1       7.385   5.447  15.372  0.00  0.00    +0.000 OA
ENDBRANCH  12  19
BRANCH  17  20
ATOM     20  O   UNL     1       6.696   6.575  17.974  0.00  0.00    +0.000 OA
ATOM     21  C   UNL     1       7.835   6.249  18.760  0.00  0.00    +0.000 C 
ENDBRANCH  17  20
ENDBRANCH   1  16
TORSDOF 4
ENDMDL
MODEL 4
REMARK VINA RESULT:      -6.9      3.515      4.880
REMARK  Name = 
REMARK  6 active torsions:
REMARK  status: ('A' for Active; 'I' for Inactive)
REMARK    1  A    between atoms: C_1  and  O_2
REMARK    2  A    between atoms: O_2  and  C_3
REMARK    3  A    between atoms: C_7  and  C_8
REMARK    4  A    between atoms: C_8  and  N_9
REMARK    5  A    between atoms: C_19  and  O_20
REMARK    6  A    between atoms: O_20  and  C_21
REMARK                            x       y       z     vdW  Elec       q    Type
REMARK                         _______ _______ _______ _____ _____    ______ ____
ROOT
ATOM      1  C   UNL     1       2.977   5.519  17.832  0.00  0.00    +0.000 C 
ENDROOT
BRANCH   1   2
ATOM      2  N   UNL     1       2.955   6.657  18.767  0.00  0.00    +0.000 NA
ATOM      3  C   UNL     1       2.050   6.368  19.901  0.00  0.00    +0.000 C 
ATOM      4  C   UNL     1       1.968   7.567  20.830  0.00  0.00    +0.000 C 
ATOM      5  C   UNL     1       1.220   8.614  20.061  0.00  0.00    +0.000 A 
ATOM      6  C   UNL     1       0.111   9.264  20.601  0.00  0.00    +0.000 A 
ATOM      7  C   UNL     1      -0.601  10.168  19.821  0.00  0.00    +0.000 A 
ATOM      8  C   UNL     1      -0.167  10.465  18.525  0.00  0.00    +0.000 A 
ATOM      9  C   UNL     1       0.940   9.806  17.983  0.00  0.00    +0.000 A 
ATOM     10  C   UNL     1       1.605   8.824  18.725  0.00  0.00    +0.000 A 
ATOM     11  C   UNL     1       2.693   7.959  18.106  0.00  0.00    +0.000 C 
ENDBRANCH   1   2
BRANCH   1  16
ATOM     12  C   UNL     1       6.752   4.763  17.705  0.00  0.00    +0.000 A 
ATOM     13  C   UNL     1       7.026   5.105  16.371  0.00  0.00    +0.000 A 
ATOM     14  C   UNL     1       6.011   5.550  15.530  0.00  0.00    +0.000 A 
ATOM     15  C   UNL     1       4.711   5.640  16.013  0.00  0.00    +0.000 A 
ATOM     16  C   UNL     1       4.396   5.246  17.328  0.00  0.00    +0.000 A 
ATOM     17  C   UNL     1       5.423   4.758  18.173  0.00  0.00    +0.000 A 
BRANCH  12  19
ATOM     18  C   UNL     1       8.176   5.479  19.446  0.00  0.00    +0.000 C 
ATOM     19  O   UNL     1       7.783   4.438  18.551  0.00  0.00    +0.000 OA
ENDBRANCH  12  19
BRANCH  17  20
ATOM     20  O   UNL     1       5.000   4.395  19.429  0.00  0.00    +0.000 OA
ATOM     21  C   UNL     1       4.549   3.063  19.639  0.00  0.00    +0.000 C 
ENDBRANCH  17  20
ENDBRANCH   1  16
TORSDOF 4
ENDMDL
MODEL 5
REMARK VINA RESULT:      -6.8      3.840      5.116
REMARK  Name = 
REMARK  6 active torsions:
REMARK  status: ('A' for Active; 'I' for Inactive)
REMARK    1  A    between atoms: C_1  and  O_2
REMARK    2  A    between atoms: O_2  and  C_3
REMARK    3  A    between atoms: C_7  and  C_8
REMARK    4  A    between atoms: C_8  and  N_9
REMARK    5  A    between atoms: C_19  and  O_20
REMARK    6  A    between atoms: O_20  and  C_21
REMARK                            x       y       z     vdW  Elec       q    Type
REMARK                         _______ _______ _______ _____ _____    ______ ____
ROOT
ATOM      1  C   UNL     1       3.676   7.689  17.927  0.00  0.00    +0.000 C 
ENDROOT
BRANCH   1   2
ATOM      2  N   UNL     1       2.260   7.945  18.241  0.00  0.00    +0.000 NA
ATOM      3  C   UNL     1       1.884   9.313  17.822  0.00  0.00    +0.000 C 
ATOM      4  C   UNL     1       0.444   9.607  18.209  0.00  0.00    +0.000 C 
ATOM      5  C   UNL     1       0.449   9.703  19.706  0.00  0.00    +0.000 A 
ATOM      6  C   UNL     1      -0.102  10.799  20.368  0.00  0.00    +0.000 A 
ATOM      7  C   UNL     1      -0.001  10.885  21.752  0.00  0.00    +0.000 A 
ATOM      8  C   UNL     1       0.595   9.846  22.474  0.00  0.00    +0.000 A 
ATOM      9  C   UNL     1       1.154   8.753  21.808  0.00  0.00    +0.000 A 
ATOM     10  C   UNL     1       1.144   8.704  20.410  0.00  0.00    +0.000 A 
ATOM     11  C   UNL     1       1.901   7.627  19.645  0.00  0.00    +0.000 C 
ENDBRANCH   1   2
BRANCH   1  16
ATOM     12  C   UNL     1       5.178   4.385  16.636  0.00  0.00    +0.000 A 
ATOM     13  C   UNL     1       4.114   3.510  16.907  0.00  0.00    +0.000 A 
ATOM     14  C   UNL     1       2.949   3.975  17.508  0.00  0.00    +0.000 A 
ATOM     15  C   UNL     1       2.847   5.315  17.861  0.00  0.00    +0.000 A 
ATOM     16  C   UNL     1       3.921   6.203  17.656  0.00  0.00    +0.000 A 
ATOM     17  C   UNL     1       5.121   5.722  17.078  0.00  0.00    +0.000 A 
BRANCH  12  19
ATOM     18  C   UNL     1       6.147   4.010  14.518  0.00  0.00    +0.000 C 
ATOM     19  O   UNL     1       6.270   3.935  15.939  0.00  0.00    +0.000 OA
ENDBRANCH  12  19
BRANCH  17  20
ATOM     20  O   UNL     1       6.103   6.672  16.935  0.00  0.00    +0.000 OA
ATOM     21  C   UNL     1       7.237   6.615  17.791  0.00  0.00    +0.000 C 
ENDBRANCH  17  20
ENDBRANCH   1  16
TORSDOF 4
ENDMDL
MODEL 6
REMARK VINA RESULT:      -6.8      2.469      6.189
REMARK  Name = 
REMARK  6 active torsions:
REMARK  status: ('A' for Active; 'I' for Inactive)
REMARK    1  A    between atoms: C_1  and  O_2
REMARK    2  A    between atoms: O_2  and  C_3
REMARK    3  A    between atoms: C_7  and  C_8
REMARK    4  A    between atoms: C_8  and  N_9
REMARK    5  A    between atoms: C_19  and  O_20
REMARK    6  A    between atoms: O_20  and  C_21
REMARK                            x       y       z     vdW  Elec       q    Type
REMARK                         _______ _______ _______ _____ _____    ______ ____
ROOT
ATOM      1  C   UNL     1       3.709   4.439  16.696  0.00  0.00    +0.000 C 
ENDROOT
BRANCH   1   2
ATOM      2  N   UNL     1       5.178   4.549  16.684  0.00  0.00    +0.000 NA
ATOM      3  C   UNL     1       5.727   4.204  18.014  0.00  0.00    +0.000 C 
ATOM      4  C   UNL     1       7.235   4.387  18.027  0.00  0.00    +0.000 C 
ATOM      5  C   UNL     1       7.455   5.868  17.946  0.00  0.00    +0.000 A 
ATOM      6  C   UNL     1       8.276   6.535  18.854  0.00  0.00    +0.000 A 
ATOM      7  C   UNL     1       8.386   7.919  18.791  0.00  0.00    +0.000 A 
ATOM      8  C   UNL     1       7.723   8.626  17.782  0.00  0.00    +0.000 A 
ATOM      9  C   UNL     1       6.894   7.957  16.879  0.00  0.00    +0.000 A 
ATOM     10  C   UNL     1       6.700   6.576  16.994  0.00  0.00    +0.000 A 
ATOM     11  C   UNL     1       5.667   5.843  16.150  0.00  0.00    +0.000 C 
ENDBRANCH   1   2
BRANCH   1  16
ATOM     12  C   UNL     1       1.729   4.207  19.992  0.00  0.00    +0.000 A 
ATOM     13  C   UNL     1       1.883   5.521  20.464  0.00  0.00    +0.000 A 
ATOM     14  C   UNL     1       2.624   6.451  19.742  0.00  0.00    +0.000 A 
ATOM     15  C   UNL     1       3.232   6.069  18.552  0.00  0.00    +0.000 A 
ATOM     16  C   UNL     1       3.145   4.742  18.086  0.00  0.00    +0.000 A 
ATOM     17  C   UNL     1       2.422   3.786  18.840  0.00  0.00    +0.000 A 
BRANCH  12  19
ATOM     18  C   UNL     1       1.515   2.626  21.731  0.00  0.00    +0.000 C 
ATOM     19  O   UNL     1       0.901   3.338  20.656  0.00  0.00    +0.000 OA
ENDBRANCH  12  19
BRANCH  17  20
ATOM     20  O   UNL     1       2.412   2.524  18.296  0.00  0.00    +0.000 OA
ATOM     21  C   UNL     1       3.382   1.583  18.739  0.00  0.00    +0.000 C 
ENDBRANCH  17  20
ENDBRANCH   1  16
TORSDOF 4
ENDMDL
MODEL 7
REMARK VINA RESULT:      -6.7      3.354      4.673
REMARK  Name = 
REMARK  6 active torsions:
REMARK  status: ('A' for Active; 'I' for Inactive)
REMARK    1  A    between atoms: C_1  and  O_2
REMARK    2  A    between atoms: O_2  and  C_3
REMARK    3  A    between atoms: C_7  and  C_8
REMARK    4  A    between atoms: C_8  and  N_9
REMARK    5  A    between atoms: C_19  and  O_20
REMARK    6  A    between atoms: O_20  and  C_21
REMARK                            x       y       z     vdW  Elec       q    Type
REMARK                         _______ _______ _______ _____ _____    ______ ____
ROOT
ATOM      1  C   UNL     1       4.188   5.653  19.227  0.00  0.00    +0.000 C 
ENDROOT
BRANCH   1   2
ATOM      2  N   UNL     1       2.930   6.339  18.884  0.00  0.00    +0.000 NA
ATOM      3  C   UNL     1       3.210   7.542  18.071  0.00  0.00    +0.000 C 
ATOM      4  C   UNL     1       1.922   8.293  17.777  0.00  0.00    +0.000 C 
ATOM      5  C   UNL     1       1.491   8.869  19.093  0.00  0.00    +0.000 A 
ATOM      6  C   UNL     1       1.182  10.221  19.231  0.00  0.00    +0.000 A 
ATOM      7  C   UNL     1       0.867  10.728  20.487  0.00  0.00    +0.000 A 
ATOM      8  C   UNL     1       0.801   9.869  21.589  0.00  0.00    +0.000 A 
ATOM      9  C   UNL     1       1.119   8.515  21.450  0.00  0.00    +0.000 A 
ATOM     10  C   UNL     1       1.532   8.016  20.210  0.00  0.00    +0.000 A 
ATOM     11  C   UNL     1       2.061   6.597  20.059  0.00  0.00    +0.000 C 
ENDBRANCH   1   2
BRANCH   1  16
ATOM     12  C   UNL     1       5.960   4.467  16.018  0.00  0.00    +0.000 A 
ATOM     13  C   UNL     1       7.080   5.314  16.030  0.00  0.00    +0.000 A 
ATOM     14  C   UNL     1       7.246   6.256  17.040  0.00  0.00    +0.000 A 
ATOM     15  C   UNL     1       6.284   6.371  18.036  0.00  0.00    +0.000 A 
ATOM     16  C   UNL     1       5.121   5.577  18.016  0.00  0.00    +0.000 A 
ATOM     17  C   UNL     1       4.933   4.642  16.968  0.00  0.00    +0.000 A 
BRANCH  12  19
ATOM     18  C   UNL     1       6.167   3.870  13.745  0.00  0.00    +0.000 C 
ATOM     19  O   UNL     1       5.871   3.467  15.083  0.00  0.00    +0.000 OA
ENDBRANCH  12  19
BRANCH  17  20
ATOM     20  O   UNL     1       3.761   3.931  17.045  0.00  0.00    +0.000 OA
ATOM     21  C   UNL     1       3.777   2.653  17.668  0.00  0.00    +0.000 C 
ENDBRANCH  17  20
ENDBRANCH   1  16
TORSDOF 4
ENDMDL
MODEL 8
REMARK VINA RESULT:      -6.6      3.981      5.587
REMARK  Name = 
REMARK  6 active torsions:
REMARK  status: ('A' for Active; 'I' for Inactive)
REMARK    1  A    between atoms: C_1  and  O_2
REMARK    2  A    between atoms: O_2  and  C_3
REMARK    3  A    between atoms: C_7  and  C_8
REMARK    4  A    between atoms: C_8  and  N_9
REMARK    5  A    between atoms: C_19  and  O_20
REMARK    6  A    between atoms: O_20  and  C_21
REMARK                            x       y       z     vdW  Elec       q    Type
REMARK                         _______ _______ _______ _____ _____    ______ ____
ROOT
ATOM      1  C   UNL     1       3.518   6.700  17.979  0.00  0.00    +0.000 C 
ENDROOT
BRANCH   1   2
ATOM      2  N   UNL     1       2.228   7.382  18.177  0.00  0.00    +0.000 NA
ATOM      3  C   UNL     1       2.319   8.788  17.726  0.00  0.00    +0.000 C 
ATOM      4  C   UNL     1       1.013   9.516  17.995  0.00  0.00    +0.000 C 
ATOM      5  C   UNL     1       0.933   9.646  19.486  0.00  0.00    +0.000 A 
ATOM      6  C   UNL     1       0.693  10.875  20.100  0.00  0.00    +0.000 A 
ATOM      7  C   UNL     1       0.709  10.963  21.487  0.00  0.00    +0.000 A 
ATOM      8  C   UNL     1       0.903   9.811  22.258  0.00  0.00    +0.000 A 
ATOM      9  C   UNL     1       1.151   8.583  21.641  0.00  0.00    +0.000 A 
ATOM     10  C   UNL     1       1.234   8.502  20.246  0.00  0.00    +0.000 A 
ATOM     11  C   UNL     1       1.683   7.226  19.548  0.00  0.00    +0.000 C 
ENDBRANCH   1   2
BRANCH   1  16
ATOM     12  C   UNL     1       4.284   3.108  19.141  0.00  0.00    +0.000 A 
ATOM     13  C   UNL     1       3.276   2.409  18.458  0.00  0.00    +0.000 A 
ATOM     14  C   UNL     1       2.362   3.086  17.657  0.00  0.00    +0.000 A 
ATOM     15  C   UNL     1       2.438   4.470  17.548  0.00  0.00    +0.000 A 
ATOM     16  C   UNL     1       3.400   5.202  18.270  0.00  0.00    +0.000 A 
ATOM     17  C   UNL     1       4.308   4.517  19.115  0.00  0.00    +0.000 A 
BRANCH  12  19
ATOM     18  C   UNL     1       4.745   1.555  20.857  0.00  0.00    +0.000 C 
ATOM     19  O   UNL     1       5.245   2.415  19.832  0.00  0.00    +0.000 OA
ENDBRANCH  12  19
BRANCH  17  20
ATOM     20  O   UNL     1       5.193   5.332  19.777  0.00  0.00    +0.000 OA
ATOM     21  C   UNL     1       6.519   5.448  19.276  0.00  0.00    +0.000 C 
ENDBRANCH  17  20
ENDBRANCH   1  16
TORSDOF 4
ENDMDL
MODEL 9
REMARK VINA RESULT:      -6.6      2.602      6.703
REMARK  Name = 
REMARK  6 active torsions:
REMARK  status: ('A' for Active; 'I' for Inactive)
REMARK    1  A    between atoms: C_1  and  O_2
REMARK    2  A    between atoms: O_2  and  C_3
REMARK    3  A    between atoms: C_7  and  C_8
REMARK    4  A    between atoms: C_8  and  N_9
REMARK    5  A    between atoms: C_19  and  O_20
REMARK    6  A    between atoms: O_20  and  C_21
REMARK                            x       y       z     vdW  Elec       q    Type
REMARK                         _______ _______ _______ _____ _____    ______ ____
ROOT
ATOM      1  C   UNL     1       3.657   5.884  17.332  0.00  0.00    +0.000 C 
ENDROOT
BRANCH   1   2
ATOM      2  N   UNL     1       4.952   5.269  16.992  0.00  0.00    +0.000 NA
ATOM      3  C   UNL     1       5.924   6.312  16.599  0.00  0.00    +0.000 C 
ATOM      4  C   UNL     1       7.238   5.678  16.176  0.00  0.00    +0.000 C 
ATOM      5  C   UNL     1       6.944   4.986  14.879  0.00  0.00    +0.000 A 
ATOM      6  C   UNL     1       7.727   5.199  13.744  0.00  0.00    +0.000 A 
ATOM      7  C   UNL     1       7.368   4.600  12.542  0.00  0.00    +0.000 A 
ATOM      8  C   UNL     1       6.265   3.741  12.492  0.00  0.00    +0.000 A 
ATOM      9  C   UNL     1       5.478   3.536  13.627  0.00  0.00    +0.000 A 
ATOM     10  C   UNL     1       5.773   4.210  14.817  0.00  0.00    +0.000 A 
ATOM     11  C   UNL     1       4.837   4.157  16.016  0.00  0.00    +0.000 C 
ENDBRANCH   1   2
BRANCH   1  16
ATOM     12  C   UNL     1       1.759   3.886  20.023  0.00  0.00    +0.000 A 
ATOM     13  C   UNL     1       1.314   2.798  19.254  0.00  0.00    +0.000 A 
ATOM     14  C   UNL     1       1.606   2.725  17.895  0.00  0.00    +0.000 A 
ATOM     15  C   UNL     1       2.330   3.748  17.293  0.00  0.00    +0.000 A 
ATOM     16  C   UNL     1       2.736   4.879  18.027  0.00  0.00    +0.000 A 
ATOM     17  C   UNL     1       2.407   4.972  19.402  0.00  0.00    +0.000 A 
BRANCH  12  19
ATOM     18  C   UNL     1       1.877   2.653  22.032  0.00  0.00    +0.000 C 
ATOM     19  O   UNL     1       1.562   3.885  21.381  0.00  0.00    +0.000 OA
ENDBRANCH  12  19
BRANCH  17  20
ATOM     20  O   UNL     1       2.844   6.121  20.014  0.00  0.00    +0.000 OA
ATOM     21  C   UNL     1       1.914   7.174  20.234  0.00  0.00    +0.000 C 
ENDBRANCH  17  20
ENDBRANCH   1  16
TORSDOF 4
ENDMDL
