MODEL 1
REMARK VINA RESULT:      -8.7      0.000      0.000
REMARK  Name = 
REMARK  5 active torsions:
REMARK  status: ('A' for Active; 'I' for Inactive)
REMARK    1  A    between atoms: C_2  and  C_3
REMARK    2  A    between atoms: N_5  and  C_6
REMARK    3  A    between atoms: N_10  and  C_11
REMARK    4  A    between atoms: C_24  and  O_25
REMARK    5  A    between atoms: O_25  and  C_26
REMARK                            x       y       z     vdW  Elec       q    Type
REMARK                         _______ _______ _______ _____ _____    ______ ____
ROOT
ATOM      1  C   UNL     1       2.519   6.232  20.054  0.00  0.00    +0.000 A 
ATOM      2  C   UNL     1       1.759   7.318  20.475  0.00  0.00    +0.000 A 
ATOM      3  C   UNL     1       1.628   8.451  19.661  0.00  0.00    +0.000 A 
ATOM      4  C   UNL     1       1.022   9.648  20.079  0.00  0.00    +0.000 A 
ATOM      5  N   UNL     1       0.525   9.746  21.412  0.00  0.00    +0.000 N 
ATOM      6  N   UNL     1       0.927  10.700  19.252  0.00  0.00    +0.000 NA
ATOM      7  C   UNL     1       1.444  10.561  18.026  0.00  0.00    +0.000 A 
ATOM      8  N   UNL     1       2.064   9.475  17.542  0.00  0.00    +0.000 NA
ATOM      9  C   UNL     1       2.163   8.429  18.362  0.00  0.00    +0.000 A 
ATOM     10  C   UNL     1       2.847   7.292  17.925  0.00  0.00    +0.000 A 
ATOM     11  C   UNL     1       3.059   6.201  18.766  0.00  0.00    +0.000 A 
ATOM     12  H   UNL     1       1.237   9.422  22.058  0.00  0.00    +0.000 HD
ENDROOT
BRANCH   5  13
ATOM     13  C   UNL     1      -0.223  10.809  21.972  0.00  0.00    +0.000 A 
ATOM     14  C   UNL     1      -1.234  10.588  22.919  0.00  0.00    +0.000 A 
ATOM     15  C   UNL     1      -1.980  11.644  23.441  0.00  0.00    +0.000 A 
ATOM     16  C   UNL     1      -1.687  12.944  23.058  0.00  0.00    +0.000 A 
ATOM     17  F   UNL     1      -2.430  13.944  23.553  0.00  0.00    +0.000 F 
ATOM     18  C   UNL     1      -0.634  13.198  22.185  0.00  0.00    +0.000 A 
ATOM     19 CL   UNL     1      -0.240  14.814  21.738  0.00  0.00    +0.000 Cl
ATOM     20  C   UNL     1       0.107  12.137  21.653  0.00  0.00    +0.000 A 
ENDBRANCH   5  13
BRANCH   1  23
ATOM     21  C   UNL     1       2.165   4.022  21.088  0.00  0.00    +0.000 C 
ATOM     22  O   UNL     1       2.556   3.139  21.840  0.00  0.00    +0.000 OA
ATOM     23  N   UNL     1       2.826   5.223  20.979  0.00  0.00    +0.000 N 
ATOM     24  H   UNL     1       3.377   5.468  21.794  0.00  0.00    +0.000 HD
BRANCH  21  26
ATOM     25  C   UNL     1       0.723   2.981  19.363  0.00  0.00    +0.000 C 
ATOM     26  C   UNL     1       0.882   3.889  20.328  0.00  0.00    +0.000 C 
ENDBRANCH  21  26
ENDBRANCH   1  23
BRANCH  11  27
ATOM     27  O   UNL     1       3.814   5.104  18.466  0.00  0.00    +0.000 OA
BRANCH  27  28
ATOM     28  C   UNL     1       4.862   5.205  17.504  0.00  0.00    +0.000 C 
ATOM     29  C   UNL     1       6.275   5.072  18.042  0.00  0.00    +0.000 C 
ATOM     30  C   UNL     1       7.032   4.448  16.887  0.00  0.00    +0.000 C 
ATOM     31  O   UNL     1       6.090   3.718  16.095  0.00  0.00    +0.000 OA
ATOM     32  C   UNL     1       4.782   3.969  16.614  0.00  0.00    +0.000 C 
ENDBRANCH  27  28
ENDBRANCH  11  27
TORSDOF 5
ENDMDL
MODEL 2
REMARK VINA RESULT:      -8.6      0.975      1.126
REMARK  Name = 
REMARK  5 active torsions:
REMARK  status: ('A' for Active; 'I' for Inactive)
REMARK    1  A    between atoms: C_2  and  C_3
REMARK    2  A    between atoms: N_5  and  C_6
REMARK    3  A    between atoms: N_10  and  C_11
REMARK    4  A    between atoms: C_24  and  O_25
REMARK    5  A    between atoms: O_25  and  C_26
REMARK                            x       y       z     vdW  Elec       q    Type
REMARK                         _______ _______ _______ _____ _____    ______ ____
ROOT
ATOM      1  C   UNL     1       2.553   5.559  20.130  0.00  0.00    +0.000 A 
ATOM      2  C   UNL     1       1.856   6.711  20.480  0.00  0.00    +0.000 A 
ATOM      3  C   UNL     1       1.830   7.815  19.617  0.00  0.00    +0.000 A 
ATOM      4  C   UNL     1       1.295   9.067  19.965  0.00  0.00    +0.000 A 
ATOM      5  N   UNL     1       0.765   9.255  21.275  0.00  0.00    +0.000 N 
ATOM      6  N   UNL     1       1.300  10.086  19.093  0.00  0.00    +0.000 NA
ATOM      7  C   UNL     1       1.844   9.861  17.892  0.00  0.00    +0.000 A 
ATOM      8  N   UNL     1       2.403   8.715  17.475  0.00  0.00    +0.000 NA
ATOM      9  C   UNL     1       2.403   7.701  18.339  0.00  0.00    +0.000 A 
ATOM     10  C   UNL     1       3.020   6.503  17.972  0.00  0.00    +0.000 A 
ATOM     11  C   UNL     1       3.130   5.436  18.864  0.00  0.00    +0.000 A 
ATOM     12  H   UNL     1       1.431   8.912  21.958  0.00  0.00    +0.000 HD
ENDROOT
BRANCH   5  13
ATOM     13  C   UNL     1       0.074  10.389  21.765  0.00  0.00    +0.000 A 
ATOM     14  C   UNL     1      -0.877  10.294  22.792  0.00  0.00    +0.000 A 
ATOM     15  C   UNL     1      -1.568  11.417  23.245  0.00  0.00    +0.000 A 
ATOM     16  C   UNL     1      -1.276  12.662  22.710  0.00  0.00    +0.000 A 
ATOM     17  F   UNL     1      -1.966  13.727  23.142  0.00  0.00    +0.000 F 
ATOM     18  C   UNL     1      -0.276  12.797  21.750  0.00  0.00    +0.000 A 
ATOM     19 CL   UNL     1       0.118  14.348  21.112  0.00  0.00    +0.000 Cl
ATOM     20  C   UNL     1       0.408  11.668  21.288  0.00  0.00    +0.000 A 
ENDBRANCH   5  13
BRANCH   1  23
ATOM     21  C   UNL     1       2.060   3.392  21.196  0.00  0.00    +0.000 C 
ATOM     22  O   UNL     1       2.369   2.523  22.002  0.00  0.00    +0.000 OA
ATOM     23  N   UNL     1       2.760   4.572  21.105  0.00  0.00    +0.000 N 
ATOM     24  H   UNL     1       3.252   4.828  21.954  0.00  0.00    +0.000 HD
BRANCH  21  26
ATOM     25  C   UNL     1       0.820   2.514  19.239  0.00  0.00    +0.000 C 
ATOM     26  C   UNL     1       0.837   3.266  20.342  0.00  0.00    +0.000 C 
ENDBRANCH  21  26
ENDBRANCH   1  23
BRANCH  11  27
ATOM     27  O   UNL     1       3.816   4.279  18.634  0.00  0.00    +0.000 OA
BRANCH  27  28
ATOM     28  C   UNL     1       5.206   4.328  18.320  0.00  0.00    +0.000 C 
ATOM     29  C   UNL     1       5.563   4.925  16.971  0.00  0.00    +0.000 C 
ATOM     30  C   UNL     1       6.921   5.554  17.214  0.00  0.00    +0.000 C 
ATOM     31  O   UNL     1       7.009   5.869  18.607  0.00  0.00    +0.000 OA
ATOM     32  C   UNL     1       5.848   5.347  19.257  0.00  0.00    +0.000 C 
ENDBRANCH  27  28
ENDBRANCH  11  27
TORSDOF 5
ENDMDL
MODEL 3
REMARK VINA RESULT:      -8.5      1.066      1.083
REMARK  Name = 
REMARK  5 active torsions:
REMARK  status: ('A' for Active; 'I' for Inactive)
REMARK    1  A    between atoms: C_2  and  C_3
REMARK    2  A    between atoms: N_5  and  C_6
REMARK    3  A    between atoms: N_10  and  C_11
REMARK    4  A    between atoms: C_24  and  O_25
REMARK    5  A    between atoms: O_25  and  C_26
REMARK                            x       y       z     vdW  Elec       q    Type
REMARK                         _______ _______ _______ _____ _____    ______ ____
ROOT
ATOM      1  C   UNL     1       2.423   6.302  20.148  0.00  0.00    +0.000 A 
ATOM      2  C   UNL     1       1.553   7.346  20.449  0.00  0.00    +0.000 A 
ATOM      3  C   UNL     1       1.478   8.470  19.615  0.00  0.00    +0.000 A 
ATOM      4  C   UNL     1       0.755   9.632  19.934  0.00  0.00    +0.000 A 
ATOM      5  N   UNL     1       0.069   9.702  21.182  0.00  0.00    +0.000 N 
ATOM      6  N   UNL     1       0.722  10.677  19.094  0.00  0.00    +0.000 NA
ATOM      7  C   UNL     1       1.415  10.567  17.955  0.00  0.00    +0.000 A 
ATOM      8  N   UNL     1       2.155   9.516  17.573  0.00  0.00    +0.000 NA
ATOM      9  C   UNL     1       2.193   8.477  18.406  0.00  0.00    +0.000 A 
ATOM     10  C   UNL     1       2.992   7.380  18.079  0.00  0.00    +0.000 A 
ATOM     11  C   UNL     1       3.142   6.301  18.951  0.00  0.00    +0.000 A 
ATOM     12  H   UNL     1       0.698   9.418  21.925  0.00  0.00    +0.000 HD
ENDROOT
BRANCH   5  13
ATOM     13  C   UNL     1      -0.808  10.722  21.622  0.00  0.00    +0.000 A 
ATOM     14  C   UNL     1      -0.822  11.169  22.952  0.00  0.00    +0.000 A 
ATOM     15  C   UNL     1      -1.710  12.156  23.375  0.00  0.00    +0.000 A 
ATOM     16  C   UNL     1      -2.564  12.748  22.456  0.00  0.00    +0.000 A 
ATOM     17  F   UNL     1      -3.427  13.679  22.886  0.00  0.00    +0.000 F 
ATOM     18  C   UNL     1      -2.512  12.384  21.114  0.00  0.00    +0.000 A 
ATOM     19 CL   UNL     1      -3.542  13.145  19.962  0.00  0.00    +0.000 Cl
ATOM     20  C   UNL     1      -1.628  11.385  20.693  0.00  0.00    +0.000 A 
ENDBRANCH   5  13
BRANCH   1  23
ATOM     21  C   UNL     1       2.037   4.081  21.144  0.00  0.00    +0.000 C 
ATOM     22  O   UNL     1       2.365   3.219  21.950  0.00  0.00    +0.000 OA
ATOM     23  N   UNL     1       2.650   5.312  21.115  0.00  0.00    +0.000 N 
ATOM     24  H   UNL     1       3.073   5.585  21.995  0.00  0.00    +0.000 HD
BRANCH  21  26
ATOM     25  C   UNL     1       0.852   2.903  19.314  0.00  0.00    +0.000 C 
ATOM     26  C   UNL     1       0.877   3.884  20.219  0.00  0.00    +0.000 C 
ENDBRANCH  21  26
ENDBRANCH   1  23
BRANCH  11  27
ATOM     27  O   UNL     1       3.990   5.248  18.769  0.00  0.00    +0.000 OA
BRANCH  27  28
ATOM     28  C   UNL     1       5.210   5.433  18.055  0.00  0.00    +0.000 C 
ATOM     29  C   UNL     1       6.485   5.161  18.833  0.00  0.00    +0.000 C 
ATOM     30  C   UNL     1       7.447   4.670  17.769  0.00  0.00    +0.000 C 
ATOM     31  O   UNL     1       6.669   4.103  16.711  0.00  0.00    +0.000 OA
ATOM     32  C   UNL     1       5.288   4.339  16.995  0.00  0.00    +0.000 C 
ENDBRANCH  27  28
ENDBRANCH  11  27
TORSDOF 5
ENDMDL
MODEL 4
REMARK VINA RESULT:      -8.5      1.000      1.326
REMARK  Name = 
REMARK  5 active torsions:
REMARK  status: ('A' for Active; 'I' for Inactive)
REMARK    1  A    between atoms: C_2  and  C_3
REMARK    2  A    between atoms: N_5  and  C_6
REMARK    3  A    between atoms: N_10  and  C_11
REMARK    4  A    between atoms: C_24  and  O_25
REMARK    5  A    between atoms: O_25  and  C_26
REMARK                            x       y       z     vdW  Elec       q    Type
REMARK                         _______ _______ _______ _____ _____    ______ ____
ROOT
ATOM      1  C   UNL     1       2.262   6.445  20.169  0.00  0.00    +0.000 A 
ATOM      2  C   UNL     1       1.576   7.594  20.551  0.00  0.00    +0.000 A 
ATOM      3  C   UNL     1       1.513   8.701  19.694  0.00  0.00    +0.000 A 
ATOM      4  C   UNL     1       0.987   9.950  20.068  0.00  0.00    +0.000 A 
ATOM      5  N   UNL     1       0.507  10.130  21.398  0.00  0.00    +0.000 N 
ATOM      6  N   UNL     1       0.955  10.973  19.201  0.00  0.00    +0.000 NA
ATOM      7  C   UNL     1       1.454  10.754  17.979  0.00  0.00    +0.000 A 
ATOM      8  N   UNL     1       2.000   9.612  17.535  0.00  0.00    +0.000 NA
ATOM      9  C   UNL     1       2.037   8.595  18.395  0.00  0.00    +0.000 A 
ATOM     10  C   UNL     1       2.643   7.400  17.999  0.00  0.00    +0.000 A 
ATOM     11  C   UNL     1       2.791   6.330  18.882  0.00  0.00    +0.000 A 
ATOM     12  H   UNL     1       1.200   9.786  22.053  0.00  0.00    +0.000 HD
ENDROOT
BRANCH   5  13
ATOM     13  C   UNL     1      -0.168  11.260  21.919  0.00  0.00    +0.000 A 
ATOM     14  C   UNL     1       0.283  12.568  21.687  0.00  0.00    +0.000 A 
ATOM     15  C   UNL     1      -0.379  13.668  22.230  0.00  0.00    +0.000 A 
ATOM     16  C   UNL     1      -1.535  13.475  22.972  0.00  0.00    +0.000 A 
ATOM     17  F   UNL     1      -2.144  14.543  23.505  0.00  0.00    +0.000 F 
ATOM     18  C   UNL     1      -2.051  12.194  23.146  0.00  0.00    +0.000 A 
ATOM     19 CL   UNL     1      -3.508  11.953  24.031  0.00  0.00    +0.000 Cl
ATOM     20  C   UNL     1      -1.380  11.090  22.610  0.00  0.00    +0.000 A 
ENDBRANCH   5  13
BRANCH   1  23
ATOM     21  C   UNL     1       1.937   4.205  21.144  0.00  0.00    +0.000 C 
ATOM     22  O   UNL     1       2.284   3.348  21.947  0.00  0.00    +0.000 OA
ATOM     23  N   UNL     1       2.510   5.456  21.131  0.00  0.00    +0.000 N 
ATOM     24  H   UNL     1       2.914   5.735  22.018  0.00  0.00    +0.000 HD
BRANCH  21  26
ATOM     25  C   UNL     1       0.746   2.920  19.392  0.00  0.00    +0.000 C 
ATOM     26  C   UNL     1       0.794   3.978  20.205  0.00  0.00    +0.000 C 
ENDBRANCH  21  26
ENDBRANCH   1  23
BRANCH  11  27
ATOM     27  O   UNL     1       3.472   5.177  18.621  0.00  0.00    +0.000 OA
BRANCH  27  28
ATOM     28  C   UNL     1       4.295   5.085  17.461  0.00  0.00    +0.000 C 
ATOM     29  C   UNL     1       5.774   5.355  17.671  0.00  0.00    +0.000 C 
ATOM     30  C   UNL     1       6.442   4.483  16.626  0.00  0.00    +0.000 C 
ATOM     31  O   UNL     1       5.558   3.394  16.343  0.00  0.00    +0.000 OA
ATOM     32  C   UNL     1       4.334   3.618  17.045  0.00  0.00    +0.000 C 
ENDBRANCH  27  28
ENDBRANCH  11  27
TORSDOF 5
ENDMDL
MODEL 5
REMARK VINA RESULT:      -8.3      1.219      1.613
REMARK  Name = 
REMARK  5 active torsions:
REMARK  status: ('A' for Active; 'I' for Inactive)
REMARK    1  A    between atoms: C_2  and  C_3
REMARK    2  A    between atoms: N_5  and  C_6
REMARK    3  A    between atoms: N_10  and  C_11
REMARK    4  A    between atoms: C_24  and  O_25
REMARK    5  A    between atoms: O_25  and  C_26
REMARK                            x       y       z     vdW  Elec       q    Type
REMARK                         _______ _______ _______ _____ _____    ______ ____
ROOT
ATOM      1  C   UNL     1       2.383   5.892  20.191  0.00  0.00    +0.000 A 
ATOM      2  C   UNL     1       1.752   7.095  20.498  0.00  0.00    +0.000 A 
ATOM      3  C   UNL     1       1.764   8.156  19.584  0.00  0.00    +0.000 A 
ATOM      4  C   UNL     1       1.299   9.449  19.881  0.00  0.00    +0.000 A 
ATOM      5  N   UNL     1       0.805   9.725  21.190  0.00  0.00    +0.000 N 
ATOM      6  N   UNL     1       1.338  10.425  18.962  0.00  0.00    +0.000 NA
ATOM      7  C   UNL     1       1.846  10.116  17.763  0.00  0.00    +0.000 A 
ATOM      8  N   UNL     1       2.338   8.924  17.391  0.00  0.00    +0.000 NA
ATOM      9  C   UNL     1       2.304   7.954  18.303  0.00  0.00    +0.000 A 
ATOM     10  C   UNL     1       2.853   6.710  17.983  0.00  0.00    +0.000 A 
ATOM     11  C   UNL     1       2.928   5.682  18.923  0.00  0.00    +0.000 A 
ATOM     12  H   UNL     1       1.468   9.380  21.876  0.00  0.00    +0.000 HD
ENDROOT
BRANCH   5  13
ATOM     13  C   UNL     1       0.183  10.914  21.637  0.00  0.00    +0.000 A 
ATOM     14  C   UNL     1       0.669  12.184  21.292  0.00  0.00    +0.000 A 
ATOM     15  C   UNL     1       0.060  13.346  21.763  0.00  0.00    +0.000 A 
ATOM     16  C   UNL     1      -1.080  13.251  22.547  0.00  0.00    +0.000 A 
ATOM     17  F   UNL     1      -1.639  14.378  23.010  0.00  0.00    +0.000 F 
ATOM     18  C   UNL     1      -1.633  12.006  22.835  0.00  0.00    +0.000 A 
ATOM     19 CL   UNL     1      -3.072  11.886  23.774  0.00  0.00    +0.000 Cl
ATOM     20  C   UNL     1      -1.014  10.841  22.370  0.00  0.00    +0.000 A 
ENDBRANCH   5  13
BRANCH   1  23
ATOM     21  C   UNL     1       1.904   3.737  21.287  0.00  0.00    +0.000 C 
ATOM     22  O   UNL     1       2.189   2.905  22.139  0.00  0.00    +0.000 OA
ATOM     23  N   UNL     1       2.560   4.944  21.208  0.00  0.00    +0.000 N 
ATOM     24  H   UNL     1       2.980   5.244  22.081  0.00  0.00    +0.000 HD
BRANCH  21  26
ATOM     25  C   UNL     1       0.773   2.608  19.394  0.00  0.00    +0.000 C 
ATOM     26  C   UNL     1       0.751   3.536  20.354  0.00  0.00    +0.000 C 
ENDBRANCH  21  26
ENDBRANCH   1  23
BRANCH  11  27
ATOM     27  O   UNL     1       3.550   4.482  18.737  0.00  0.00    +0.000 OA
BRANCH  27  28
ATOM     28  C   UNL     1       4.924   4.446  18.356  0.00  0.00    +0.000 C 
ATOM     29  C   UNL     1       5.252   5.016  16.988  0.00  0.00    +0.000 C 
ATOM     30  C   UNL     1       6.655   5.562  17.163  0.00  0.00    +0.000 C 
ATOM     31  O   UNL     1       6.828   5.876  18.548  0.00  0.00    +0.000 OA
ATOM     32  C   UNL     1       5.670   5.427  19.256  0.00  0.00    +0.000 C 
ENDBRANCH  27  28
ENDBRANCH  11  27
TORSDOF 5
ENDMDL
MODEL 6
REMARK VINA RESULT:      -8.0      2.615      4.433
REMARK  Name = 
REMARK  5 active torsions:
REMARK  status: ('A' for Active; 'I' for Inactive)
REMARK    1  A    between atoms: C_2  and  C_3
REMARK    2  A    between atoms: N_5  and  C_6
REMARK    3  A    between atoms: N_10  and  C_11
REMARK    4  A    between atoms: C_24  and  O_25
REMARK    5  A    between atoms: O_25  and  C_26
REMARK                            x       y       z     vdW  Elec       q    Type
REMARK                         _______ _______ _______ _____ _____    ______ ____
ROOT
ATOM      1  C   UNL     1       3.806   6.465  17.750  0.00  0.00    +0.000 A 
ATOM      2  C   UNL     1       3.215   7.706  17.976  0.00  0.00    +0.000 A 
ATOM      3  C   UNL     1       2.370   7.899  19.076  0.00  0.00    +0.000 A 
ATOM      4  C   UNL     1       1.608   9.063  19.281  0.00  0.00    +0.000 A 
ATOM      5  N   UNL     1       1.665  10.108  18.314  0.00  0.00    +0.000 N 
ATOM      6  N   UNL     1       0.815   9.188  20.355  0.00  0.00    +0.000 NA
ATOM      7  C   UNL     1       0.775   8.159  21.209  0.00  0.00    +0.000 A 
ATOM      8  N   UNL     1       1.440   7.000  21.089  0.00  0.00    +0.000 NA
ATOM      9  C   UNL     1       2.226   6.871  20.021  0.00  0.00    +0.000 A 
ATOM     10  C   UNL     1       2.899   5.662  19.823  0.00  0.00    +0.000 A 
ATOM     11  C   UNL     1       3.665   5.434  18.681  0.00  0.00    +0.000 A 
ATOM     12  H   UNL     1       1.536   9.715  17.388  0.00  0.00    +0.000 HD
ENDROOT
BRANCH   5  13
ATOM     13  C   UNL     1       1.078  11.393  18.406  0.00  0.00    +0.000 A 
ATOM     14  C   UNL     1      -0.312  11.574  18.456  0.00  0.00    +0.000 A 
ATOM     15  C   UNL     1      -0.875  12.848  18.519  0.00  0.00    +0.000 A 
ATOM     16  C   UNL     1      -0.047  13.959  18.586  0.00  0.00    +0.000 A 
ATOM     17  F   UNL     1      -0.606  15.177  18.623  0.00  0.00    +0.000 F 
ATOM     18  C   UNL     1       1.335  13.804  18.624  0.00  0.00    +0.000 A 
ATOM     19 CL   UNL     1       2.366  15.178  18.749  0.00  0.00    +0.000 Cl
ATOM     20  C   UNL     1       1.899  12.525  18.549  0.00  0.00    +0.000 A 
ENDBRANCH   5  13
BRANCH   1  23
ATOM     21  C   UNL     1       5.799   6.353  16.305  0.00  0.00    +0.000 C 
ATOM     22  O   UNL     1       6.309   6.026  15.241  0.00  0.00    +0.000 OA
ATOM     23  N   UNL     1       4.447   6.236  16.524  0.00  0.00    +0.000 N 
ATOM     24  H   UNL     1       3.888   6.247  15.678  0.00  0.00    +0.000 HD
BRANCH  21  26
ATOM     25  C   UNL     1       7.485   6.316  18.121  0.00  0.00    +0.000 C 
ATOM     26  C   UNL     1       6.603   7.001  17.390  0.00  0.00    +0.000 C 
ENDBRANCH  21  26
ENDBRANCH   1  23
BRANCH  11  27
ATOM     27  O   UNL     1       4.257   4.250  18.348  0.00  0.00    +0.000 OA
BRANCH  27  28
ATOM     28  C   UNL     1       3.468   3.069  18.236  0.00  0.00    +0.000 C 
ATOM     29  C   UNL     1       2.989   2.461  19.542  0.00  0.00    +0.000 C 
ATOM     30  C   UNL     1       1.666   1.822  19.167  0.00  0.00    +0.000 C 
ATOM     31  O   UNL     1       1.149   2.528  18.036  0.00  0.00    +0.000 OA
ATOM     32  C   UNL     1       2.136   3.469  17.608  0.00  0.00    +0.000 C 
ENDBRANCH  27  28
ENDBRANCH  11  27
TORSDOF 5
ENDMDL
MODEL 7
REMARK VINA RESULT:      -7.9      1.361      1.648
REMARK  Name = 
REMARK  5 active torsions:
REMARK  status: ('A' for Active; 'I' for Inactive)
REMARK    1  A    between atoms: C_2  and  C_3
REMARK    2  A    between atoms: N_5  and  C_6
REMARK    3  A    between atoms: N_10  and  C_11
REMARK    4  A    between atoms: C_24  and  O_25
REMARK    5  A    between atoms: O_25  and  C_26
REMARK                            x       y       z     vdW  Elec       q    Type
REMARK                         _______ _______ _______ _____ _____    ______ ____
ROOT
ATOM      1  C   UNL     1       2.483   5.710  20.272  0.00  0.00    +0.000 A 
ATOM      2  C   UNL     1       1.679   6.846  20.282  0.00  0.00    +0.000 A 
ATOM      3  C   UNL     1       1.891   7.874  19.353  0.00  0.00    +0.000 A 
ATOM      4  C   UNL     1       1.238   9.117  19.401  0.00  0.00    +0.000 A 
ATOM      5  N   UNL     1       0.321   9.379  20.461  0.00  0.00    +0.000 N 
ATOM      6  N   UNL     1       1.484  10.062  18.482  0.00  0.00    +0.000 NA
ATOM      7  C   UNL     1       2.381   9.772  17.532  0.00  0.00    +0.000 A 
ATOM      8  N   UNL     1       3.075   8.630  17.416  0.00  0.00    +0.000 NA
ATOM      9  C   UNL     1       2.835   7.691  18.330  0.00  0.00    +0.000 A 
ATOM     10  C   UNL     1       3.570   6.504  18.284  0.00  0.00    +0.000 A 
ATOM     11  C   UNL     1       3.428   5.520  19.262  0.00  0.00    +0.000 A 
ATOM     12  H   UNL     1       0.752   9.130  21.345  0.00  0.00    +0.000 HD
ENDROOT
BRANCH   5  13
ATOM     13  C   UNL     1      -0.520  10.508  20.607  0.00  0.00    +0.000 A 
ATOM     14  C   UNL     1      -1.408  10.909  19.598  0.00  0.00    +0.000 A 
ATOM     15  C   UNL     1      -2.211  12.039  19.747  0.00  0.00    +0.000 A 
ATOM     16  C   UNL     1      -2.172  12.755  20.934  0.00  0.00    +0.000 A 
ATOM     17  F   UNL     1      -2.934  13.851  21.051  0.00  0.00    +0.000 F 
ATOM     18  C   UNL     1      -1.363  12.329  21.984  0.00  0.00    +0.000 A 
ATOM     19 CL   UNL     1      -1.342  13.191  23.475  0.00  0.00    +0.000 Cl
ATOM     20  C   UNL     1      -0.550  11.201  21.829  0.00  0.00    +0.000 A 
ENDBRANCH   5  13
BRANCH   1  23
ATOM     21  C   UNL     1       1.746   3.611  21.334  0.00  0.00    +0.000 C 
ATOM     22  O   UNL     1       1.814   2.829  22.273  0.00  0.00    +0.000 OA
ATOM     23  N   UNL     1       2.405   4.819  21.352  0.00  0.00    +0.000 N 
ATOM     24  H   UNL     1       2.601   5.169  22.283  0.00  0.00    +0.000 HD
BRANCH  21  26
ATOM     25  C   UNL     1       1.187   2.487  19.198  0.00  0.00    +0.000 C 
ATOM     26  C   UNL     1       0.853   3.349  20.161  0.00  0.00    +0.000 C 
ENDBRANCH  21  26
ENDBRANCH   1  23
BRANCH  11  27
ATOM     27  O   UNL     1       4.185   4.389  19.364  0.00  0.00    +0.000 OA
BRANCH  27  28
ATOM     28  C   UNL     1       4.796   3.836  18.200  0.00  0.00    +0.000 C 
ATOM     29  C   UNL     1       4.098   4.122  16.882  0.00  0.00    +0.000 C 
ATOM     30  C   UNL     1       5.237   4.154  15.883  0.00  0.00    +0.000 C 
ATOM     31  O   UNL     1       6.426   4.517  16.592  0.00  0.00    +0.000 OA
ATOM     32  C   UNL     1       6.114   4.573  17.986  0.00  0.00    +0.000 C 
ENDBRANCH  27  28
ENDBRANCH  11  27
TORSDOF 5
ENDMDL
MODEL 8
REMARK VINA RESULT:      -7.9      1.449      1.762
REMARK  Name = 
REMARK  5 active torsions:
REMARK  status: ('A' for Active; 'I' for Inactive)
REMARK    1  A    between atoms: C_2  and  C_3
REMARK    2  A    between atoms: N_5  and  C_6
REMARK    3  A    between atoms: N_10  and  C_11
REMARK    4  A    between atoms: C_24  and  O_25
REMARK    5  A    between atoms: O_25  and  C_26
REMARK                            x       y       z     vdW  Elec       q    Type
REMARK                         _______ _______ _______ _____ _____    ______ ____
ROOT
ATOM      1  C   UNL     1       2.750   6.004  20.128  0.00  0.00    +0.000 A 
ATOM      2  C   UNL     1       1.858   7.036  20.406  0.00  0.00    +0.000 A 
ATOM      3  C   UNL     1       1.779   8.152  19.563  0.00  0.00    +0.000 A 
ATOM      4  C   UNL     1       1.031   9.304  19.860  0.00  0.00    +0.000 A 
ATOM      5  N   UNL     1       0.324   9.373  21.096  0.00  0.00    +0.000 N 
ATOM      6  N   UNL     1       0.996  10.343  19.012  0.00  0.00    +0.000 NA
ATOM      7  C   UNL     1       1.708  10.235  17.885  0.00  0.00    +0.000 A 
ATOM      8  N   UNL     1       2.472   9.193  17.523  0.00  0.00    +0.000 NA
ATOM      9  C   UNL     1       2.512   8.162  18.366  0.00  0.00    +0.000 A 
ATOM     10  C   UNL     1       3.335   7.075  18.061  0.00  0.00    +0.000 A 
ATOM     11  C   UNL     1       3.488   6.005  18.943  0.00  0.00    +0.000 A 
ATOM     12  H   UNL     1       0.945   9.105  21.852  0.00  0.00    +0.000 HD
ENDROOT
BRANCH   5  13
ATOM     13  C   UNL     1      -0.577  10.382  21.513  0.00  0.00    +0.000 A 
ATOM     14  C   UNL     1      -0.746  10.715  22.866  0.00  0.00    +0.000 A 
ATOM     15  C   UNL     1      -1.656  11.694  23.262  0.00  0.00    +0.000 A 
ATOM     16  C   UNL     1      -2.374  12.390  22.301  0.00  0.00    +0.000 A 
ATOM     17  F   UNL     1      -3.262  13.311  22.703  0.00  0.00    +0.000 F 
ATOM     18  C   UNL     1      -2.164  12.138  20.949  0.00  0.00    +0.000 A 
ATOM     19 CL   UNL     1      -3.024  13.028  19.751  0.00  0.00    +0.000 Cl
ATOM     20  C   UNL     1      -1.258  11.148  20.553  0.00  0.00    +0.000 A 
ENDBRANCH   5  13
BRANCH   1  23
ATOM     21  C   UNL     1       2.196   3.910  21.304  0.00  0.00    +0.000 C 
ATOM     22  O   UNL     1       2.515   3.036  22.100  0.00  0.00    +0.000 OA
ATOM     23  N   UNL     1       2.976   5.025  21.107  0.00  0.00    +0.000 N 
ATOM     24  H   UNL     1       3.572   5.258  21.893  0.00  0.00    +0.000 HD
BRANCH  21  26
ATOM     25  C   UNL     1       0.482   2.788  19.911  0.00  0.00    +0.000 C 
ATOM     26  C   UNL     1       0.885   3.868  20.582  0.00  0.00    +0.000 C 
ENDBRANCH  21  26
ENDBRANCH   1  23
BRANCH  11  27
ATOM     27  O   UNL     1       4.356   4.964  18.784  0.00  0.00    +0.000 OA
BRANCH  27  28
ATOM     28  C   UNL     1       4.048   3.918  17.865  0.00  0.00    +0.000 C 
ATOM     29  C   UNL     1       3.860   2.537  18.466  0.00  0.00    +0.000 C 
ATOM     30  C   UNL     1       2.852   1.886  17.541  0.00  0.00    +0.000 C 
ATOM     31  O   UNL     1       2.081   2.930  16.938  0.00  0.00    +0.000 OA
ATOM     32  C   UNL     1       2.645   4.184  17.328  0.00  0.00    +0.000 C 
ENDBRANCH  27  28
ENDBRANCH  11  27
TORSDOF 5
ENDMDL
MODEL 9
REMARK VINA RESULT:      -7.7      2.631      4.556
REMARK  Name = 
REMARK  5 active torsions:
REMARK  status: ('A' for Active; 'I' for Inactive)
REMARK    1  A    between atoms: C_2  and  C_3
REMARK    2  A    between atoms: N_5  and  C_6
REMARK    3  A    between atoms: N_10  and  C_11
REMARK    4  A    between atoms: C_24  and  O_25
REMARK    5  A    between atoms: O_25  and  C_26
REMARK                            x       y       z     vdW  Elec       q    Type
REMARK                         _______ _______ _______ _____ _____    ______ ____
ROOT
ATOM      1  C   UNL     1       4.089   6.332  17.647  0.00  0.00    +0.000 A 
ATOM      2  C   UNL     1       3.458   7.544  17.913  0.00  0.00    +0.000 A 
ATOM      3  C   UNL     1       2.584   7.666  19.001  0.00  0.00    +0.000 A 
ATOM      4  C   UNL     1       1.784   8.797  19.239  0.00  0.00    +0.000 A 
ATOM      5  N   UNL     1       1.831   9.885  18.319  0.00  0.00    +0.000 N 
ATOM      6  N   UNL     1       0.966   8.853  20.300  0.00  0.00    +0.000 NA
ATOM      7  C   UNL     1       0.938   7.787  21.107  0.00  0.00    +0.000 A 
ATOM      8  N   UNL     1       1.639   6.654  20.953  0.00  0.00    +0.000 NA
ATOM      9  C   UNL     1       2.451   6.593  19.898  0.00  0.00    +0.000 A 
ATOM     10  C   UNL     1       3.163   5.414  19.663  0.00  0.00    +0.000 A 
ATOM     11  C   UNL     1       3.959   5.257  18.529  0.00  0.00    +0.000 A 
ATOM     12  H   UNL     1       1.733   9.529  17.375  0.00  0.00    +0.000 HD
ENDROOT
BRANCH   5  13
ATOM     13  C   UNL     1       1.205  11.148  18.453  0.00  0.00    +0.000 A 
ATOM     14  C   UNL     1       1.919  12.349  18.328  0.00  0.00    +0.000 A 
ATOM     15  C   UNL     1       1.293  13.583  18.488  0.00  0.00    +0.000 A 
ATOM     16  C   UNL     1      -0.073  13.633  18.726  0.00  0.00    +0.000 A 
ATOM     17  F   UNL     1      -0.653  14.828  18.901  0.00  0.00    +0.000 F 
ATOM     18  C   UNL     1      -0.820  12.459  18.771  0.00  0.00    +0.000 A 
ATOM     19 CL   UNL     1      -2.523  12.517  19.025  0.00  0.00    +0.000 Cl
ATOM     20  C   UNL     1      -0.188  11.220  18.620  0.00  0.00    +0.000 A 
ENDBRANCH   5  13
BRANCH   1  23
ATOM     21  C   UNL     1       6.128   6.179  16.271  0.00  0.00    +0.000 C 
ATOM     22  O   UNL     1       6.653   5.921  15.196  0.00  0.00    +0.000 OA
ATOM     23  N   UNL     1       4.761   6.174  16.427  0.00  0.00    +0.000 N 
ATOM     24  H   UNL     1       4.247   6.333  15.568  0.00  0.00    +0.000 HD
BRANCH  21  26
ATOM     25  C   UNL     1       7.581   7.791  17.466  0.00  0.00    +0.000 C 
ATOM     26  C   UNL     1       6.938   6.621  17.450  0.00  0.00    +0.000 C 
ENDBRANCH  21  26
ENDBRANCH   1  23
BRANCH  11  27
ATOM     27  O   UNL     1       4.592   4.107  18.159  0.00  0.00    +0.000 OA
BRANCH  27  28
ATOM     28  C   UNL     1       3.859   2.887  18.080  0.00  0.00    +0.000 C 
ATOM     29  C   UNL     1       3.273   2.377  19.385  0.00  0.00    +0.000 C 
ATOM     30  C   UNL     1       2.017   1.651  18.944  0.00  0.00    +0.000 C 
ATOM     31  O   UNL     1       1.592   2.231  17.707  0.00  0.00    +0.000 OA
ATOM     32  C   UNL     1       2.584   3.172  17.292  0.00  0.00    +0.000 C 
ENDBRANCH  27  28
ENDBRANCH  11  27
TORSDOF 5
ENDMDL
