MODEL 1
REMARK VINA RESULT:      -6.2      0.000      0.000
REMARK  Name = 
REMARK  15 active torsions:
REMARK  status: ('A' for Active; 'I' for Inactive)
REMARK    1  A    between atoms: C_2  and  C_3
REMARK    2  A    between atoms: C_3  and  C_4
REMARK    3  A    between atoms: C_8  and  O_9
REMARK    4  A    between atoms: C_12  and  O_13
REMARK    5  A    between atoms: O_13  and  C_14
REMARK    6  A    between atoms: C_14  and  C_15
REMARK    7  A    between atoms: C_17  and  O_18
REMARK    8  A    between atoms: O_18  and  C_19
REMARK    9  A    between atoms: C_19  and  C_20
REMARK   10  A    between atoms: C_23  and  C_24
REMARK   11  A    between atoms: C_23  and  C_25
REMARK   12  A    between atoms: C_28  and  O_29
REMARK   13  A    between atoms: O_29  and  C_30
REMARK   14  A    between atoms: C_30  and  C_31
REMARK   15  A    between atoms: C_33  and  C_34
REMARK                            x       y       z     vdW  Elec       q    Type
REMARK                         _______ _______ _______ _____ _____    ______ ____
ROOT
ATOM      1  C   UNL     1      10.241  12.415  18.923  0.00  0.00    +0.000 C 
ATOM      2  C   UNL     1       9.126  11.684  18.164  0.00  0.00    +0.000 C 
ATOM      3  C   UNL     1      10.435  11.809  20.317  0.00  0.00    +0.000 C 
ATOM      4  C   UNL     1       9.295  12.259  21.210  0.00  0.00    +0.000 C 
ATOM      5  O   UNL     1       8.592  11.432  21.780  0.00  0.00    +0.000 OA
ATOM      6  C   UNL     1       9.087  13.774  21.282  0.00  0.00    +0.000 C 
ATOM      7  C   UNL     1       8.838  14.235  19.830  0.00  0.00    +0.000 C 
ATOM      8  O   UNL     1       9.952  13.814  19.010  0.00  0.00    +0.000 OA
ATOM      9  C   UNL     1       8.837  15.789  19.733  0.00  0.00    +0.000 C 
ATOM     10  C   UNL     1       7.605  16.305  20.459  0.00  0.00    +0.000 C 
ATOM     11  C   UNL     1       7.551  15.833  21.978  0.00  0.00    +0.000 C 
ATOM     12  C   UNL     1       6.156  15.720  22.579  0.00  0.00    +0.000 C 
ATOM     13  C   UNL     1       5.522  14.600  21.366  0.00  0.00    +0.000 C 
ATOM     14  C   UNL     1       6.720  15.909  24.203  0.00  0.00    +0.000 C 
ATOM     15  C   UNL     1       4.825  15.636  23.133  0.00  0.00    +0.000 C 
ATOM     16  C   UNL     1       5.130  14.095  23.736  0.00  0.00    +0.000 C 
ATOM     17  C   UNL     1       6.731  13.353  23.160  0.00  0.00    +0.000 C 
ATOM     18  C   UNL     1       8.135  14.329  22.477  0.00  0.00    +0.000 C 
ATOM     19  C   UNL     1       9.213  14.487  23.652  0.00  0.00    +0.000 C 
ENDROOT
BRANCH   1  21
ATOM     20  C   UNL     1      11.930  13.088  17.096  0.00  0.00    +0.000 C 
ATOM     21  C   UNL     1      11.572  12.404  18.192  0.00  0.00    +0.000 C 
ENDBRANCH   1  21
BRANCH   6  22
ATOM     22  O   UNL     1      10.447  14.303  21.513  0.00  0.00    +0.000 OA
ATOM     23  H   UNL     1      10.879  13.769  22.215  0.00  0.00    +0.000 HD
ENDBRANCH   6  22
BRANCH   9  24
ATOM     24  O   UNL     1       8.670  16.185  18.337  0.00  0.00    +0.000 OA
BRANCH  24  25
ATOM     25  C   UNL     1       9.236  17.329  17.899  0.00  0.00    +0.000 C 
ATOM     26  C   UNL     1      10.532  17.032  17.201  0.00  0.00    +0.000 C 
ATOM     27  O   UNL     1       8.744  18.445  17.989  0.00  0.00    +0.000 OA
ENDBRANCH  24  25
ENDBRANCH   9  24
BRANCH  10  28
ATOM     28  O   UNL     1       6.550  15.742  19.631  0.00  0.00    +0.000 OA
BRANCH  28  29
ATOM     29  C   UNL     1       5.707  16.385  18.812  0.00  0.00    +0.000 C 
ATOM     30  C   UNL     1       5.077  15.331  17.909  0.00  0.00    +0.000 C 
ATOM     31  O   UNL     1       5.475  17.573  18.782  0.00  0.00    +0.000 OA
ENDBRANCH  28  29
ENDBRANCH  10  28
BRANCH  17  32
ATOM     32  O   UNL     1       7.034  12.127  23.850  0.00  0.00    +0.000 OA
BRANCH  32  33
ATOM     33  C   UNL     1       6.469  11.661  24.972  0.00  0.00    +0.000 C 
ATOM     34  C   UNL     1       7.299  12.154  26.132  0.00  0.00    +0.000 C 
ATOM     35  O   UNL     1       5.498  10.927  25.051  0.00  0.00    +0.000 OA
ENDBRANCH  32  33
ENDBRANCH  17  32
TORSDOF 8
ENDMDL
MODEL 2
REMARK VINA RESULT:      -6.1      6.508     10.732
REMARK  Name = 
REMARK  15 active torsions:
REMARK  status: ('A' for Active; 'I' for Inactive)
REMARK    1  A    between atoms: C_2  and  C_3
REMARK    2  A    between atoms: C_3  and  C_4
REMARK    3  A    between atoms: C_8  and  O_9
REMARK    4  A    between atoms: C_12  and  O_13
REMARK    5  A    between atoms: O_13  and  C_14
REMARK    6  A    between atoms: C_14  and  C_15
REMARK    7  A    between atoms: C_17  and  O_18
REMARK    8  A    between atoms: O_18  and  C_19
REMARK    9  A    between atoms: C_19  and  C_20
REMARK   10  A    between atoms: C_23  and  C_24
REMARK   11  A    between atoms: C_23  and  C_25
REMARK   12  A    between atoms: C_28  and  O_29
REMARK   13  A    between atoms: O_29  and  C_30
REMARK   14  A    between atoms: C_30  and  C_31
REMARK   15  A    between atoms: C_33  and  C_34
REMARK                            x       y       z     vdW  Elec       q    Type
REMARK                         _______ _______ _______ _____ _____    ______ ____
ROOT
ATOM      1  C   UNL     1      -3.412  13.702  22.111  0.00  0.00    +0.000 C 
ATOM      2  C   UNL     1      -4.128  13.429  20.782  0.00  0.00    +0.000 C 
ATOM      3  C   UNL     1      -2.965  15.166  22.196  0.00  0.00    +0.000 C 
ATOM      4  C   UNL     1      -1.755  15.361  21.304  0.00  0.00    +0.000 C 
ATOM      5  O   UNL     1      -1.769  16.208  20.418  0.00  0.00    +0.000 OA
ATOM      6  C   UNL     1      -0.590  14.404  21.573  0.00  0.00    +0.000 C 
ATOM      7  C   UNL     1      -1.161  12.982  21.387  0.00  0.00    +0.000 C 
ATOM      8  O   UNL     1      -2.297  12.818  22.268  0.00  0.00    +0.000 OA
ATOM      9  C   UNL     1      -0.137  11.907  21.854  0.00  0.00    +0.000 C 
ATOM     10  C   UNL     1       1.034  11.920  20.884  0.00  0.00    +0.000 C 
ATOM     11  C   UNL     1       1.723  13.351  20.782  0.00  0.00    +0.000 C 
ATOM     12  C   UNL     1       2.414  13.652  19.458  0.00  0.00    +0.000 C 
ATOM     13  C   UNL     1       0.997  13.367  18.441  0.00  0.00    +0.000 C 
ATOM     14  C   UNL     1       3.470  14.833  20.151  0.00  0.00    +0.000 C 
ATOM     15  C   UNL     1       3.078  13.908  18.202  0.00  0.00    +0.000 C 
ATOM     16  C   UNL     1       2.316  15.401  18.059  0.00  0.00    +0.000 C 
ATOM     17  C   UNL     1       0.987  15.704  19.319  0.00  0.00    +0.000 C 
ATOM     18  C   UNL     1       0.844  14.787  20.909  0.00  0.00    +0.000 C 
ATOM     19  C   UNL     1       1.444  15.735  22.054  0.00  0.00    +0.000 C 
ENDROOT
BRANCH   1  21
ATOM     20  C   UNL     1      -3.971  12.558  24.352  0.00  0.00    +0.000 C 
ATOM     21  C   UNL     1      -4.258  13.374  23.328  0.00  0.00    +0.000 C 
ENDBRANCH   1  21
BRANCH   6  22
ATOM     22  O   UNL     1      -0.430  14.451  23.040  0.00  0.00    +0.000 OA
ATOM     23  H   UNL     1       0.498  14.701  23.249  0.00  0.00    +0.000 HD
ENDBRANCH   6  22
BRANCH   9  24
ATOM     24  O   UNL     1      -0.739  10.581  21.730  0.00  0.00    +0.000 OA
BRANCH  24  25
ATOM     25  C   UNL     1      -0.328   9.587  22.545  0.00  0.00    +0.000 C 
ATOM     26  C   UNL     1      -0.412   8.266  21.836  0.00  0.00    +0.000 C 
ATOM     27  O   UNL     1       0.117   9.733  23.675  0.00  0.00    +0.000 OA
ENDBRANCH  24  25
ENDBRANCH   9  24
BRANCH  10  28
ATOM     28  O   UNL     1       0.374  11.497  19.660  0.00  0.00    +0.000 OA
BRANCH  28  29
ATOM     29  C   UNL     1       0.487  10.327  19.019  0.00  0.00    +0.000 C 
ATOM     30  C   UNL     1      -0.791  10.138  18.211  0.00  0.00    +0.000 C 
ATOM     31  O   UNL     1       1.420   9.555  19.058  0.00  0.00    +0.000 OA
ENDBRANCH  28  29
ENDBRANCH  10  28
BRANCH  17  32
ATOM     32  O   UNL     1       0.504  17.059  19.276  0.00  0.00    +0.000 OA
BRANCH  32  33
ATOM     33  C   UNL     1      -0.013  17.708  18.223  0.00  0.00    +0.000 C 
ATOM     34  C   UNL     1       1.077  18.581  17.653  0.00  0.00    +0.000 C 
ATOM     35  O   UNL     1      -1.165  17.653  17.826  0.00  0.00    +0.000 OA
ENDBRANCH  32  33
ENDBRANCH  17  32
TORSDOF 8
ENDMDL
MODEL 3
REMARK VINA RESULT:      -5.9      7.914     10.858
REMARK  Name = 
REMARK  15 active torsions:
REMARK  status: ('A' for Active; 'I' for Inactive)
REMARK    1  A    between atoms: C_2  and  C_3
REMARK    2  A    between atoms: C_3  and  C_4
REMARK    3  A    between atoms: C_8  and  O_9
REMARK    4  A    between atoms: C_12  and  O_13
REMARK    5  A    between atoms: O_13  and  C_14
REMARK    6  A    between atoms: C_14  and  C_15
REMARK    7  A    between atoms: C_17  and  O_18
REMARK    8  A    between atoms: O_18  and  C_19
REMARK    9  A    between atoms: C_19  and  C_20
REMARK   10  A    between atoms: C_23  and  C_24
REMARK   11  A    between atoms: C_23  and  C_25
REMARK   12  A    between atoms: C_28  and  O_29
REMARK   13  A    between atoms: O_29  and  C_30
REMARK   14  A    between atoms: C_30  and  C_31
REMARK   15  A    between atoms: C_33  and  C_34
REMARK                            x       y       z     vdW  Elec       q    Type
REMARK                         _______ _______ _______ _____ _____    ______ ____
ROOT
ATOM      1  C   UNL     1      -0.620  10.920  19.504  0.00  0.00    +0.000 C 
ATOM      2  C   UNL     1      -0.413   9.986  20.703  0.00  0.00    +0.000 C 
ATOM      3  C   UNL     1       0.564  11.883  19.355  0.00  0.00    +0.000 C 
ATOM      4  C   UNL     1       0.463  12.952  20.426  0.00  0.00    +0.000 C 
ATOM      5  O   UNL     1       1.390  13.136  21.206  0.00  0.00    +0.000 OA
ATOM      6  C   UNL     1      -0.870  13.705  20.467  0.00  0.00    +0.000 C 
ATOM      7  C   UNL     1      -1.956  12.630  20.687  0.00  0.00    +0.000 C 
ATOM      8  O   UNL     1      -1.850  11.640  19.638  0.00  0.00    +0.000 OA
ATOM      9  C   UNL     1      -3.380  13.237  20.520  0.00  0.00    +0.000 C 
ATOM     10  C   UNL     1      -3.622  14.191  21.678  0.00  0.00    +0.000 C 
ATOM     11  C   UNL     1      -2.525  15.341  21.760  0.00  0.00    +0.000 C 
ATOM     12  C   UNL     1      -2.279  15.914  23.149  0.00  0.00    +0.000 C 
ATOM     13  C   UNL     1      -1.887  14.372  23.919  0.00  0.00    +0.000 C 
ATOM     14  C   UNL     1      -1.665  17.413  22.543  0.00  0.00    +0.000 C 
ATOM     15  C   UNL     1      -2.075  16.455  24.473  0.00  0.00    +0.000 C 
ATOM     16  C   UNL     1      -0.408  16.287  24.328  0.00  0.00    +0.000 C 
ATOM     17  C   UNL     1       0.137  15.341  22.826  0.00  0.00    +0.000 C 
ATOM     18  C   UNL     1      -0.911  15.079  21.335  0.00  0.00    +0.000 C 
ATOM     19  C   UNL     1      -0.425  16.131  20.227  0.00  0.00    +0.000 C 
ENDROOT
BRANCH   1  21
ATOM     20  C   UNL     1      -1.903  10.152  17.405  0.00  0.00    +0.000 C 
ATOM     21  C   UNL     1      -0.819  10.180  18.193  0.00  0.00    +0.000 C 
ENDBRANCH   1  21
BRANCH   6  22
ATOM     22  O   UNL     1      -1.114  14.062  19.054  0.00  0.00    +0.000 OA
ATOM     23  H   UNL     1      -0.400  14.667  18.753  0.00  0.00    +0.000 HD
ENDBRANCH   6  22
BRANCH   9  24
ATOM     24  O   UNL     1      -4.375  12.177  20.665  0.00  0.00    +0.000 OA
BRANCH  24  25
ATOM     25  C   UNL     1      -5.524  12.245  19.961  0.00  0.00    +0.000 C 
ATOM     26  C   UNL     1      -5.272  11.897  18.522  0.00  0.00    +0.000 C 
ATOM     27  O   UNL     1      -6.629  12.485  20.426  0.00  0.00    +0.000 OA
ENDBRANCH  24  25
ENDBRANCH   9  24
BRANCH  10  28
ATOM     28  O   UNL     1      -3.590  13.268  22.800  0.00  0.00    +0.000 OA
BRANCH  28  29
ATOM     29  C   UNL     1      -4.580  12.958  23.648  0.00  0.00    +0.000 C 
ATOM     30  C   UNL     1      -5.618  14.068  23.542  0.00  0.00    +0.000 C 
ATOM     31  O   UNL     1      -4.654  11.985  24.366  0.00  0.00    +0.000 OA
ENDBRANCH  28  29
ENDBRANCH  10  28
BRANCH  17  32
ATOM     32  O   UNL     1       1.564  15.392  22.647  0.00  0.00    +0.000 OA
BRANCH  32  33
ATOM     33  C   UNL     1       2.299  16.436  22.241  0.00  0.00    +0.000 C 
ATOM     34  C   UNL     1       3.571  15.886  21.644  0.00  0.00    +0.000 C 
ATOM     35  O   UNL     1       2.027  17.617  22.377  0.00  0.00    +0.000 OA
ENDBRANCH  32  33
ENDBRANCH  17  32
TORSDOF 8
ENDMDL
MODEL 4
REMARK VINA RESULT:      -5.9      6.353     10.455
REMARK  Name = 
REMARK  15 active torsions:
REMARK  status: ('A' for Active; 'I' for Inactive)
REMARK    1  A    between atoms: C_2  and  C_3
REMARK    2  A    between atoms: C_3  and  C_4
REMARK    3  A    between atoms: C_8  and  O_9
REMARK    4  A    between atoms: C_12  and  O_13
REMARK    5  A    between atoms: O_13  and  C_14
REMARK    6  A    between atoms: C_14  and  C_15
REMARK    7  A    between atoms: C_17  and  O_18
REMARK    8  A    between atoms: O_18  and  C_19
REMARK    9  A    between atoms: C_19  and  C_20
REMARK   10  A    between atoms: C_23  and  C_24
REMARK   11  A    between atoms: C_23  and  C_25
REMARK   12  A    between atoms: C_28  and  O_29
REMARK   13  A    between atoms: O_29  and  C_30
REMARK   14  A    between atoms: C_30  and  C_31
REMARK   15  A    between atoms: C_33  and  C_34
REMARK                            x       y       z     vdW  Elec       q    Type
REMARK                         _______ _______ _______ _____ _____    ______ ____
ROOT
ATOM      1  C   UNL     1      -3.204  13.725  22.021  0.00  0.00    +0.000 C 
ATOM      2  C   UNL     1      -3.946  13.600  20.684  0.00  0.00    +0.000 C 
ATOM      3  C   UNL     1      -2.635  15.136  22.197  0.00  0.00    +0.000 C 
ATOM      4  C   UNL     1      -1.415  15.286  21.309  0.00  0.00    +0.000 C 
ATOM      5  O   UNL     1      -1.359  16.188  20.480  0.00  0.00    +0.000 OA
ATOM      6  C   UNL     1      -0.335  14.219  21.504  0.00  0.00    +0.000 C 
ATOM      7  C   UNL     1      -1.026  12.865  21.232  0.00  0.00    +0.000 C 
ATOM      8  O   UNL     1      -2.169  12.741  22.111  0.00  0.00    +0.000 OA
ATOM      9  C   UNL     1      -0.095  11.679  21.620  0.00  0.00    +0.000 C 
ATOM     10  C   UNL     1       1.069  11.656  20.642  0.00  0.00    +0.000 C 
ATOM     11  C   UNL     1       1.878  13.027  20.627  0.00  0.00    +0.000 C 
ATOM     12  C   UNL     1       2.587  13.354  19.319  0.00  0.00    +0.000 C 
ATOM     13  C   UNL     1       1.147  13.258  18.298  0.00  0.00    +0.000 C 
ATOM     14  C   UNL     1       3.742  14.393  20.078  0.00  0.00    +0.000 C 
ATOM     15  C   UNL     1       3.266  13.635  18.076  0.00  0.00    +0.000 C 
ATOM     16  C   UNL     1       2.633  15.193  18.037  0.00  0.00    +0.000 C 
ATOM     17  C   UNL     1       1.339  15.525  19.326  0.00  0.00    +0.000 C 
ATOM     18  C   UNL     1       1.124  14.521  20.855  0.00  0.00    +0.000 C 
ATOM     19  C   UNL     1       1.807  15.338  22.053  0.00  0.00    +0.000 C 
ENDROOT
BRANCH   1  21
ATOM     20  C   UNL     1      -4.099  12.264  23.946  0.00  0.00    +0.000 C 
ATOM     21  C   UNL     1      -4.071  13.391  23.222  0.00  0.00    +0.000 C 
ENDBRANCH   1  21
BRANCH   6  22
ATOM     22  O   UNL     1      -0.166  14.156  22.971  0.00  0.00    +0.000 OA
ATOM     23  H   UNL     1       0.430  14.884  23.252  0.00  0.00    +0.000 HD
ENDBRANCH   6  22
BRANCH   9  24
ATOM     24  O   UNL     1      -0.808  10.420  21.416  0.00  0.00    +0.000 OA
BRANCH  24  25
ATOM     25  C   UNL     1      -0.382   9.306  22.047  0.00  0.00    +0.000 C 
ATOM     26  C   UNL     1      -0.060   9.613  23.481  0.00  0.00    +0.000 C 
ATOM     27  O   UNL     1      -0.327   8.188  21.555  0.00  0.00    +0.000 OA
ENDBRANCH  24  25
ENDBRANCH   9  24
BRANCH  10  28
ATOM     28  O   UNL     1       0.371  11.372  19.399  0.00  0.00    +0.000 OA
BRANCH  28  29
ATOM     29  C   UNL     1       0.466  10.282  18.625  0.00  0.00    +0.000 C 
ATOM     30  C   UNL     1      -0.885  10.101  17.946  0.00  0.00    +0.000 C 
ATOM     31  O   UNL     1       1.434   9.568  18.478  0.00  0.00    +0.000 OA
ENDBRANCH  28  29
ENDBRANCH  10  28
BRANCH  17  32
ATOM     32  O   UNL     1       0.973  16.916  19.375  0.00  0.00    +0.000 OA
BRANCH  32  33
ATOM     33  C   UNL     1       1.648  17.917  19.955  0.00  0.00    +0.000 C 
ATOM     34  C   UNL     1       0.691  18.630  20.878  0.00  0.00    +0.000 C 
ATOM     35  O   UNL     1       2.806  18.238  19.742  0.00  0.00    +0.000 OA
ENDBRANCH  32  33
ENDBRANCH  17  32
TORSDOF 8
ENDMDL
MODEL 5
REMARK VINA RESULT:      -5.8      8.433     11.427
REMARK  Name = 
REMARK  15 active torsions:
REMARK  status: ('A' for Active; 'I' for Inactive)
REMARK    1  A    between atoms: C_2  and  C_3
REMARK    2  A    between atoms: C_3  and  C_4
REMARK    3  A    between atoms: C_8  and  O_9
REMARK    4  A    between atoms: C_12  and  O_13
REMARK    5  A    between atoms: O_13  and  C_14
REMARK    6  A    between atoms: C_14  and  C_15
REMARK    7  A    between atoms: C_17  and  O_18
REMARK    8  A    between atoms: O_18  and  C_19
REMARK    9  A    between atoms: C_19  and  C_20
REMARK   10  A    between atoms: C_23  and  C_24
REMARK   11  A    between atoms: C_23  and  C_25
REMARK   12  A    between atoms: C_28  and  O_29
REMARK   13  A    between atoms: O_29  and  C_30
REMARK   14  A    between atoms: C_30  and  C_31
REMARK   15  A    between atoms: C_33  and  C_34
REMARK                            x       y       z     vdW  Elec       q    Type
REMARK                         _______ _______ _______ _____ _____    ______ ____
ROOT
ATOM      1  C   UNL     1      -0.750  11.481  20.320  0.00  0.00    +0.000 C 
ATOM      2  C   UNL     1      -0.588  10.562  21.538  0.00  0.00    +0.000 C 
ATOM      3  C   UNL     1       0.331  12.567  20.311  0.00  0.00    +0.000 C 
ATOM      4  C   UNL     1      -0.013  13.608  21.359  0.00  0.00    +0.000 C 
ATOM      5  O   UNL     1       0.790  13.883  22.244  0.00  0.00    +0.000 OA
ATOM      6  C   UNL     1      -1.414  14.211  21.238  0.00  0.00    +0.000 C 
ATOM      7  C   UNL     1      -2.395  13.023  21.330  0.00  0.00    +0.000 C 
ATOM      8  O   UNL     1      -2.058  12.061  20.304  0.00  0.00    +0.000 OA
ATOM      9  C   UNL     1      -3.847  13.474  20.993  0.00  0.00    +0.000 C 
ATOM     10  C   UNL     1      -4.328  14.385  22.111  0.00  0.00    +0.000 C 
ATOM     11  C   UNL     1      -3.379  15.645  22.320  0.00  0.00    +0.000 C 
ATOM     12  C   UNL     1      -3.364  16.228  23.728  0.00  0.00    +0.000 C 
ATOM     13  C   UNL     1      -2.902  14.728  24.543  0.00  0.00    +0.000 C 
ATOM     14  C   UNL     1      -2.849  17.790  23.195  0.00  0.00    +0.000 C 
ATOM     15  C   UNL     1      -3.380  16.773  25.065  0.00  0.00    +0.000 C 
ATOM     16  C   UNL     1      -1.698  16.788  25.120  0.00  0.00    +0.000 C 
ATOM     17  C   UNL     1      -0.879  15.922  23.697  0.00  0.00    +0.000 C 
ATOM     18  C   UNL     1      -1.708  15.564  22.092  0.00  0.00    +0.000 C 
ATOM     19  C   UNL     1      -1.210  16.674  21.048  0.00  0.00    +0.000 C 
ENDROOT
BRANCH   1  21
ATOM     20  C   UNL     1      -1.697  10.559  18.107  0.00  0.00    +0.000 C 
ATOM     21  C   UNL     1      -0.711  10.736  18.997  0.00  0.00    +0.000 C 
ENDBRANCH   1  21
BRANCH   6  22
ATOM     22  O   UNL     1      -1.526  14.555  19.806  0.00  0.00    +0.000 OA
ATOM     23  H   UNL     1      -2.349  15.073  19.668  0.00  0.00    +0.000 HD
ENDBRANCH   6  22
BRANCH   9  24
ATOM     24  O   UNL     1      -4.731  12.311  21.021  0.00  0.00    +0.000 OA
BRANCH  24  25
ATOM     25  C   UNL     1      -5.734  12.219  20.123  0.00  0.00    +0.000 C 
ATOM     26  C   UNL     1      -6.971  11.677  20.779  0.00  0.00    +0.000 C 
ATOM     27  O   UNL     1      -5.679  12.585  18.957  0.00  0.00    +0.000 OA
ENDBRANCH  24  25
ENDBRANCH   9  24
BRANCH  10  28
ATOM     28  O   UNL     1      -4.329  13.458  23.231  0.00  0.00    +0.000 OA
BRANCH  28  29
ATOM     29  C   UNL     1      -5.380  12.989  23.918  0.00  0.00    +0.000 C 
ATOM     30  C   UNL     1      -6.514  13.988  23.731  0.00  0.00    +0.000 C 
ATOM     31  O   UNL     1      -5.436  11.967  24.566  0.00  0.00    +0.000 OA
ENDBRANCH  28  29
ENDBRANCH  10  28
BRANCH  17  32
ATOM     32  O   UNL     1       0.545  16.129  23.690  0.00  0.00    +0.000 OA
BRANCH  32  33
ATOM     33  C   UNL     1       1.226  17.135  24.255  0.00  0.00    +0.000 C 
ATOM     34  C   UNL     1       1.112  18.327  23.338  0.00  0.00    +0.000 C 
ATOM     35  O   UNL     1       1.871  17.089  25.290  0.00  0.00    +0.000 OA
ENDBRANCH  32  33
ENDBRANCH  17  32
TORSDOF 8
ENDMDL
MODEL 6
REMARK VINA RESULT:      -5.8      9.016     12.067
REMARK  Name = 
REMARK  15 active torsions:
REMARK  status: ('A' for Active; 'I' for Inactive)
REMARK    1  A    between atoms: C_2  and  C_3
REMARK    2  A    between atoms: C_3  and  C_4
REMARK    3  A    between atoms: C_8  and  O_9
REMARK    4  A    between atoms: C_12  and  O_13
REMARK    5  A    between atoms: O_13  and  C_14
REMARK    6  A    between atoms: C_14  and  C_15
REMARK    7  A    between atoms: C_17  and  O_18
REMARK    8  A    between atoms: O_18  and  C_19
REMARK    9  A    between atoms: C_19  and  C_20
REMARK   10  A    between atoms: C_23  and  C_24
REMARK   11  A    between atoms: C_23  and  C_25
REMARK   12  A    between atoms: C_28  and  O_29
REMARK   13  A    between atoms: O_29  and  C_30
REMARK   14  A    between atoms: C_30  and  C_31
REMARK   15  A    between atoms: C_33  and  C_34
REMARK                            x       y       z     vdW  Elec       q    Type
REMARK                         _______ _______ _______ _____ _____    ______ ____
ROOT
ATOM      1  C   UNL     1      -1.052  11.834  21.172  0.00  0.00    +0.000 C 
ATOM      2  C   UNL     1      -0.923  11.076  22.499  0.00  0.00    +0.000 C 
ATOM      3  C   UNL     1      -0.104  13.038  21.140  0.00  0.00    +0.000 C 
ATOM      4  C   UNL     1      -0.675  14.133  22.020  0.00  0.00    +0.000 C 
ATOM      5  O   UNL     1      -0.010  14.597  22.940  0.00  0.00    +0.000 OA
ATOM      6  C   UNL     1      -2.113  14.544  21.694  0.00  0.00    +0.000 C 
ATOM      7  C   UNL     1      -2.960  13.260  21.830  0.00  0.00    +0.000 C 
ATOM      8  O   UNL     1      -2.407  12.244  20.961  0.00  0.00    +0.000 OA
ATOM      9  C   UNL     1      -4.406  13.491  21.302  0.00  0.00    +0.000 C 
ATOM     10  C   UNL     1      -5.106  14.448  22.254  0.00  0.00    +0.000 C 
ATOM     11  C   UNL     1      -4.333  15.831  22.404  0.00  0.00    +0.000 C 
ATOM     12  C   UNL     1      -4.537  16.556  23.728  0.00  0.00    +0.000 C 
ATOM     13  C   UNL     1      -4.003  15.220  24.755  0.00  0.00    +0.000 C 
ATOM     14  C   UNL     1      -4.144  18.105  23.067  0.00  0.00    +0.000 C 
ATOM     15  C   UNL     1      -4.761  17.233  24.983  0.00  0.00    +0.000 C 
ATOM     16  C   UNL     1      -3.108  17.461  25.199  0.00  0.00    +0.000 C 
ATOM     17  C   UNL     1      -2.046  16.557  23.974  0.00  0.00    +0.000 C 
ATOM     18  C   UNL     1      -2.647  15.933  22.350  0.00  0.00    +0.000 C 
ATOM     19  C   UNL     1      -2.165  16.979  21.235  0.00  0.00    +0.000 C 
ENDROOT
BRANCH   1  21
ATOM     20  C   UNL     1      -1.145  11.175  18.682  0.00  0.00    +0.000 C 
ATOM     21  C   UNL     1      -0.784  10.965  19.956  0.00  0.00    +0.000 C 
ENDBRANCH   1  21
BRANCH   6  22
ATOM     22  O   UNL     1      -2.104  14.718  20.227  0.00  0.00    +0.000 OA
ATOM     23  H   UNL     1      -2.852  14.210  19.843  0.00  0.00    +0.000 HD
ENDBRANCH   6  22
BRANCH   9  24
ATOM     24  O   UNL     1      -5.153  12.238  21.381  0.00  0.00    +0.000 OA
BRANCH  24  25
ATOM     25  C   UNL     1      -5.962  11.882  20.361  0.00  0.00    +0.000 C 
ATOM     26  C   UNL     1      -7.317  11.500  20.881  0.00  0.00    +0.000 C 
ATOM     27  O   UNL     1      -5.669  11.925  19.175  0.00  0.00    +0.000 OA
ENDBRANCH  24  25
ENDBRANCH   9  24
BRANCH  10  28
ATOM     28  O   UNL     1      -5.127  13.652  23.470  0.00  0.00    +0.000 OA
BRANCH  28  29
ATOM     29  C   UNL     1      -6.163  13.001  24.016  0.00  0.00    +0.000 C 
ATOM     30  C   UNL     1      -7.364  13.935  23.942  0.00  0.00    +0.000 C 
ATOM     31  O   UNL     1      -6.163  11.882  24.482  0.00  0.00    +0.000 OA
ENDBRANCH  28  29
ENDBRANCH  10  28
BRANCH  17  32
ATOM     32  O   UNL     1      -0.661  16.936  24.080  0.00  0.00    +0.000 OA
BRANCH  32  33
ATOM     33  C   UNL     1       0.105  16.925  25.180  0.00  0.00    +0.000 C 
ATOM     34  C   UNL     1       1.026  18.117  25.098  0.00  0.00    +0.000 C 
ATOM     35  O   UNL     1       0.106  16.081  26.061  0.00  0.00    +0.000 OA
ENDBRANCH  32  33
ENDBRANCH  17  32
TORSDOF 8
ENDMDL
MODEL 7
REMARK VINA RESULT:      -5.8      7.532     10.485
REMARK  Name = 
REMARK  15 active torsions:
REMARK  status: ('A' for Active; 'I' for Inactive)
REMARK    1  A    between atoms: C_2  and  C_3
REMARK    2  A    between atoms: C_3  and  C_4
REMARK    3  A    between atoms: C_8  and  O_9
REMARK    4  A    between atoms: C_12  and  O_13
REMARK    5  A    between atoms: O_13  and  C_14
REMARK    6  A    between atoms: C_14  and  C_15
REMARK    7  A    between atoms: C_17  and  O_18
REMARK    8  A    between atoms: O_18  and  C_19
REMARK    9  A    between atoms: C_19  and  C_20
REMARK   10  A    between atoms: C_23  and  C_24
REMARK   11  A    between atoms: C_23  and  C_25
REMARK   12  A    between atoms: C_28  and  O_29
REMARK   13  A    between atoms: O_29  and  C_30
REMARK   14  A    between atoms: C_30  and  C_31
REMARK   15  A    between atoms: C_33  and  C_34
REMARK                            x       y       z     vdW  Elec       q    Type
REMARK                         _______ _______ _______ _____ _____    ______ ____
ROOT
ATOM      1  C   UNL     1      -0.591  10.765  19.147  0.00  0.00    +0.000 C 
ATOM      2  C   UNL     1      -0.230   9.909  20.368  0.00  0.00    +0.000 C 
ATOM      3  C   UNL     1       0.590  11.651  18.738  0.00  0.00    +0.000 C 
ATOM      4  C   UNL     1       0.705  12.798  19.723  0.00  0.00    +0.000 C 
ATOM      5  O   UNL     1       1.753  12.990  20.329  0.00  0.00    +0.000 OA
ATOM      6  C   UNL     1      -0.572  13.620  19.914  0.00  0.00    +0.000 C 
ATOM      7  C   UNL     1      -1.650  12.621  20.388  0.00  0.00    +0.000 C 
ATOM      8  O   UNL     1      -1.754  11.554  19.416  0.00  0.00    +0.000 OA
ATOM      9  C   UNL     1      -3.057  13.287  20.401  0.00  0.00    +0.000 C 
ATOM     10  C   UNL     1      -3.071  14.333  21.503  0.00  0.00    +0.000 C 
ATOM     11  C   UNL     1      -1.931  15.427  21.319  0.00  0.00    +0.000 C 
ATOM     12  C   UNL     1      -1.440  16.086  22.603  0.00  0.00    +0.000 C 
ATOM     13  C   UNL     1      -0.991  14.584  23.420  0.00  0.00    +0.000 C 
ATOM     14  C   UNL     1      -0.874  17.503  21.791  0.00  0.00    +0.000 C 
ATOM     15  C   UNL     1      -1.005  16.708  23.831  0.00  0.00    +0.000 C 
ATOM     16  C   UNL     1       0.609  16.444  23.438  0.00  0.00    +0.000 C 
ATOM     17  C   UNL     1       0.867  15.367  21.948  0.00  0.00    +0.000 C 
ATOM     18  C   UNL     1      -0.418  15.053  20.667  0.00  0.00    +0.000 C 
ATOM     19  C   UNL     1      -0.076  15.997  19.417  0.00  0.00    +0.000 C 
ENDROOT
BRANCH   1  21
ATOM     20  C   UNL     1      -2.122  10.092  17.186  0.00  0.00    +0.000 C 
ATOM     21  C   UNL     1      -1.029   9.943  17.947  0.00  0.00    +0.000 C 
ENDBRANCH   1  21
BRANCH   6  22
ATOM     22  O   UNL     1      -1.027  13.887  18.534  0.00  0.00    +0.000 OA
ATOM     23  H   UNL     1      -1.194  13.030  18.084  0.00  0.00    +0.000 HD
ENDBRANCH   6  22
BRANCH   9  24
ATOM     24  O   UNL     1      -4.056  12.293  20.785  0.00  0.00    +0.000 OA
BRANCH  24  25
ATOM     25  C   UNL     1      -5.299  12.366  20.263  0.00  0.00    +0.000 C 
ATOM     26  C   UNL     1      -5.256  12.117  18.783  0.00  0.00    +0.000 C 
ATOM     27  O   UNL     1      -6.328  12.540  20.901  0.00  0.00    +0.000 OA
ENDBRANCH  24  25
ENDBRANCH   9  24
BRANCH  10  28
ATOM     28  O   UNL     1      -2.895  13.492  22.676  0.00  0.00    +0.000 OA
BRANCH  28  29
ATOM     29  C   UNL     1      -3.810  13.135  23.586  0.00  0.00    +0.000 C 
ATOM     30  C   UNL     1      -4.713  14.343  23.803  0.00  0.00    +0.000 C 
ATOM     31  O   UNL     1      -3.917  12.062  24.139  0.00  0.00    +0.000 OA
ENDBRANCH  28  29
ENDBRANCH  10  28
BRANCH  17  32
ATOM     32  O   UNL     1       2.247  15.330  21.542  0.00  0.00    +0.000 OA
BRANCH  32  33
ATOM     33  C   UNL     1       3.328  15.515  22.312  0.00  0.00    +0.000 C 
ATOM     34  C   UNL     1       3.899  16.869  21.968  0.00  0.00    +0.000 C 
ATOM     35  O   UNL     1       3.805  14.720  23.105  0.00  0.00    +0.000 OA
ENDBRANCH  32  33
ENDBRANCH  17  32
TORSDOF 8
ENDMDL
MODEL 8
REMARK VINA RESULT:      -5.7      9.951     12.630
REMARK  Name = 
REMARK  15 active torsions:
REMARK  status: ('A' for Active; 'I' for Inactive)
REMARK    1  A    between atoms: C_2  and  C_3
REMARK    2  A    between atoms: C_3  and  C_4
REMARK    3  A    between atoms: C_8  and  O_9
REMARK    4  A    between atoms: C_12  and  O_13
REMARK    5  A    between atoms: O_13  and  C_14
REMARK    6  A    between atoms: C_14  and  C_15
REMARK    7  A    between atoms: C_17  and  O_18
REMARK    8  A    between atoms: O_18  and  C_19
REMARK    9  A    between atoms: C_19  and  C_20
REMARK   10  A    between atoms: C_23  and  C_24
REMARK   11  A    between atoms: C_23  and  C_25
REMARK   12  A    between atoms: C_28  and  O_29
REMARK   13  A    between atoms: O_29  and  C_30
REMARK   14  A    between atoms: C_30  and  C_31
REMARK   15  A    between atoms: C_33  and  C_34
REMARK                            x       y       z     vdW  Elec       q    Type
REMARK                         _______ _______ _______ _____ _____    ______ ____
ROOT
ATOM      1  C   UNL     1      -0.878  12.000  22.002  0.00  0.00    +0.000 C 
ATOM      2  C   UNL     1      -1.384  10.886  22.927  0.00  0.00    +0.000 C 
ATOM      3  C   UNL     1      -0.692  13.308  22.779  0.00  0.00    +0.000 C 
ATOM      4  C   UNL     1      -2.056  13.914  23.050  0.00  0.00    +0.000 C 
ATOM      5  O   UNL     1      -2.404  14.167  24.198  0.00  0.00    +0.000 OA
ATOM      6  C   UNL     1      -2.932  14.119  21.811  0.00  0.00    +0.000 C 
ATOM      7  C   UNL     1      -3.090  12.723  21.171  0.00  0.00    +0.000 C 
ATOM      8  O   UNL     1      -1.775  12.183  20.902  0.00  0.00    +0.000 OA
ATOM      9  C   UNL     1      -3.771  12.826  19.775  0.00  0.00    +0.000 C 
ATOM     10  C   UNL     1      -5.214  13.257  19.987  0.00  0.00    +0.000 C 
ATOM     11  C   UNL     1      -5.329  14.634  20.774  0.00  0.00    +0.000 C 
ATOM     12  C   UNL     1      -6.608  14.823  21.580  0.00  0.00    +0.000 C 
ATOM     13  C   UNL     1      -6.435  13.354  22.549  0.00  0.00    +0.000 C 
ATOM     14  C   UNL     1      -6.499  16.549  21.557  0.00  0.00    +0.000 C 
ATOM     15  C   UNL     1      -7.836  14.987  22.322  0.00  0.00    +0.000 C 
ATOM     16  C   UNL     1      -6.987  15.450  23.699  0.00  0.00    +0.000 C 
ATOM     17  C   UNL     1      -5.148  15.232  23.573  0.00  0.00    +0.000 C 
ATOM     18  C   UNL     1      -4.234  15.077  21.982  0.00  0.00    +0.000 C 
ATOM     19  C   UNL     1      -3.579  16.507  21.674  0.00  0.00    +0.000 C 
ENDROOT
BRANCH   1  21
ATOM     20  C   UNL     1       0.888  10.449  20.945  0.00  0.00    +0.000 C 
ATOM     21  C   UNL     1       0.425  11.655  21.302  0.00  0.00    +0.000 C 
ENDBRANCH   1  21
BRANCH   6  22
ATOM     22  O   UNL     1      -2.024  14.768  20.843  0.00  0.00    +0.000 OA
ATOM     23  H   UNL     1      -1.995  15.732  21.034  0.00  0.00    +0.000 HD
ENDBRANCH   6  22
BRANCH   9  24
ATOM     24  O   UNL     1      -3.838  11.497  19.172  0.00  0.00    +0.000 OA
BRANCH  24  25
ATOM     25  C   UNL     1      -3.040  11.203  18.124  0.00  0.00    +0.000 C 
ATOM     26  C   UNL     1      -3.376   9.844  17.581  0.00  0.00    +0.000 C 
ATOM     27  O   UNL     1      -2.208  11.953  17.633  0.00  0.00    +0.000 OA
ENDBRANCH  24  25
ENDBRANCH   9  24
BRANCH  10  28
ATOM     28  O   UNL     1      -5.730  12.114  20.722  0.00  0.00    +0.000 OA
BRANCH  28  29
ATOM     29  C   UNL     1      -6.733  11.293  20.382  0.00  0.00    +0.000 C 
ATOM     30  C   UNL     1      -7.360  11.860  19.115  0.00  0.00    +0.000 C 
ATOM     31  O   UNL     1      -7.085  10.286  20.958  0.00  0.00    +0.000 OA
ENDBRANCH  28  29
ENDBRANCH  10  28
BRANCH  17  32
ATOM     32  O   UNL     1      -4.459  15.818  24.692  0.00  0.00    +0.000 OA
BRANCH  32  33
ATOM     33  C   UNL     1      -4.416  17.112  25.038  0.00  0.00    +0.000 C 
ATOM     34  C   UNL     1      -2.967  17.475  25.247  0.00  0.00    +0.000 C 
ATOM     35  O   UNL     1      -5.370  17.853  25.211  0.00  0.00    +0.000 OA
ENDBRANCH  32  33
ENDBRANCH  17  32
TORSDOF 8
ENDMDL
MODEL 9
REMARK VINA RESULT:      -5.6      8.854     11.275
REMARK  Name = 
REMARK  15 active torsions:
REMARK  status: ('A' for Active; 'I' for Inactive)
REMARK    1  A    between atoms: C_2  and  C_3
REMARK    2  A    between atoms: C_3  and  C_4
REMARK    3  A    between atoms: C_8  and  O_9
REMARK    4  A    between atoms: C_12  and  O_13
REMARK    5  A    between atoms: O_13  and  C_14
REMARK    6  A    between atoms: C_14  and  C_15
REMARK    7  A    between atoms: C_17  and  O_18
REMARK    8  A    between atoms: O_18  and  C_19
REMARK    9  A    between atoms: C_19  and  C_20
REMARK   10  A    between atoms: C_23  and  C_24
REMARK   11  A    between atoms: C_23  and  C_25
REMARK   12  A    between atoms: C_28  and  O_29
REMARK   13  A    between atoms: O_29  and  C_30
REMARK   14  A    between atoms: C_30  and  C_31
REMARK   15  A    between atoms: C_33  and  C_34
REMARK                            x       y       z     vdW  Elec       q    Type
REMARK                         _______ _______ _______ _____ _____    ______ ____
ROOT
ATOM      1  C   UNL     1      -0.171  10.175  20.416  0.00  0.00    +0.000 C 
ATOM      2  C   UNL     1      -0.814   9.146  21.355  0.00  0.00    +0.000 C 
ATOM      3  C   UNL     1       0.632  11.209  21.213  0.00  0.00    +0.000 C 
ATOM      4  C   UNL     1      -0.333  12.167  21.883  0.00  0.00    +0.000 C 
ATOM      5  O   UNL     1      -0.303  12.327  23.098  0.00  0.00    +0.000 OA
ATOM      6  C   UNL     1      -1.337  12.840  20.943  0.00  0.00    +0.000 C 
ATOM      7  C   UNL     1      -2.115  11.692  20.264  0.00  0.00    +0.000 C 
ATOM      8  O   UNL     1      -1.170  10.811  19.614  0.00  0.00    +0.000 OA
ATOM      9  C   UNL     1      -3.012  12.235  19.113  0.00  0.00    +0.000 C 
ATOM     10  C   UNL     1      -4.124  13.064  19.735  0.00  0.00    +0.000 C 
ATOM     11  C   UNL     1      -3.568  14.258  20.628  0.00  0.00    +0.000 C 
ATOM     12  C   UNL     1      -4.482  14.712  21.758  0.00  0.00    +0.000 C 
ATOM     13  C   UNL     1      -4.623  13.128  22.530  0.00  0.00    +0.000 C 
ATOM     14  C   UNL     1      -3.783  16.291  21.838  0.00  0.00    +0.000 C 
ATOM     15  C   UNL     1      -5.374  15.138  22.812  0.00  0.00    +0.000 C 
ATOM     16  C   UNL     1      -4.130  15.073  23.943  0.00  0.00    +0.000 C 
ATOM     17  C   UNL     1      -2.563  14.302  23.313  0.00  0.00    +0.000 C 
ATOM     18  C   UNL     1      -2.146  14.124  21.529  0.00  0.00    +0.000 C 
ATOM     19  C   UNL     1      -1.117  15.298  21.167  0.00  0.00    +0.000 C 
ENDROOT
BRANCH   1  21
ATOM     20  C   UNL     1       1.061  10.019  18.158  0.00  0.00    +0.000 C 
ATOM     21  C   UNL     1       0.734   9.549  19.370  0.00  0.00    +0.000 C 
ENDBRANCH   1  21
BRANCH   6  22
ATOM     22  O   UNL     1      -0.502  13.313  19.821  0.00  0.00    +0.000 OA
ATOM     23  H   UNL     1      -0.913  14.120  19.438  0.00  0.00    +0.000 HD
ENDBRANCH   6  22
BRANCH   9  24
ATOM     24  O   UNL     1      -3.676  11.114  18.451  0.00  0.00    +0.000 OA
BRANCH  24  25
ATOM     25  C   UNL     1      -3.792  11.113  17.106  0.00  0.00    +0.000 C 
ATOM     26  C   UNL     1      -2.789  10.176  16.499  0.00  0.00    +0.000 C 
ATOM     27  O   UNL     1      -4.634  11.727  16.467  0.00  0.00    +0.000 OA
ENDBRANCH  24  25
ENDBRANCH   9  24
BRANCH  10  28
ATOM     28  O   UNL     1      -4.829  12.043  20.493  0.00  0.00    +0.000 OA
BRANCH  28  29
ATOM     29  C   UNL     1      -6.119  11.690  20.409  0.00  0.00    +0.000 C 
ATOM     30  C   UNL     1      -6.761  12.601  19.371  0.00  0.00    +0.000 C 
ATOM     31  O   UNL     1      -6.683  10.814  21.029  0.00  0.00    +0.000 OA
ENDBRANCH  28  29
ENDBRANCH  10  28
BRANCH  17  32
ATOM     32  O   UNL     1      -1.480  14.445  24.249  0.00  0.00    +0.000 OA
BRANCH  32  33
ATOM     33  C   UNL     1      -1.290  15.434  25.133  0.00  0.00    +0.000 C 
ATOM     34  C   UNL     1      -0.677  16.593  24.388  0.00  0.00    +0.000 C 
ATOM     35  O   UNL     1      -1.516  15.395  26.332  0.00  0.00    +0.000 OA
ENDBRANCH  32  33
ENDBRANCH  17  32
TORSDOF 8
ENDMDL
