MODEL 1
REMARK VINA RESULT:      -9.3      0.000      0.000
REMARK  Name = 
REMARK  7 active torsions:
REMARK  status: ('A' for Active; 'I' for Inactive)
REMARK    1  A    between atoms: C_2  and  C_3
REMARK    2  A    between atoms: C_3  and  C_4
REMARK    3  A    between atoms: C_18  and  C_19
REMARK    4  A    between atoms: C_22  and  C_23
REMARK    5  A    between atoms: C_24  and  C_25
REMARK    6  A    between atoms: C_33  and  C_34
REMARK    7  A    between atoms: C_34  and  O_35
REMARK                            x       y       z     vdW  Elec       q    Type
REMARK                         _______ _______ _______ _____ _____    ______ ____
ROOT
ATOM      1  O   UNL     1       7.661   5.476  15.381  0.00  0.00    +0.000 OA
ATOM      2  C   UNL     1       6.457   5.609  15.600  0.00  0.00    +0.000 C 
ATOM      3  N   UNL     1       5.981   6.487  16.586  0.00  0.00    +0.000 N 
ATOM      4  C   UNL     1       6.938   7.109  17.495  0.00  0.00    +0.000 C 
ATOM      5  C   UNL     1       7.673   6.109  18.385  0.00  0.00    +0.000 C 
ATOM      6  C   UNL     1       6.848   5.402  19.467  0.00  0.00    +0.000 C 
ATOM      7  C   UNL     1       5.646   4.533  19.035  0.00  0.00    +0.000 C 
ATOM      8  N   UNL     1       4.427   5.335  18.979  0.00  0.00    +0.000 NA
ATOM      9  C   UNL     1       3.967   5.588  17.551  0.00  0.00    +0.000 C 
ATOM     10  C   UNL     1       4.570   6.787  16.843  0.00  0.00    +0.000 C 
ATOM     11  C   UNL     1       2.526   5.663  18.164  0.00  0.00    +0.000 C 
ATOM     12  C   UNL     1       3.142   4.514  19.060  0.00  0.00    +0.000 C 
ENDROOT
BRANCH  11  13
ATOM     13  C   UNL     1       2.150   7.109  18.746  0.00  0.00    +0.000 A 
ATOM     14  C   UNL     1       1.970   7.303  20.126  0.00  0.00    +0.000 A 
ATOM     15  C   UNL     1       1.404   8.478  20.621  0.00  0.00    +0.000 A 
ATOM     16  C   UNL     1       1.041   9.513  19.752  0.00  0.00    +0.000 A 
ATOM     17  C   UNL     1       1.243   9.366  18.390  0.00  0.00    +0.000 A 
ATOM     18  C   UNL     1       1.787   8.185  17.908  0.00  0.00    +0.000 A 
BRANCH  16  19
ATOM     19  C   UNL     1       0.353  10.710  20.216  0.00  0.00    +0.000 C 
ATOM     20  C   UNL     1      -0.429  10.689  21.300  0.00  0.00    +0.000 C 
BRANCH  20  21
ATOM     21  C   UNL     1      -1.190  11.873  21.659  0.00  0.00    +0.000 A 
ATOM     22  C   UNL     1      -1.298  12.909  20.730  0.00  0.00    +0.000 A 
ATOM     23  C   UNL     1      -1.993  14.064  21.064  0.00  0.00    +0.000 A 
ATOM     24  C   UNL     1      -2.579  14.183  22.324  0.00  0.00    +0.000 A 
ATOM     25  C   UNL     1      -2.463  13.148  23.255  0.00  0.00    +0.000 A 
ATOM     26  C   UNL     1      -1.764  11.991  22.924  0.00  0.00    +0.000 A 
ENDBRANCH  20  21
ENDBRANCH  16  19
ENDBRANCH  11  13
BRANCH   2  27
ATOM     27  C   UNL     1       5.417   4.724  14.919  0.00  0.00    +0.000 C 
BRANCH  27  28
ATOM     28  C   UNL     1       5.723   4.115  13.583  0.00  0.00    +0.000 A 
ATOM     29  C   UNL     1       4.707   3.451  12.886  0.00  0.00    +0.000 A 
ATOM     30  C   UNL     1       5.009   2.737  11.735  0.00  0.00    +0.000 A 
ATOM     31  C   UNL     1       6.328   2.708  11.318  0.00  0.00    +0.000 A 
ATOM     32  N   UNL     1       7.339   3.321  11.970  0.00  0.00    +0.000 NA
ATOM     33  C   UNL     1       7.017   4.008  13.088  0.00  0.00    +0.000 A 
ENDBRANCH  27  28
ENDBRANCH   2  27
BRANCH  12  34
ATOM     34  C   UNL     1       2.520   4.250  20.419  0.00  0.00    +0.000 C 
BRANCH  34  35
ATOM     35  O   UNL     1       3.025   3.029  20.953  0.00  0.00    +0.000 OA
ATOM     36  H   UNL     1       2.252   2.482  21.179  0.00  0.00    +0.000 HD
ENDBRANCH  34  35
ENDBRANCH  12  34
TORSDOF 7
ENDMDL
MODEL 2
REMARK VINA RESULT:      -9.0      0.900      1.284
REMARK  Name = 
REMARK  7 active torsions:
REMARK  status: ('A' for Active; 'I' for Inactive)
REMARK    1  A    between atoms: C_2  and  C_3
REMARK    2  A    between atoms: C_3  and  C_4
REMARK    3  A    between atoms: C_18  and  C_19
REMARK    4  A    between atoms: C_22  and  C_23
REMARK    5  A    between atoms: C_24  and  C_25
REMARK    6  A    between atoms: C_33  and  C_34
REMARK    7  A    between atoms: C_34  and  O_35
REMARK                            x       y       z     vdW  Elec       q    Type
REMARK                         _______ _______ _______ _____ _____    ______ ____
ROOT
ATOM      1  O   UNL     1       7.659   5.398  15.363  0.00  0.00    +0.000 OA
ATOM      2  C   UNL     1       6.460   5.552  15.592  0.00  0.00    +0.000 C 
ATOM      3  N   UNL     1       6.005   6.489  16.534  0.00  0.00    +0.000 N 
ATOM      4  C   UNL     1       6.981   7.153  17.391  0.00  0.00    +0.000 C 
ATOM      5  C   UNL     1       7.722   6.200  18.325  0.00  0.00    +0.000 C 
ATOM      6  C   UNL     1       6.909   5.561  19.458  0.00  0.00    +0.000 C 
ATOM      7  C   UNL     1       5.694   4.679  19.094  0.00  0.00    +0.000 C 
ATOM      8  N   UNL     1       4.480   5.486  19.011  0.00  0.00    +0.000 NA
ATOM      9  C   UNL     1       4.000   5.662  17.578  0.00  0.00    +0.000 C 
ATOM     10  C   UNL     1       4.600   6.814  16.795  0.00  0.00    +0.000 C 
ATOM     11  C   UNL     1       2.570   5.783  18.207  0.00  0.00    +0.000 C 
ATOM     12  C   UNL     1       3.191   4.681  19.158  0.00  0.00    +0.000 C 
ENDROOT
BRANCH  11  13
ATOM     13  C   UNL     1       2.213   7.262  18.713  0.00  0.00    +0.000 A 
ATOM     14  C   UNL     1       1.884   7.502  20.057  0.00  0.00    +0.000 A 
ATOM     15  C   UNL     1       1.334   8.720  20.459  0.00  0.00    +0.000 A 
ATOM     16  C   UNL     1       1.136   9.750  19.533  0.00  0.00    +0.000 A 
ATOM     17  C   UNL     1       1.486   9.556  18.208  0.00  0.00    +0.000 A 
ATOM     18  C   UNL     1       2.013   8.335  17.817  0.00  0.00    +0.000 A 
BRANCH  16  19
ATOM     19  C   UNL     1       0.469  10.995  19.889  0.00  0.00    +0.000 C 
ATOM     20  C   UNL     1       0.188  11.923  18.969  0.00  0.00    +0.000 C 
BRANCH  20  21
ATOM     21  C   UNL     1      -0.368  13.200  19.383  0.00  0.00    +0.000 A 
ATOM     22  C   UNL     1       0.051  14.359  18.728  0.00  0.00    +0.000 A 
ATOM     23  C   UNL     1      -0.443  15.593  19.130  0.00  0.00    +0.000 A 
ATOM     24  C   UNL     1      -1.355  15.669  20.183  0.00  0.00    +0.000 A 
ATOM     25  C   UNL     1      -1.766  14.508  20.842  0.00  0.00    +0.000 A 
ATOM     26  C   UNL     1      -1.270  13.270  20.444  0.00  0.00    +0.000 A 
ENDBRANCH  20  21
ENDBRANCH  16  19
ENDBRANCH  11  13
BRANCH   2  27
ATOM     27  C   UNL     1       5.403   4.640  14.978  0.00  0.00    +0.000 C 
BRANCH  27  28
ATOM     28  C   UNL     1       5.615   4.081  13.602  0.00  0.00    +0.000 A 
ATOM     29  C   UNL     1       4.504   3.703  12.839  0.00  0.00    +0.000 A 
ATOM     30  C   UNL     1       4.685   3.029  11.640  0.00  0.00    +0.000 A 
ATOM     31  C   UNL     1       5.981   2.752  11.241  0.00  0.00    +0.000 A 
ATOM     32  N   UNL     1       7.077   3.084  11.955  0.00  0.00    +0.000 NA
ATOM     33  C   UNL     1       6.873   3.738  13.120  0.00  0.00    +0.000 A 
ENDBRANCH  27  28
ENDBRANCH   2  27
BRANCH  12  34
ATOM     34  C   UNL     1       2.588   4.499  20.538  0.00  0.00    +0.000 C 
BRANCH  34  35
ATOM     35  O   UNL     1       2.612   3.120  20.899  0.00  0.00    +0.000 OA
ATOM     36  H   UNL     1       3.528   2.916  21.158  0.00  0.00    +0.000 HD
ENDBRANCH  34  35
ENDBRANCH  12  34
TORSDOF 7
ENDMDL
MODEL 3
REMARK VINA RESULT:      -9.0      0.541      1.135
REMARK  Name = 
REMARK  7 active torsions:
REMARK  status: ('A' for Active; 'I' for Inactive)
REMARK    1  A    between atoms: C_2  and  C_3
REMARK    2  A    between atoms: C_3  and  C_4
REMARK    3  A    between atoms: C_18  and  C_19
REMARK    4  A    between atoms: C_22  and  C_23
REMARK    5  A    between atoms: C_24  and  C_25
REMARK    6  A    between atoms: C_33  and  C_34
REMARK    7  A    between atoms: C_34  and  O_35
REMARK                            x       y       z     vdW  Elec       q    Type
REMARK                         _______ _______ _______ _____ _____    ______ ____
ROOT
ATOM      1  O   UNL     1       7.683   5.524  15.524  0.00  0.00    +0.000 OA
ATOM      2  C   UNL     1       6.476   5.665  15.723  0.00  0.00    +0.000 C 
ATOM      3  N   UNL     1       5.989   6.548  16.700  0.00  0.00    +0.000 N 
ATOM      4  C   UNL     1       6.935   7.164  17.624  0.00  0.00    +0.000 C 
ATOM      5  C   UNL     1       7.648   6.160  18.527  0.00  0.00    +0.000 C 
ATOM      6  C   UNL     1       6.800   5.459  19.596  0.00  0.00    +0.000 C 
ATOM      7  C   UNL     1       5.600   4.598  19.145  0.00  0.00    +0.000 C 
ATOM      8  N   UNL     1       4.388   5.408  19.067  0.00  0.00    +0.000 NA
ATOM      9  C   UNL     1       3.954   5.663  17.632  0.00  0.00    +0.000 C 
ATOM     10  C   UNL     1       4.576   6.858  16.933  0.00  0.00    +0.000 C 
ATOM     11  C   UNL     1       2.503   5.749  18.220  0.00  0.00    +0.000 C 
ATOM     12  C   UNL     1       3.096   4.596  19.128  0.00  0.00    +0.000 C 
ENDROOT
BRANCH  11  13
ATOM     13  C   UNL     1       2.127   7.197  18.795  0.00  0.00    +0.000 A 
ATOM     14  C   UNL     1       1.855   7.380  20.161  0.00  0.00    +0.000 A 
ATOM     15  C   UNL     1       1.289   8.565  20.631  0.00  0.00    +0.000 A 
ATOM     16  C   UNL     1       1.017   9.620  19.754  0.00  0.00    +0.000 A 
ATOM     17  C   UNL     1       1.311   9.484  18.407  0.00  0.00    +0.000 A 
ATOM     18  C   UNL     1       1.854   8.294  17.948  0.00  0.00    +0.000 A 
BRANCH  16  19
ATOM     19  C   UNL     1       0.332  10.831  20.185  0.00  0.00    +0.000 C 
ATOM     20  C   UNL     1      -0.357  10.872  21.331  0.00  0.00    +0.000 C 
BRANCH  20  21
ATOM     21  C   UNL     1      -1.123  12.060  21.665  0.00  0.00    +0.000 A 
ATOM     22  C   UNL     1      -1.100  12.523  22.982  0.00  0.00    +0.000 A 
ATOM     23  C   UNL     1      -1.852  13.639  23.331  0.00  0.00    +0.000 A 
ATOM     24  C   UNL     1      -2.623  14.289  22.367  0.00  0.00    +0.000 A 
ATOM     25  C   UNL     1      -2.649  13.817  21.053  0.00  0.00    +0.000 A 
ATOM     26  C   UNL     1      -1.901  12.698  20.701  0.00  0.00    +0.000 A 
ENDBRANCH  20  21
ENDBRANCH  16  19
ENDBRANCH  11  13
BRANCH   2  27
ATOM     27  C   UNL     1       5.442   4.787  15.025  0.00  0.00    +0.000 C 
BRANCH  27  28
ATOM     28  C   UNL     1       5.805   4.083  13.753  0.00  0.00    +0.000 A 
ATOM     29  C   UNL     1       7.046   4.341  13.158  0.00  0.00    +0.000 A 
ATOM     30  C   UNL     1       7.329   3.833  11.898  0.00  0.00    +0.000 A 
ATOM     31  C   UNL     1       6.354   3.080  11.269  0.00  0.00    +0.000 A 
ATOM     32  N   UNL     1       5.140   2.821  11.800  0.00  0.00    +0.000 NA
ATOM     33  C   UNL     1       4.890   3.329  13.027  0.00  0.00    +0.000 A 
ENDBRANCH  27  28
ENDBRANCH   2  27
BRANCH  12  34
ATOM     34  C   UNL     1       2.449   4.337  20.476  0.00  0.00    +0.000 C 
BRANCH  34  35
ATOM     35  O   UNL     1       2.868   3.071  20.979  0.00  0.00    +0.000 OA
ATOM     36  H   UNL     1       3.423   3.250  21.757  0.00  0.00    +0.000 HD
ENDBRANCH  34  35
ENDBRANCH  12  34
TORSDOF 7
ENDMDL
MODEL 4
REMARK VINA RESULT:      -8.6      4.416     11.343
REMARK  Name = 
REMARK  7 active torsions:
REMARK  status: ('A' for Active; 'I' for Inactive)
REMARK    1  A    between atoms: C_2  and  C_3
REMARK    2  A    between atoms: C_3  and  C_4
REMARK    3  A    between atoms: C_18  and  C_19
REMARK    4  A    between atoms: C_22  and  C_23
REMARK    5  A    between atoms: C_24  and  C_25
REMARK    6  A    between atoms: C_33  and  C_34
REMARK    7  A    between atoms: C_34  and  O_35
REMARK                            x       y       z     vdW  Elec       q    Type
REMARK                         _______ _______ _______ _____ _____    ______ ____
ROOT
ATOM      1  O   UNL     1       0.103  15.343  22.359  0.00  0.00    +0.000 OA
ATOM      2  C   UNL     1      -0.032  14.125  22.252  0.00  0.00    +0.000 C 
ATOM      3  N   UNL     1       0.755  13.372  21.366  0.00  0.00    +0.000 N 
ATOM      4  C   UNL     1       1.614  14.075  20.419  0.00  0.00    +0.000 C 
ATOM      5  C   UNL     1       0.845  14.924  19.410  0.00  0.00    +0.000 C 
ATOM      6  C   UNL     1       0.014  14.176  18.360  0.00  0.00    +0.000 C 
ATOM      7  C   UNL     1      -1.122  13.244  18.838  0.00  0.00    +0.000 C 
ATOM      8  N   UNL     1      -0.621  11.889  19.047  0.00  0.00    +0.000 NA
ATOM      9  C   UNL     1      -0.536  11.524  20.522  0.00  0.00    +0.000 C 
ATOM     10  C   UNL     1       0.738  11.912  21.249  0.00  0.00    +0.000 C 
ATOM     11  C   UNL     1      -0.765  10.051  20.040  0.00  0.00    +0.000 C 
ATOM     12  C   UNL     1      -1.707  10.817  19.025  0.00  0.00    +0.000 C 
ENDROOT
BRANCH  11  13
ATOM     13  C   UNL     1       0.580   9.309  19.582  0.00  0.00    +0.000 A 
ATOM     14  C   UNL     1       1.101   9.497  18.291  0.00  0.00    +0.000 A 
ATOM     15  C   UNL     1       2.116   8.677  17.796  0.00  0.00    +0.000 A 
ATOM     16  C   UNL     1       2.670   7.671  18.595  0.00  0.00    +0.000 A 
ATOM     17  C   UNL     1       2.204   7.488  19.886  0.00  0.00    +0.000 A 
ATOM     18  C   UNL     1       1.181   8.294  20.359  0.00  0.00    +0.000 A 
BRANCH  16  19
ATOM     19  C   UNL     1       3.655   6.728  18.083  0.00  0.00    +0.000 C 
ATOM     20  C   UNL     1       4.481   7.057  17.084  0.00  0.00    +0.000 C 
BRANCH  20  21
ATOM     21  C   UNL     1       5.366   6.050  16.524  0.00  0.00    +0.000 A 
ATOM     22  C   UNL     1       6.335   5.476  17.348  0.00  0.00    +0.000 A 
ATOM     23  C   UNL     1       7.213   4.535  16.825  0.00  0.00    +0.000 A 
ATOM     24  C   UNL     1       7.123   4.169  15.483  0.00  0.00    +0.000 A 
ATOM     25  C   UNL     1       6.157   4.752  14.658  0.00  0.00    +0.000 A 
ATOM     26  C   UNL     1       5.279   5.697  15.179  0.00  0.00    +0.000 A 
ENDBRANCH  20  21
ENDBRANCH  16  19
ENDBRANCH  11  13
BRANCH   2  27
ATOM     27  C   UNL     1      -1.156  13.378  22.963  0.00  0.00    +0.000 C 
BRANCH  27  28
ATOM     28  C   UNL     1      -2.543  13.407  22.393  0.00  0.00    +0.000 A 
ATOM     29  C   UNL     1      -2.944  14.507  21.626  0.00  0.00    +0.000 A 
ATOM     30  C   UNL     1      -4.270  14.632  21.236  0.00  0.00    +0.000 A 
ATOM     31  C   UNL     1      -5.157  13.646  21.629  0.00  0.00    +0.000 A 
ATOM     32  N   UNL     1      -4.814  12.578  22.381  0.00  0.00    +0.000 NA
ATOM     33  C   UNL     1      -3.518  12.482  22.749  0.00  0.00    +0.000 A 
ENDBRANCH  27  28
ENDBRANCH   2  27
BRANCH  12  34
ATOM     34  C   UNL     1      -2.049  10.140  17.711  0.00  0.00    +0.000 C 
BRANCH  34  35
ATOM     35  O   UNL     1      -3.463  10.125  17.528  0.00  0.00    +0.000 OA
ATOM     36  H   UNL     1      -3.702   9.215  17.277  0.00  0.00    +0.000 HD
ENDBRANCH  34  35
ENDBRANCH  12  34
TORSDOF 7
ENDMDL
MODEL 5
REMARK VINA RESULT:      -8.6      1.062      1.736
REMARK  Name = 
REMARK  7 active torsions:
REMARK  status: ('A' for Active; 'I' for Inactive)
REMARK    1  A    between atoms: C_2  and  C_3
REMARK    2  A    between atoms: C_3  and  C_4
REMARK    3  A    between atoms: C_18  and  C_19
REMARK    4  A    between atoms: C_22  and  C_23
REMARK    5  A    between atoms: C_24  and  C_25
REMARK    6  A    between atoms: C_33  and  C_34
REMARK    7  A    between atoms: C_34  and  O_35
REMARK                            x       y       z     vdW  Elec       q    Type
REMARK                         _______ _______ _______ _____ _____    ______ ____
ROOT
ATOM      1  O   UNL     1       7.693   5.395  15.440  0.00  0.00    +0.000 OA
ATOM      2  C   UNL     1       6.489   5.539  15.653  0.00  0.00    +0.000 C 
ATOM      3  N   UNL     1       6.012   6.496  16.562  0.00  0.00    +0.000 N 
ATOM      4  C   UNL     1       6.970   7.198  17.410  0.00  0.00    +0.000 C 
ATOM      5  C   UNL     1       7.714   6.281  18.379  0.00  0.00    +0.000 C 
ATOM      6  C   UNL     1       6.897   5.665  19.522  0.00  0.00    +0.000 C 
ATOM      7  C   UNL     1       5.697   4.756  19.170  0.00  0.00    +0.000 C 
ATOM      8  N   UNL     1       4.474   5.545  19.052  0.00  0.00    +0.000 NA
ATOM      9  C   UNL     1       4.007   5.674  17.609  0.00  0.00    +0.000 C 
ATOM     10  C   UNL     1       4.601   6.811  16.799  0.00  0.00    +0.000 C 
ATOM     11  C   UNL     1       2.569   5.793  18.220  0.00  0.00    +0.000 C 
ATOM     12  C   UNL     1       3.194   4.728  19.208  0.00  0.00    +0.000 C 
ENDROOT
BRANCH  11  13
ATOM     13  C   UNL     1       2.187   7.282  18.679  0.00  0.00    +0.000 A 
ATOM     14  C   UNL     1       1.922   7.572  20.027  0.00  0.00    +0.000 A 
ATOM     15  C   UNL     1       1.351   8.788  20.404  0.00  0.00    +0.000 A 
ATOM     16  C   UNL     1       1.069   9.768  19.447  0.00  0.00    +0.000 A 
ATOM     17  C   UNL     1       1.356   9.525  18.114  0.00  0.00    +0.000 A 
ATOM     18  C   UNL     1       1.904   8.305  17.748  0.00  0.00    +0.000 A 
BRANCH  16  19
ATOM     19  C   UNL     1       0.379  11.006  19.783  0.00  0.00    +0.000 C 
ATOM     20  C   UNL     1       0.528  12.110  19.044  0.00  0.00    +0.000 C 
BRANCH  20  21
ATOM     21  C   UNL     1      -0.082  13.354  19.481  0.00  0.00    +0.000 A 
ATOM     22  C   UNL     1      -0.974  13.322  20.554  0.00  0.00    +0.000 A 
ATOM     23  C   UNL     1      -1.594  14.494  20.968  0.00  0.00    +0.000 A 
ATOM     24  C   UNL     1      -1.323  15.695  20.312  0.00  0.00    +0.000 A 
ATOM     25  C   UNL     1      -0.436  15.721  19.233  0.00  0.00    +0.000 A 
ATOM     26  C   UNL     1       0.184  14.548  18.814  0.00  0.00    +0.000 A 
ENDBRANCH  20  21
ENDBRANCH  16  19
ENDBRANCH  11  13
BRANCH   2  27
ATOM     27  C   UNL     1       5.451   4.595  15.054  0.00  0.00    +0.000 C 
BRANCH  27  28
ATOM     28  C   UNL     1       5.706   3.964  13.718  0.00  0.00    +0.000 A 
ATOM     29  C   UNL     1       6.958   4.126  13.113  0.00  0.00    +0.000 A 
ATOM     30  C   UNL     1       7.157   3.698  11.808  0.00  0.00    +0.000 A 
ATOM     31  C   UNL     1       6.089   3.120  11.145  0.00  0.00    +0.000 A 
ATOM     32  N   UNL     1       4.863   2.960  11.687  0.00  0.00    +0.000 NA
ATOM     33  C   UNL     1       4.695   3.387  12.958  0.00  0.00    +0.000 A 
ENDBRANCH  27  28
ENDBRANCH   2  27
BRANCH  12  34
ATOM     34  C   UNL     1       2.579   4.577  20.587  0.00  0.00    +0.000 C 
BRANCH  34  35
ATOM     35  O   UNL     1       1.841   3.360  20.658  0.00  0.00    +0.000 OA
ATOM     36  H   UNL     1       0.900   3.605  20.674  0.00  0.00    +0.000 HD
ENDBRANCH  34  35
ENDBRANCH  12  34
TORSDOF 7
ENDMDL
MODEL 6
REMARK VINA RESULT:      -8.6      4.496     11.603
REMARK  Name = 
REMARK  7 active torsions:
REMARK  status: ('A' for Active; 'I' for Inactive)
REMARK    1  A    between atoms: C_2  and  C_3
REMARK    2  A    between atoms: C_3  and  C_4
REMARK    3  A    between atoms: C_18  and  C_19
REMARK    4  A    between atoms: C_22  and  C_23
REMARK    5  A    between atoms: C_24  and  C_25
REMARK    6  A    between atoms: C_33  and  C_34
REMARK    7  A    between atoms: C_34  and  O_35
REMARK                            x       y       z     vdW  Elec       q    Type
REMARK                         _______ _______ _______ _____ _____    ______ ____
ROOT
ATOM      1  O   UNL     1       0.105  15.262  22.451  0.00  0.00    +0.000 OA
ATOM      2  C   UNL     1      -0.048  14.050  22.299  0.00  0.00    +0.000 C 
ATOM      3  N   UNL     1       0.745  13.314  21.404  0.00  0.00    +0.000 N 
ATOM      4  C   UNL     1       1.636  14.035  20.501  0.00  0.00    +0.000 C 
ATOM      5  C   UNL     1       0.903  14.931  19.506  0.00  0.00    +0.000 C 
ATOM      6  C   UNL     1       0.082  14.234  18.413  0.00  0.00    +0.000 C 
ATOM      7  C   UNL     1      -1.079  13.306  18.835  0.00  0.00    +0.000 C 
ATOM      8  N   UNL     1      -0.605  11.936  19.007  0.00  0.00    +0.000 NA
ATOM      9  C   UNL     1      -0.558  11.520  20.469  0.00  0.00    +0.000 C 
ATOM     10  C   UNL     1       0.706  11.860  21.236  0.00  0.00    +0.000 C 
ATOM     11  C   UNL     1      -0.801  10.068  19.932  0.00  0.00    +0.000 C 
ATOM     12  C   UNL     1      -1.708  10.884  18.925  0.00  0.00    +0.000 C 
ENDROOT
BRANCH  11  13
ATOM     13  C   UNL     1       0.541   9.318  19.476  0.00  0.00    +0.000 A 
ATOM     14  C   UNL     1       1.069   9.509  18.189  0.00  0.00    +0.000 A 
ATOM     15  C   UNL     1       2.080   8.685  17.695  0.00  0.00    +0.000 A 
ATOM     16  C   UNL     1       2.624   7.671  18.491  0.00  0.00    +0.000 A 
ATOM     17  C   UNL     1       2.150   7.485  19.779  0.00  0.00    +0.000 A 
ATOM     18  C   UNL     1       1.131   8.296  20.252  0.00  0.00    +0.000 A 
BRANCH  16  19
ATOM     19  C   UNL     1       3.605   6.724  17.979  0.00  0.00    +0.000 C 
ATOM     20  C   UNL     1       4.613   7.120  17.195  0.00  0.00    +0.000 C 
BRANCH  20  21
ATOM     21  C   UNL     1       5.499   6.129  16.610  0.00  0.00    +0.000 A 
ATOM     22  C   UNL     1       5.280   5.730  15.290  0.00  0.00    +0.000 A 
ATOM     23  C   UNL     1       6.095   4.759  14.721  0.00  0.00    +0.000 A 
ATOM     24  C   UNL     1       7.126   4.190  15.468  0.00  0.00    +0.000 A 
ATOM     25  C   UNL     1       7.337   4.585  16.791  0.00  0.00    +0.000 A 
ATOM     26  C   UNL     1       6.520   5.555  17.365  0.00  0.00    +0.000 A 
ENDBRANCH  20  21
ENDBRANCH  16  19
ENDBRANCH  11  13
BRANCH   2  27
ATOM     27  C   UNL     1      -1.200  13.299  22.960  0.00  0.00    +0.000 C 
BRANCH  27  28
ATOM     28  C   UNL     1      -2.578  13.888  22.940  0.00  0.00    +0.000 A 
ATOM     29  C   UNL     1      -3.220  14.084  21.711  0.00  0.00    +0.000 A 
ATOM     30  C   UNL     1      -4.418  14.783  21.659  0.00  0.00    +0.000 A 
ATOM     31  C   UNL     1      -4.938  15.267  22.847  0.00  0.00    +0.000 A 
ATOM     32  N   UNL     1      -4.343  15.114  24.049  0.00  0.00    +0.000 NA
ATOM     33  C   UNL     1      -3.176  14.432  24.071  0.00  0.00    +0.000 A 
ENDBRANCH  27  28
ENDBRANCH   2  27
BRANCH  12  34
ATOM     34  C   UNL     1      -2.034  10.260  17.581  0.00  0.00    +0.000 C 
BRANCH  34  35
ATOM     35  O   UNL     1      -3.433  10.003  17.492  0.00  0.00    +0.000 OA
ATOM     36  H   UNL     1      -3.825  10.300  18.331  0.00  0.00    +0.000 HD
ENDBRANCH  34  35
ENDBRANCH  12  34
TORSDOF 7
ENDMDL
MODEL 7
REMARK VINA RESULT:      -8.5      4.678     11.818
REMARK  Name = 
REMARK  7 active torsions:
REMARK  status: ('A' for Active; 'I' for Inactive)
REMARK    1  A    between atoms: C_2  and  C_3
REMARK    2  A    between atoms: C_3  and  C_4
REMARK    3  A    between atoms: C_18  and  C_19
REMARK    4  A    between atoms: C_22  and  C_23
REMARK    5  A    between atoms: C_24  and  C_25
REMARK    6  A    between atoms: C_33  and  C_34
REMARK    7  A    between atoms: C_34  and  O_35
REMARK                            x       y       z     vdW  Elec       q    Type
REMARK                         _______ _______ _______ _____ _____    ______ ____
ROOT
ATOM      1  O   UNL     1      -1.232  14.513  23.556  0.00  0.00    +0.000 OA
ATOM      2  C   UNL     1      -1.285  13.378  23.083  0.00  0.00    +0.000 C 
ATOM      3  N   UNL     1      -0.283  12.889  22.230  0.00  0.00    +0.000 N 
ATOM      4  C   UNL     1       0.739  13.811  21.745  0.00  0.00    +0.000 C 
ATOM      5  C   UNL     1       0.185  14.929  20.865  0.00  0.00    +0.000 C 
ATOM      6  C   UNL     1      -0.350  14.528  19.484  0.00  0.00    +0.000 C 
ATOM      7  C   UNL     1      -1.523  13.526  19.404  0.00  0.00    +0.000 C 
ATOM      8  N   UNL     1      -1.023  12.156  19.334  0.00  0.00    +0.000 NA
ATOM      9  C   UNL     1      -1.264  11.387  20.625  0.00  0.00    +0.000 C 
ATOM     10  C   UNL     1      -0.209  11.522  21.706  0.00  0.00    +0.000 C 
ATOM     11  C   UNL     1      -1.311  10.116  19.709  0.00  0.00    +0.000 C 
ATOM     12  C   UNL     1      -2.027  11.160  18.760  0.00  0.00    +0.000 C 
ENDROOT
BRANCH  11  13
ATOM     13  C   UNL     1       0.135   9.502  19.386  0.00  0.00    +0.000 A 
ATOM     14  C   UNL     1       0.704   9.636  18.109  0.00  0.00    +0.000 A 
ATOM     15  C   UNL     1       1.833   8.904  17.742  0.00  0.00    +0.000 A 
ATOM     16  C   UNL     1       2.453   8.046  18.658  0.00  0.00    +0.000 A 
ATOM     17  C   UNL     1       1.937   7.923  19.937  0.00  0.00    +0.000 A 
ATOM     18  C   UNL     1       0.803   8.641  20.284  0.00  0.00    +0.000 A 
BRANCH  16  19
ATOM     19  C   UNL     1       3.567   7.186  18.284  0.00  0.00    +0.000 C 
ATOM     20  C   UNL     1       4.133   7.265  17.075  0.00  0.00    +0.000 C 
BRANCH  20  21
ATOM     21  C   UNL     1       5.163   6.311  16.701  0.00  0.00    +0.000 A 
ATOM     22  C   UNL     1       6.096   5.920  17.663  0.00  0.00    +0.000 A 
ATOM     23  C   UNL     1       7.108   5.032  17.318  0.00  0.00    +0.000 A 
ATOM     24  C   UNL     1       7.187   4.537  16.017  0.00  0.00    +0.000 A 
ATOM     25  C   UNL     1       6.256   4.938  15.055  0.00  0.00    +0.000 A 
ATOM     26  C   UNL     1       5.243   5.828  15.396  0.00  0.00    +0.000 A 
ENDBRANCH  20  21
ENDBRANCH  16  19
ENDBRANCH  11  13
BRANCH   2  27
ATOM     27  C   UNL     1      -2.508  12.487  23.274  0.00  0.00    +0.000 C 
BRANCH  27  28
ATOM     28  C   UNL     1      -3.881  13.070  23.125  0.00  0.00    +0.000 A 
ATOM     29  C   UNL     1      -4.843  12.816  24.109  0.00  0.00    +0.000 A 
ATOM     30  C   UNL     1      -6.161  13.201  23.906  0.00  0.00    +0.000 A 
ATOM     31  C   UNL     1      -6.475  13.831  22.714  0.00  0.00    +0.000 A 
ATOM     32  N   UNL     1      -5.581  14.080  21.734  0.00  0.00    +0.000 NA
ATOM     33  C   UNL     1      -4.306  13.693  21.957  0.00  0.00    +0.000 A 
ENDBRANCH  27  28
ENDBRANCH   2  27
BRANCH  12  34
ATOM     34  C   UNL     1      -2.029  10.891  17.267  0.00  0.00    +0.000 C 
BRANCH  34  35
ATOM     35  O   UNL     1      -2.840  11.857  16.602  0.00  0.00    +0.000 OA
ATOM     36  H   UNL     1      -2.257  12.604  16.379  0.00  0.00    +0.000 HD
ENDBRANCH  34  35
ENDBRANCH  12  34
TORSDOF 7
ENDMDL
MODEL 8
REMARK VINA RESULT:      -8.4      4.661     11.774
REMARK  Name = 
REMARK  7 active torsions:
REMARK  status: ('A' for Active; 'I' for Inactive)
REMARK    1  A    between atoms: C_2  and  C_3
REMARK    2  A    between atoms: C_3  and  C_4
REMARK    3  A    between atoms: C_18  and  C_19
REMARK    4  A    between atoms: C_22  and  C_23
REMARK    5  A    between atoms: C_24  and  C_25
REMARK    6  A    between atoms: C_33  and  C_34
REMARK    7  A    between atoms: C_34  and  O_35
REMARK                            x       y       z     vdW  Elec       q    Type
REMARK                         _______ _______ _______ _____ _____    ______ ____
ROOT
ATOM      1  O   UNL     1      -1.250  14.526  23.698  0.00  0.00    +0.000 OA
ATOM      2  C   UNL     1      -1.316  13.400  23.204  0.00  0.00    +0.000 C 
ATOM      3  N   UNL     1      -0.320  12.915  22.342  0.00  0.00    +0.000 N 
ATOM      4  C   UNL     1       0.712  13.833  21.874  0.00  0.00    +0.000 C 
ATOM      5  C   UNL     1       0.172  14.973  21.014  0.00  0.00    +0.000 C 
ATOM      6  C   UNL     1      -0.367  14.604  19.626  0.00  0.00    +0.000 C 
ATOM      7  C   UNL     1      -1.551  13.617  19.528  0.00  0.00    +0.000 C 
ATOM      8  N   UNL     1      -1.068  12.243  19.434  0.00  0.00    +0.000 NA
ATOM      9  C   UNL     1      -1.318  11.453  20.710  0.00  0.00    +0.000 C 
ATOM     10  C   UNL     1      -0.261  11.557  21.794  0.00  0.00    +0.000 C 
ATOM     11  C   UNL     1      -1.380  10.199  19.772  0.00  0.00    +0.000 C 
ATOM     12  C   UNL     1      -2.084  11.269  18.842  0.00  0.00    +0.000 C 
ENDROOT
BRANCH  11  13
ATOM     13  C   UNL     1       0.059   9.575  19.439  0.00  0.00    +0.000 A 
ATOM     14  C   UNL     1       0.605   9.677  18.148  0.00  0.00    +0.000 A 
ATOM     15  C   UNL     1       1.726   8.933  17.779  0.00  0.00    +0.000 A 
ATOM     16  C   UNL     1       2.361   8.096  18.704  0.00  0.00    +0.000 A 
ATOM     17  C   UNL     1       1.868   8.005  19.995  0.00  0.00    +0.000 A 
ATOM     18  C   UNL     1       0.741   8.733  20.344  0.00  0.00    +0.000 A 
BRANCH  16  19
ATOM     19  C   UNL     1       3.467   7.225  18.331  0.00  0.00    +0.000 C 
ATOM     20  C   UNL     1       4.130   7.394  17.183  0.00  0.00    +0.000 C 
BRANCH  20  21
ATOM     21  C   UNL     1       5.147   6.432  16.794  0.00  0.00    +0.000 A 
ATOM     22  C   UNL     1       5.182   5.992  15.470  0.00  0.00    +0.000 A 
ATOM     23  C   UNL     1       6.126   5.048  15.084  0.00  0.00    +0.000 A 
ATOM     24  C   UNL     1       7.032   4.547  16.018  0.00  0.00    +0.000 A 
ATOM     25  C   UNL     1       6.989   4.984  17.344  0.00  0.00    +0.000 A 
ATOM     26  C   UNL     1       6.043   5.926  17.734  0.00  0.00    +0.000 A 
ENDBRANCH  20  21
ENDBRANCH  16  19
ENDBRANCH  11  13
BRANCH   2  27
ATOM     27  C   UNL     1      -2.550  12.520  23.379  0.00  0.00    +0.000 C 
BRANCH  27  28
ATOM     28  C   UNL     1      -3.903  13.061  23.024  0.00  0.00    +0.000 A 
ATOM     29  C   UNL     1      -4.345  12.979  21.699  0.00  0.00    +0.000 A 
ATOM     30  C   UNL     1      -5.514  13.624  21.318  0.00  0.00    +0.000 A 
ATOM     31  C   UNL     1      -6.205  14.335  22.282  0.00  0.00    +0.000 A 
ATOM     32  N   UNL     1      -5.805  14.451  23.566  0.00  0.00    +0.000 NA
ATOM     33  C   UNL     1      -4.663  13.816  23.910  0.00  0.00    +0.000 A 
ENDBRANCH  27  28
ENDBRANCH   2  27
BRANCH  12  34
ATOM     34  C   UNL     1      -2.088  11.027  17.344  0.00  0.00    +0.000 C 
BRANCH  34  35
ATOM     35  O   UNL     1      -1.660  12.204  16.662  0.00  0.00    +0.000 OA
ATOM     36  H   UNL     1      -2.391  12.469  16.078  0.00  0.00    +0.000 HD
ENDBRANCH  34  35
ENDBRANCH  12  34
TORSDOF 7
ENDMDL
MODEL 9
REMARK VINA RESULT:      -8.3      0.806      1.373
REMARK  Name = 
REMARK  7 active torsions:
REMARK  status: ('A' for Active; 'I' for Inactive)
REMARK    1  A    between atoms: C_2  and  C_3
REMARK    2  A    between atoms: C_3  and  C_4
REMARK    3  A    between atoms: C_18  and  C_19
REMARK    4  A    between atoms: C_22  and  C_23
REMARK    5  A    between atoms: C_24  and  C_25
REMARK    6  A    between atoms: C_33  and  C_34
REMARK    7  A    between atoms: C_34  and  O_35
REMARK                            x       y       z     vdW  Elec       q    Type
REMARK                         _______ _______ _______ _____ _____    ______ ____
ROOT
ATOM      1  O   UNL     1       7.633   5.776  15.398  0.00  0.00    +0.000 OA
ATOM      2  C   UNL     1       6.437   5.681  15.672  0.00  0.00    +0.000 C 
ATOM      3  N   UNL     1       5.842   6.481  16.661  0.00  0.00    +0.000 N 
ATOM      4  C   UNL     1       6.700   7.301  17.510  0.00  0.00    +0.000 C 
ATOM      5  C   UNL     1       7.651   6.489  18.384  0.00  0.00    +0.000 C 
ATOM      6  C   UNL     1       7.026   5.668  19.520  0.00  0.00    +0.000 C 
ATOM      7  C   UNL     1       5.997   4.572  19.164  0.00  0.00    +0.000 C 
ATOM      8  N   UNL     1       4.645   5.123  19.149  0.00  0.00    +0.000 NA
ATOM      9  C   UNL     1       4.084   5.241  17.740  0.00  0.00    +0.000 C 
ATOM     10  C   UNL     1       4.412   6.512  16.979  0.00  0.00    +0.000 C 
ATOM     11  C   UNL     1       2.683   5.055  18.419  0.00  0.00    +0.000 C 
ATOM     12  C   UNL     1       3.548   4.073  19.309  0.00  0.00    +0.000 C 
ENDROOT
BRANCH  11  13
ATOM     13  C   UNL     1       2.060   6.418  18.989  0.00  0.00    +0.000 A 
ATOM     14  C   UNL     1       2.051   7.586  18.208  0.00  0.00    +0.000 A 
ATOM     15  C   UNL     1       1.746   8.826  18.769  0.00  0.00    +0.000 A 
ATOM     16  C   UNL     1       1.399   8.930  20.121  0.00  0.00    +0.000 A 
ATOM     17  C   UNL     1       1.361   7.789  20.906  0.00  0.00    +0.000 A 
ATOM     18  C   UNL     1       1.686   6.565  20.342  0.00  0.00    +0.000 A 
BRANCH  16  19
ATOM     19  C   UNL     1       1.177  10.214  20.769  0.00  0.00    +0.000 C 
ATOM     20  C   UNL     1      -0.033  10.570  21.215  0.00  0.00    +0.000 C 
BRANCH  20  21
ATOM     21  C   UNL     1      -0.237  11.906  21.748  0.00  0.00    +0.000 A 
ATOM     22  C   UNL     1      -1.131  12.077  22.806  0.00  0.00    +0.000 A 
ATOM     23  C   UNL     1      -1.366  13.351  23.308  0.00  0.00    +0.000 A 
ATOM     24  C   UNL     1      -0.709  14.450  22.756  0.00  0.00    +0.000 A 
ATOM     25  C   UNL     1       0.179  14.276  21.691  0.00  0.00    +0.000 A 
ATOM     26  C   UNL     1       0.414  13.002  21.183  0.00  0.00    +0.000 A 
ENDBRANCH  20  21
ENDBRANCH  16  19
ENDBRANCH  11  13
BRANCH   2  27
ATOM     27  C   UNL     1       5.559   4.594  15.060  0.00  0.00    +0.000 C 
BRANCH  27  28
ATOM     28  C   UNL     1       5.821   4.132  13.658  0.00  0.00    +0.000 A 
ATOM     29  C   UNL     1       4.841   3.391  12.988  0.00  0.00    +0.000 A 
ATOM     30  C   UNL     1       5.129   2.810  11.760  0.00  0.00    +0.000 A 
ATOM     31  C   UNL     1       6.399   2.990  11.241  0.00  0.00    +0.000 A 
ATOM     32  N   UNL     1       7.377   3.684  11.863  0.00  0.00    +0.000 NA
ATOM     33  C   UNL     1       7.070   4.236  13.057  0.00  0.00    +0.000 A 
ENDBRANCH  27  28
ENDBRANCH   2  27
BRANCH  12  34
ATOM     34  C   UNL     1       3.047   3.735  20.701  0.00  0.00    +0.000 C 
BRANCH  34  35
ATOM     35  O   UNL     1       3.219   2.342  20.952  0.00  0.00    +0.000 OA
ATOM     36  H   UNL     1       2.496   2.075  21.546  0.00  0.00    +0.000 HD
ENDBRANCH  34  35
ENDBRANCH  12  34
TORSDOF 7
ENDMDL
