MODEL 1
REMARK VINA RESULT:      -8.7      0.000      0.000
REMARK  Name = 
REMARK  2 active torsions:
REMARK  status: ('A' for Active; 'I' for Inactive)
REMARK    1  A    between atoms: C_7  and  C_8
REMARK    2  A    between atoms: C_17  and  O_18
REMARK                            x       y       z     vdW  Elec       q    Type
REMARK                         _______ _______ _______ _____ _____    ______ ____
ROOT
ATOM      1  O   UNL     1       5.879   7.456  16.522  0.00  0.00    +0.000 OA
ATOM      2  C   UNL     1       6.148   6.664  17.412  0.00  0.00    +0.000 C 
ATOM      3  C   UNL     1       7.401   6.675  18.240  0.00  0.00    +0.000 C 
ATOM      4  C   UNL     1       7.345   5.310  18.922  0.00  0.00    +0.000 C 
ATOM      5  C   UNL     1       5.932   4.860  18.710  0.00  0.00    +0.000 C 
ATOM      6  C   UNL     1       5.241   5.609  17.854  0.00  0.00    +0.000 C 
ATOM      7  C   UNL     1       3.801   5.468  17.562  0.00  0.00    +0.000 C 
ATOM      8  C   UNL     1       3.231   4.232  18.244  0.00  0.00    +0.000 C 
ATOM      9  C   UNL     1       1.982   3.749  18.125  0.00  0.00    +0.000 C 
ATOM     10  C   UNL     1       1.405   2.606  18.916  0.00  0.00    +0.000 C 
ATOM     11  O   UNL     1       2.236   1.935  19.845  0.00  0.00    +0.000 OA
ATOM     12  C   UNL     1       3.580   2.314  19.939  0.00  0.00    +0.000 C 
ATOM     13  C   UNL     1       4.149   3.510  19.182  0.00  0.00    +0.000 C 
ATOM     14  N   UNL     1       5.402   3.805  19.397  0.00  0.00    +0.000 NA
ENDROOT
BRANCH   7  15
ATOM     15  C   UNL     1       3.054   6.725  18.013  0.00  0.00    +0.000 A 
ATOM     16  C   UNL     1       2.880   7.805  17.134  0.00  0.00    +0.000 A 
ATOM     17  C   UNL     1       2.206   8.951  17.556  0.00  0.00    +0.000 A 
ATOM     18  C   UNL     1       1.729   9.035  18.861  0.00  0.00    +0.000 A 
ATOM     19  F   UNL     1       1.099  10.159  19.240  0.00  0.00    +0.000 F 
ATOM     20  C   UNL     1       1.907   7.984  19.752  0.00  0.00    +0.000 A 
ATOM     21 BR   UNL     1       1.302   8.105  21.538  0.00  0.00    +0.000 Br
ATOM     22  C   UNL     1       2.558   6.826  19.330  0.00  0.00    +0.000 A 
ENDBRANCH   7  15
BRANCH   9  23
ATOM     23  O   UNL     1       1.045   4.296  17.260  0.00  0.00    +0.000 OA
ATOM     24  H   UNL     1       0.155   3.956  17.442  0.00  0.00    +0.000 HD
ENDBRANCH   9  23
TORSDOF 2
ENDMDL
MODEL 2
REMARK VINA RESULT:      -8.5      3.402      5.694
REMARK  Name = 
REMARK  2 active torsions:
REMARK  status: ('A' for Active; 'I' for Inactive)
REMARK    1  A    between atoms: C_7  and  C_8
REMARK    2  A    between atoms: C_17  and  O_18
REMARK                            x       y       z     vdW  Elec       q    Type
REMARK                         _______ _______ _______ _____ _____    ______ ____
ROOT
ATOM      1  O   UNL     1       2.467   2.151  17.657  0.00  0.00    +0.000 OA
ATOM      2  C   UNL     1       2.140   2.639  18.728  0.00  0.00    +0.000 C 
ATOM      3  C   UNL     1       1.884   1.874  19.995  0.00  0.00    +0.000 C 
ATOM      4  C   UNL     1       1.204   2.924  20.871  0.00  0.00    +0.000 C 
ATOM      5  C   UNL     1       1.491   4.217  20.170  0.00  0.00    +0.000 C 
ATOM      6  C   UNL     1       2.014   4.076  18.954  0.00  0.00    +0.000 C 
ATOM      7  C   UNL     1       2.507   5.176  18.101  0.00  0.00    +0.000 C 
ATOM      8  C   UNL     1       2.184   6.527  18.724  0.00  0.00    +0.000 C 
ATOM      9  C   UNL     1       2.404   7.738  18.183  0.00  0.00    +0.000 C 
ATOM     10  C   UNL     1       2.201   9.058  18.877  0.00  0.00    +0.000 C 
ATOM     11  O   UNL     1       1.697   9.060  20.199  0.00  0.00    +0.000 OA
ATOM     12  C   UNL     1       1.340   7.839  20.784  0.00  0.00    +0.000 C 
ATOM     13  C   UNL     1       1.602   6.498  20.104  0.00  0.00    +0.000 C 
ATOM     14  N   UNL     1       1.283   5.424  20.773  0.00  0.00    +0.000 NA
ENDROOT
BRANCH   7  15
ATOM     15  C   UNL     1       4.015   5.029  17.886  0.00  0.00    +0.000 A 
ATOM     16  C   UNL     1       4.906   5.169  18.962  0.00  0.00    +0.000 A 
ATOM     17  C   UNL     1       6.280   5.043  18.755  0.00  0.00    +0.000 A 
ATOM     18  C   UNL     1       6.771   4.805  17.474  0.00  0.00    +0.000 A 
ATOM     19  F   UNL     1       8.099   4.705  17.308  0.00  0.00    +0.000 F 
ATOM     20  C   UNL     1       5.907   4.681  16.394  0.00  0.00    +0.000 A 
ATOM     21 BR   UNL     1       6.564   4.401  14.645  0.00  0.00    +0.000 Br
ATOM     22  C   UNL     1       4.531   4.782  16.596  0.00  0.00    +0.000 A 
ENDBRANCH   7  15
BRANCH   9  23
ATOM     23  O   UNL     1       2.898   7.907  16.898  0.00  0.00    +0.000 OA
ATOM     24  H   UNL     1       3.859   8.035  16.902  0.00  0.00    +0.000 HD
ENDBRANCH   9  23
TORSDOF 2
ENDMDL
MODEL 3
REMARK VINA RESULT:      -8.1      1.134      1.532
REMARK  Name = 
REMARK  2 active torsions:
REMARK  status: ('A' for Active; 'I' for Inactive)
REMARK    1  A    between atoms: C_7  and  C_8
REMARK    2  A    between atoms: C_17  and  O_18
REMARK                            x       y       z     vdW  Elec       q    Type
REMARK                         _______ _______ _______ _____ _____    ______ ____
ROOT
ATOM      1  O   UNL     1       5.663   7.757  16.854  0.00  0.00    +0.000 OA
ATOM      2  C   UNL     1       6.038   6.774  17.474  0.00  0.00    +0.000 C 
ATOM      3  C   UNL     1       7.376   6.618  18.137  0.00  0.00    +0.000 C 
ATOM      4  C   UNL     1       7.409   5.122  18.442  0.00  0.00    +0.000 C 
ATOM      5  C   UNL     1       5.984   4.689  18.274  0.00  0.00    +0.000 C 
ATOM      6  C   UNL     1       5.196   5.608  17.721  0.00  0.00    +0.000 C 
ATOM      7  C   UNL     1       3.732   5.493  17.558  0.00  0.00    +0.000 C 
ATOM      8  C   UNL     1       3.253   4.104  17.953  0.00  0.00    +0.000 C 
ATOM      9  C   UNL     1       2.003   3.621  17.848  0.00  0.00    +0.000 C 
ATOM     10  C   UNL     1       1.528   2.292  18.371  0.00  0.00    +0.000 C 
ATOM     11  O   UNL     1       2.464   1.436  18.999  0.00  0.00    +0.000 OA
ATOM     12  C   UNL     1       3.808   1.827  19.043  0.00  0.00    +0.000 C 
ATOM     13  C   UNL     1       4.278   3.199  18.566  0.00  0.00    +0.000 C 
ATOM     14  N   UNL     1       5.544   3.474  18.715  0.00  0.00    +0.000 NA
ENDROOT
BRANCH   7  15
ATOM     15  C   UNL     1       3.032   6.564  18.399  0.00  0.00    +0.000 A 
ATOM     16  C   UNL     1       2.669   6.301  19.728  0.00  0.00    +0.000 A 
ATOM     17  C   UNL     1       2.021   7.279  20.485  0.00  0.00    +0.000 A 
ATOM     18  C   UNL     1       1.712   8.509  19.911  0.00  0.00    +0.000 A 
ATOM     19  F   UNL     1       1.075   9.421  20.662  0.00  0.00    +0.000 F 
ATOM     20  C   UNL     1       2.047   8.781  18.591  0.00  0.00    +0.000 A 
ATOM     21 BR   UNL     1       1.592  10.430  17.789  0.00  0.00    +0.000 Br
ATOM     22  C   UNL     1       2.715   7.818  17.836  0.00  0.00    +0.000 A 
ENDBRANCH   7  15
BRANCH   9  23
ATOM     23  O   UNL     1       0.970   4.337  17.260  0.00  0.00    +0.000 OA
ATOM     24  H   UNL     1       0.112   3.912  17.416  0.00  0.00    +0.000 HD
ENDBRANCH   9  23
TORSDOF 2
ENDMDL
MODEL 4
REMARK VINA RESULT:      -8.0      3.165      5.470
REMARK  Name = 
REMARK  2 active torsions:
REMARK  status: ('A' for Active; 'I' for Inactive)
REMARK    1  A    between atoms: C_7  and  C_8
REMARK    2  A    between atoms: C_17  and  O_18
REMARK                            x       y       z     vdW  Elec       q    Type
REMARK                         _______ _______ _______ _____ _____    ______ ____
ROOT
ATOM      1  O   UNL     1       2.292   2.164  17.410  0.00  0.00    +0.000 OA
ATOM      2  C   UNL     1       2.060   2.623  18.517  0.00  0.00    +0.000 C 
ATOM      3  C   UNL     1       1.887   1.824  19.777  0.00  0.00    +0.000 C 
ATOM      4  C   UNL     1       1.299   2.858  20.734  0.00  0.00    +0.000 C 
ATOM      5  C   UNL     1       1.558   4.167  20.052  0.00  0.00    +0.000 C 
ATOM      6  C   UNL     1       1.981   4.055  18.795  0.00  0.00    +0.000 C 
ATOM      7  C   UNL     1       2.430   5.172  17.940  0.00  0.00    +0.000 C 
ATOM      8  C   UNL     1       2.184   6.508  18.626  0.00  0.00    +0.000 C 
ATOM      9  C   UNL     1       2.387   7.731  18.106  0.00  0.00    +0.000 C 
ATOM     10  C   UNL     1       2.265   9.033  18.852  0.00  0.00    +0.000 C 
ATOM     11  O   UNL     1       1.866   9.003  20.209  0.00  0.00    +0.000 OA
ATOM     12  C   UNL     1       1.530   7.771  20.783  0.00  0.00    +0.000 C 
ATOM     13  C   UNL     1       1.710   6.447  20.046  0.00  0.00    +0.000 C 
ATOM     14  N   UNL     1       1.422   5.359  20.705  0.00  0.00    +0.000 NA
ENDROOT
BRANCH   7  15
ATOM     15  C   UNL     1       3.913   5.004  17.603  0.00  0.00    +0.000 A 
ATOM     16  C   UNL     1       4.307   4.468  16.368  0.00  0.00    +0.000 A 
ATOM     17  C   UNL     1       5.661   4.310  16.072  0.00  0.00    +0.000 A 
ATOM     18  C   UNL     1       6.624   4.660  17.015  0.00  0.00    +0.000 A 
ATOM     19  F   UNL     1       7.917   4.480  16.704  0.00  0.00    +0.000 F 
ATOM     20  C   UNL     1       6.253   5.176  18.250  0.00  0.00    +0.000 A 
ATOM     21 BR   UNL     1       7.549   5.614  19.553  0.00  0.00    +0.000 Br
ATOM     22  C   UNL     1       4.903   5.359  18.544  0.00  0.00    +0.000 A 
ENDBRANCH   7  15
BRANCH   9  23
ATOM     23  O   UNL     1       2.782   7.931  16.791  0.00  0.00    +0.000 OA
ATOM     24  H   UNL     1       2.143   7.553  16.168  0.00  0.00    +0.000 HD
ENDBRANCH   9  23
TORSDOF 2
ENDMDL
MODEL 5
REMARK VINA RESULT:      -7.8      3.205      4.979
REMARK  Name = 
REMARK  2 active torsions:
REMARK  status: ('A' for Active; 'I' for Inactive)
REMARK    1  A    between atoms: C_7  and  C_8
REMARK    2  A    between atoms: C_17  and  O_18
REMARK                            x       y       z     vdW  Elec       q    Type
REMARK                         _______ _______ _______ _____ _____    ______ ____
ROOT
ATOM      1  O   UNL     1       5.696   4.284  18.181  0.00  0.00    +0.000 OA
ATOM      2  C   UNL     1       5.304   5.167  17.434  0.00  0.00    +0.000 C 
ATOM      3  C   UNL     1       5.650   5.298  15.979  0.00  0.00    +0.000 C 
ATOM      4  C   UNL     1       5.179   6.716  15.664  0.00  0.00    +0.000 C 
ATOM      5  C   UNL     1       4.305   7.070  16.828  0.00  0.00    +0.000 C 
ATOM      6  C   UNL     1       4.368   6.210  17.842  0.00  0.00    +0.000 C 
ATOM      7  C   UNL     1       3.521   6.249  19.051  0.00  0.00    +0.000 C 
ATOM      8  C   UNL     1       2.671   7.511  19.074  0.00  0.00    +0.000 C 
ATOM      9  C   UNL     1       1.855   7.916  20.062  0.00  0.00    +0.000 C 
ATOM     10  C   UNL     1       0.923   9.097  20.001  0.00  0.00    +0.000 C 
ATOM     11  O   UNL     1       0.910   9.893  18.832  0.00  0.00    +0.000 OA
ATOM     12  C   UNL     1       1.816   9.595  17.807  0.00  0.00    +0.000 C 
ATOM     13  C   UNL     1       2.718   8.364  17.843  0.00  0.00    +0.000 C 
ATOM     14  N   UNL     1       3.476   8.156  16.802  0.00  0.00    +0.000 NA
ENDROOT
BRANCH   7  15
ATOM     15  C   UNL     1       2.636   5.002  19.105  0.00  0.00    +0.000 A 
ATOM     16  C   UNL     1       1.936   4.576  17.966  0.00  0.00    +0.000 A 
ATOM     17  C   UNL     1       1.123   3.443  18.026  0.00  0.00    +0.000 A 
ATOM     18  C   UNL     1       0.985   2.750  19.225  0.00  0.00    +0.000 A 
ATOM     19  F   UNL     1       0.182   1.674  19.251  0.00  0.00    +0.000 F 
ATOM     20  C   UNL     1       1.656   3.167  20.368  0.00  0.00    +0.000 A 
ATOM     21 BR   UNL     1       1.441   2.259  22.011  0.00  0.00    +0.000 Br
ATOM     22  C   UNL     1       2.488   4.283  20.310  0.00  0.00    +0.000 A 
ENDBRANCH   7  15
BRANCH   9  23
ATOM     23  O   UNL     1       1.749   7.244  21.271  0.00  0.00    +0.000 OA
ATOM     24  H   UNL     1       2.602   7.207  21.730  0.00  0.00    +0.000 HD
ENDBRANCH   9  23
TORSDOF 2
ENDMDL
MODEL 6
REMARK VINA RESULT:      -7.7      3.093      5.154
REMARK  Name = 
REMARK  2 active torsions:
REMARK  status: ('A' for Active; 'I' for Inactive)
REMARK    1  A    between atoms: C_7  and  C_8
REMARK    2  A    between atoms: C_17  and  O_18
REMARK                            x       y       z     vdW  Elec       q    Type
REMARK                         _______ _______ _______ _____ _____    ______ ____
ROOT
ATOM      1  O   UNL     1       2.812   3.008  17.091  0.00  0.00    +0.000 OA
ATOM      2  C   UNL     1       2.554   3.260  18.257  0.00  0.00    +0.000 C 
ATOM      3  C   UNL     1       2.580   2.276  19.391  0.00  0.00    +0.000 C 
ATOM      4  C   UNL     1       1.866   3.045  20.500  0.00  0.00    +0.000 C 
ATOM      5  C   UNL     1       1.861   4.461  20.009  0.00  0.00    +0.000 C 
ATOM      6  C   UNL     1       2.240   4.602  18.741  0.00  0.00    +0.000 C 
ATOM      7  C   UNL     1       2.448   5.889  18.048  0.00  0.00    +0.000 C 
ATOM      8  C   UNL     1       2.004   7.051  18.925  0.00  0.00    +0.000 C 
ATOM      9  C   UNL     1       1.968   8.351  18.583  0.00  0.00    +0.000 C 
ATOM     10  C   UNL     1       1.656   9.494  19.513  0.00  0.00    +0.000 C 
ATOM     11  O   UNL     1       1.330   9.204  20.859  0.00  0.00    +0.000 OA
ATOM     12  C   UNL     1       1.240   7.864  21.255  0.00  0.00    +0.000 C 
ATOM     13  C   UNL     1       1.614   6.710  20.330  0.00  0.00    +0.000 C 
ATOM     14  N   UNL     1       1.550   5.507  20.831  0.00  0.00    +0.000 NA
ENDROOT
BRANCH   7  15
ATOM     15  C   UNL     1       3.921   6.038  17.660  0.00  0.00    +0.000 A 
ATOM     16  C   UNL     1       4.283   6.346  16.340  0.00  0.00    +0.000 A 
ATOM     17  C   UNL     1       5.629   6.471  15.993  0.00  0.00    +0.000 A 
ATOM     18  C   UNL     1       6.616   6.263  16.952  0.00  0.00    +0.000 A 
ATOM     19  F   UNL     1       7.901   6.375  16.581  0.00  0.00    +0.000 F 
ATOM     20  C   UNL     1       6.278   5.939  18.260  0.00  0.00    +0.000 A 
ATOM     21 BR   UNL     1       7.610   5.611  19.559  0.00  0.00    +0.000 Br
ATOM     22  C   UNL     1       4.935   5.836  18.620  0.00  0.00    +0.000 A 
ENDBRANCH   7  15
BRANCH   9  23
ATOM     23  O   UNL     1       2.262   8.799  17.304  0.00  0.00    +0.000 OA
ATOM     24  H   UNL     1       1.930   8.187  16.629  0.00  0.00    +0.000 HD
ENDBRANCH   9  23
TORSDOF 2
ENDMDL
MODEL 7
REMARK VINA RESULT:      -7.3      1.613      4.191
REMARK  Name = 
REMARK  2 active torsions:
REMARK  status: ('A' for Active; 'I' for Inactive)
REMARK    1  A    between atoms: C_7  and  C_8
REMARK    2  A    between atoms: C_17  and  O_18
REMARK                            x       y       z     vdW  Elec       q    Type
REMARK                         _______ _______ _______ _____ _____    ______ ____
ROOT
ATOM      1  O   UNL     1       1.493   4.228  21.016  0.00  0.00    +0.000 OA
ATOM      2  C   UNL     1       1.672   3.647  19.957  0.00  0.00    +0.000 C 
ATOM      3  C   UNL     1       0.733   2.652  19.338  0.00  0.00    +0.000 C 
ATOM      4  C   UNL     1       1.602   2.028  18.247  0.00  0.00    +0.000 C 
ATOM      5  C   UNL     1       2.758   2.973  18.125  0.00  0.00    +0.000 C 
ATOM      6  C   UNL     1       2.819   3.891  19.088  0.00  0.00    +0.000 C 
ATOM      7  C   UNL     1       3.775   5.015  19.139  0.00  0.00    +0.000 C 
ATOM      8  C   UNL     1       4.807   4.896  18.027  0.00  0.00    +0.000 C 
ATOM      9  C   UNL     1       5.873   5.690  17.827  0.00  0.00    +0.000 C 
ATOM     10  C   UNL     1       6.800   5.634  16.643  0.00  0.00    +0.000 C 
ATOM     11  O   UNL     1       6.581   4.644  15.656  0.00  0.00    +0.000 OA
ATOM     12  C   UNL     1       5.556   3.711  15.856  0.00  0.00    +0.000 C 
ATOM     13  C   UNL     1       4.580   3.805  17.025  0.00  0.00    +0.000 C 
ATOM     14  N   UNL     1       3.627   2.915  17.073  0.00  0.00    +0.000 NA
ENDROOT
BRANCH   7  15
ATOM     15  C   UNL     1       3.020   6.342  19.033  0.00  0.00    +0.000 A 
ATOM     16  C   UNL     1       2.921   7.010  17.803  0.00  0.00    +0.000 A 
ATOM     17  C   UNL     1       2.240   8.225  17.717  0.00  0.00    +0.000 A 
ATOM     18  C   UNL     1       1.679   8.789  18.860  0.00  0.00    +0.000 A 
ATOM     19  F   UNL     1       1.044   9.966  18.745  0.00  0.00    +0.000 F 
ATOM     20  C   UNL     1       1.782   8.152  20.090  0.00  0.00    +0.000 A 
ATOM     21 BR   UNL     1       1.064   8.930  21.655  0.00  0.00    +0.000 Br
ATOM     22  C   UNL     1       2.441   6.927  20.180  0.00  0.00    +0.000 A 
ENDBRANCH   7  15
BRANCH   9  23
ATOM     23  O   UNL     1       6.223   6.709  18.701  0.00  0.00    +0.000 OA
ATOM     24  H   UNL     1       6.000   6.482  19.617  0.00  0.00    +0.000 HD
ENDBRANCH   9  23
TORSDOF 2
ENDMDL
MODEL 8
REMARK VINA RESULT:      -6.7      5.477      8.931
REMARK  Name = 
REMARK  2 active torsions:
REMARK  status: ('A' for Active; 'I' for Inactive)
REMARK    1  A    between atoms: C_7  and  C_8
REMARK    2  A    between atoms: C_17  and  O_18
REMARK                            x       y       z     vdW  Elec       q    Type
REMARK                         _______ _______ _______ _____ _____    ______ ____
ROOT
ATOM      1  O   UNL     1      -1.573   9.708  16.756  0.00  0.00    +0.000 OA
ATOM      2  C   UNL     1      -2.238  10.357  17.548  0.00  0.00    +0.000 C 
ATOM      3  C   UNL     1      -3.714  10.207  17.778  0.00  0.00    +0.000 C 
ATOM      4  C   UNL     1      -4.041  11.459  18.589  0.00  0.00    +0.000 C 
ATOM      5  C   UNL     1      -2.701  11.957  19.037  0.00  0.00    +0.000 C 
ATOM      6  C   UNL     1      -1.669  11.351  18.454  0.00  0.00    +0.000 C 
ATOM      7  C   UNL     1      -0.249  11.556  18.801  0.00  0.00    +0.000 C 
ATOM      8  C   UNL     1      -0.097  12.688  19.807  0.00  0.00    +0.000 C 
ATOM      9  C   UNL     1       1.053  13.202  20.275  0.00  0.00    +0.000 C 
ATOM     10  C   UNL     1       1.174  14.228  21.371  0.00  0.00    +0.000 C 
ATOM     11  O   UNL     1      -0.009  14.743  21.952  0.00  0.00    +0.000 OA
ATOM     12  C   UNL     1      -1.245  14.334  21.435  0.00  0.00    +0.000 C 
ATOM     13  C   UNL     1      -1.368  13.252  20.366  0.00  0.00    +0.000 C 
ATOM     14  N   UNL     1      -2.575  12.909  20.008  0.00  0.00    +0.000 NA
ENDROOT
BRANCH   7  15
ATOM     15  C   UNL     1       0.342  10.258  19.357  0.00  0.00    +0.000 A 
ATOM     16  C   UNL     1       0.015   9.824  20.651  0.00  0.00    +0.000 A 
ATOM     17  C   UNL     1       0.565   8.644  21.154  0.00  0.00    +0.000 A 
ATOM     18  C   UNL     1       1.460   7.910  20.381  0.00  0.00    +0.000 A 
ATOM     19  F   UNL     1       1.983   6.788  20.902  0.00  0.00    +0.000 F 
ATOM     20  C   UNL     1       1.810   8.333  19.105  0.00  0.00    +0.000 A 
ATOM     21 BR   UNL     1       3.057   7.368  18.065  0.00  0.00    +0.000 Br
ATOM     22  C   UNL     1       1.246   9.498  18.586  0.00  0.00    +0.000 A 
ENDBRANCH   7  15
BRANCH   9  23
ATOM     23  O   UNL     1       2.298  12.802  19.812  0.00  0.00    +0.000 OA
ATOM     24  H   UNL     1       2.984  13.449  20.038  0.00  0.00    +0.000 HD
ENDBRANCH   9  23
TORSDOF 2
ENDMDL
MODEL 9
REMARK VINA RESULT:      -6.6      7.819      9.661
REMARK  Name = 
REMARK  2 active torsions:
REMARK  status: ('A' for Active; 'I' for Inactive)
REMARK    1  A    between atoms: C_7  and  C_8
REMARK    2  A    between atoms: C_17  and  O_18
REMARK                            x       y       z     vdW  Elec       q    Type
REMARK                         _______ _______ _______ _____ _____    ______ ____
ROOT
ATOM      1  O   UNL     1      -0.038  11.786  22.545  0.00  0.00    +0.000 OA
ATOM      2  C   UNL     1      -1.163  12.234  22.382  0.00  0.00    +0.000 C 
ATOM      3  C   UNL     1      -1.911  13.093  23.360  0.00  0.00    +0.000 C 
ATOM      4  C   UNL     1      -3.330  13.061  22.795  0.00  0.00    +0.000 C 
ATOM      5  C   UNL     1      -3.150  12.528  21.406  0.00  0.00    +0.000 C 
ATOM      6  C   UNL     1      -1.934  12.050  21.156  0.00  0.00    +0.000 C 
ATOM      7  C   UNL     1      -1.450  11.585  19.840  0.00  0.00    +0.000 C 
ATOM      8  C   UNL     1      -2.585  11.563  18.826  0.00  0.00    +0.000 C 
ATOM      9  C   UNL     1      -2.527  11.113  17.560  0.00  0.00    +0.000 C 
ATOM     10  C   UNL     1      -3.625  11.228  16.537  0.00  0.00    +0.000 C 
ATOM     11  O   UNL     1      -4.851  11.820  16.922  0.00  0.00    +0.000 OA
ATOM     12  C   UNL     1      -5.021  12.209  18.256  0.00  0.00    +0.000 C 
ATOM     13  C   UNL     1      -3.888  12.148  19.277  0.00  0.00    +0.000 C 
ATOM     14  N   UNL     1      -4.147  12.596  20.475  0.00  0.00    +0.000 NA
ENDROOT
BRANCH   7  15
ATOM     15  C   UNL     1      -0.313  12.489  19.357  0.00  0.00    +0.000 A 
ATOM     16  C   UNL     1       0.960  11.958  19.103  0.00  0.00    +0.000 A 
ATOM     17  C   UNL     1       1.994  12.790  18.671  0.00  0.00    +0.000 A 
ATOM     18  C   UNL     1       1.768  14.156  18.518  0.00  0.00    +0.000 A 
ATOM     19  F   UNL     1       2.788  14.930  18.117  0.00  0.00    +0.000 F 
ATOM     20  C   UNL     1       0.519  14.703  18.782  0.00  0.00    +0.000 A 
ATOM     21 BR   UNL     1       0.214  16.561  18.620  0.00  0.00    +0.000 Br
ATOM     22  C   UNL     1      -0.525  13.874  19.191  0.00  0.00    +0.000 A 
ENDBRANCH   7  15
BRANCH   9  23
ATOM     23  O   UNL     1      -1.396  10.510  17.030  0.00  0.00    +0.000 OA
ATOM     24  H   UNL     1      -1.623   9.915  16.298  0.00  0.00    +0.000 HD
ENDBRANCH   9  23
TORSDOF 2
ENDMDL
