MODEL 1
REMARK VINA RESULT:      34.9      0.000      0.000
REMARK  Name = 
REMARK  9 active torsions:
REMARK  status: ('A' for Active; 'I' for Inactive)
REMARK    1  A    between atoms: C_2  and  C_3
REMARK    2  A    between atoms: C_4  and  C_5
REMARK    3  A    between atoms: N_11  and  C_12
REMARK    4  A    between atoms: C_15  and  C_16
REMARK    5  A    between atoms: C_17  and  C_18
REMARK    6  A    between atoms: C_19  and  C_20
REMARK    7  A    between atoms: C_23  and  N_24
REMARK    8  A    between atoms: C_25  and  C_27
REMARK    9  A    between atoms: C_28  and  C_29
REMARK                            x       y       z     vdW  Elec       q    Type
REMARK                         _______ _______ _______ _____ _____    ______ ____
ROOT
ATOM      1  C   UNL     1       0.052  10.864  18.804  0.00  0.00    +0.000 C 
ATOM      2  C   UNL     1       0.892  11.339  19.522  0.00  0.00    +0.000 C 
ENDROOT
BRANCH   1   6
ATOM      3  C   UNL     1      -3.031   9.088  16.467  0.00  0.00    +0.000 A 
ATOM      4  C   UNL     1      -3.211   9.335  17.830  0.00  0.00    +0.000 A 
ATOM      5  C   UNL     1      -2.199   9.930  18.593  0.00  0.00    +0.000 A 
ATOM      6  C   UNL     1      -0.992  10.297  18.001  0.00  0.00    +0.000 A 
ATOM      7  C   UNL     1      -0.803  10.067  16.636  0.00  0.00    +0.000 A 
ATOM      8  C   UNL     1      -1.814   9.457  15.876  0.00  0.00    +0.000 A 
BRANCH   3  11
ATOM      9  O   UNL     1      -4.431   6.523  16.913  0.00  0.00    +0.000 OA
ATOM     10  C   UNL     1      -4.560   7.200  15.900  0.00  0.00    +0.000 C 
ATOM     11  N   UNL     1      -3.999   8.442  15.662  0.00  0.00    +0.000 N 
ATOM     12  H   UNL     1      -4.316   8.954  14.850  0.00  0.00    +0.000 HD
BRANCH  10  13
ATOM     13  C   UNL     1      -5.400   6.717  14.766  0.00  0.00    +0.000 C 
ATOM     14  C   UNL     1      -5.087   5.559  14.160  0.00  0.00    +0.000 C 
BRANCH  14  15
ATOM     15  C   UNL     1      -5.831   5.066  13.000  0.00  0.00    +0.000 A 
ATOM     16  C   UNL     1      -6.774   5.889  12.373  0.00  0.00    +0.000 A 
ATOM     17  C   UNL     1      -7.502   5.417  11.278  0.00  0.00    +0.000 A 
ATOM     18  C   UNL     1      -7.289   4.124  10.803  0.00  0.00    +0.000 A 
ATOM     19  C   UNL     1      -6.344   3.303  11.419  0.00  0.00    +0.000 A 
ATOM     20  C   UNL     1      -5.616   3.772  12.515  0.00  0.00    +0.000 A 
ENDBRANCH  14  15
ENDBRANCH  10  13
ENDBRANCH   3  11
ENDBRANCH   1   6
BRANCH   2  21
ATOM     21  C   UNL     1       1.845  11.841  20.450  0.00  0.00    +0.000 C 
ATOM     22  C   UNL     1       2.051  13.153  20.651  0.00  0.00    +0.000 C 
BRANCH  22  23
ATOM     23  C   UNL     1       3.084  13.672  21.566  0.00  0.00    +0.000 A 
ATOM     24  C   UNL     1       4.316  13.028  21.691  0.00  0.00    +0.000 A 
ATOM     25  C   UNL     1       5.308  13.528  22.537  0.00  0.00    +0.000 A 
ATOM     26  C   UNL     1       5.117  14.697  23.271  0.00  0.00    +0.000 A 
ATOM     27  C   UNL     1       3.890  15.364  23.137  0.00  0.00    +0.000 A 
ATOM     28  C   UNL     1       2.887  14.858  22.287  0.00  0.00    +0.000 A 
BRANCH  26  29
ATOM     29  N   UNL     1       6.103  15.234  24.141  0.00  0.00    +0.000 N 
ATOM     30  C   UNL     1       6.939  16.297  23.841  0.00  0.00    +0.000 C 
ATOM     31  O   UNL     1       6.940  16.954  22.806  0.00  0.00    +0.000 OA
ATOM     32  H   UNL     1       6.196  14.793  25.044  0.00  0.00    +0.000 HD
BRANCH  30  33
ATOM     33  C   UNL     1       7.920  16.620  24.916  0.00  0.00    +0.000 C 
ATOM     34  C   UNL     1       8.621  15.596  25.435  0.00  0.00    +0.000 C 
BRANCH  34  35
ATOM     35  C   UNL     1       9.578  15.667  26.546  0.00  0.00    +0.000 A 
ATOM     36  C   UNL     1      10.112  14.465  27.038  0.00  0.00    +0.000 A 
ATOM     37  C   UNL     1      11.022  14.468  28.098  0.00  0.00    +0.000 A 
ATOM     38  C   UNL     1      11.418  15.675  28.666  0.00  0.00    +0.000 A 
ATOM     39  C   UNL     1      10.918  16.877  28.166  0.00  0.00    +0.000 A 
ATOM     40  C   UNL     1      10.007  16.873  27.105  0.00  0.00    +0.000 A 
ENDBRANCH  34  35
ENDBRANCH  30  33
ENDBRANCH  26  29
ENDBRANCH  22  23
ENDBRANCH   2  21
TORSDOF 9
ENDMDL
