MODEL 1
REMARK VINA RESULT:      -6.6      0.000      0.000
REMARK  Name = 
REMARK  13 active torsions:
REMARK  status: ('A' for Active; 'I' for Inactive)
REMARK    1  A    between atoms: C_1  and  O_2
REMARK    2  A    between atoms: O_2  and  C_3
REMARK    3  A    between atoms: C_3  and  O_4
REMARK    4  A    between atoms: O_4  and  C_5
REMARK    5  A    between atoms: C_5  and  C_6
REMARK    6  A    between atoms: C_6  and  N_7
REMARK    7  A    between atoms: C_8  and  C_10
REMARK    8  A    between atoms: C_10  and  C_11
REMARK    9  A    between atoms: C_12  and  C_13
REMARK   10  A    between atoms: C_16  and  O_17
REMARK   11  A    between atoms: O_17  and  C_18
REMARK   12  A    between atoms: C_19  and  O_20
REMARK   13  A    between atoms: C_21  and  C_22
REMARK                            x       y       z     vdW  Elec       q    Type
REMARK                         _______ _______ _______ _____ _____    ______ ____
ROOT
ATOM      1  C   UNL     1       1.660   8.745  19.282  0.00  0.00    +0.000 A 
ATOM      2  C   UNL     1       1.597   7.633  20.046  0.00  0.00    +0.000 A 
ATOM      3  C   UNL     1       0.745   7.535  21.287  0.00  0.00    +0.000 C 
ATOM      4  C   UNL     1       2.371   6.430  19.655  0.00  0.00    +0.000 A 
ATOM      5  C   UNL     1       2.474   5.284  20.461  0.00  0.00    +0.000 A 
ATOM      6  C   UNL     1       3.183   4.128  20.071  0.00  0.00    +0.000 A 
ATOM      7  C   UNL     1       3.826   4.130  18.830  0.00  0.00    +0.000 A 
ATOM      8  C   UNL     1       3.774   5.285  18.018  0.00  0.00    +0.000 A 
ATOM      9  C   UNL     1       3.053   6.417  18.445  0.00  0.00    +0.000 A 
ATOM     10  O   UNL     1       3.031   7.563  17.634  0.00  0.00    +0.000 OA
ATOM     11  C   UNL     1       2.403   8.742  17.991  0.00  0.00    +0.000 A 
ATOM     12  O   UNL     1       2.452   9.741  17.287  0.00  0.00    +0.000 OA
ENDROOT
BRANCH   6  13
ATOM     13  O   UNL     1       3.090   3.165  21.035  0.00  0.00    +0.000 OA
ATOM     14  C   UNL     1       1.892   2.873  21.725  0.00  0.00    +0.000 C 
ENDBRANCH   6  13
BRANCH   7  15
ATOM     15  O   UNL     1       4.514   3.063  18.322  0.00  0.00    +0.000 OA
ATOM     16  H   UNL     1       3.910   2.375  18.020  0.00  0.00    +0.000 HD
ENDBRANCH   7  15
BRANCH   8  17
ATOM     17  C   UNL     1       4.516   5.287  16.728  0.00  0.00    +0.000 C 
ATOM     18  O   UNL     1       4.529   4.350  15.940  0.00  0.00    +0.000 OA
ENDBRANCH   8  17
BRANCH   1  19
ATOM     19  C   UNL     1       1.091  10.105  19.629  0.00  0.00    +0.000 C 
BRANCH  19  21
ATOM     20  N   UNL     1      -0.582  10.780  17.958  0.00  0.00    +0.000 N 
ATOM     21  C   UNL     1      -0.375  10.270  19.217  0.00  0.00    +0.000 C 
ATOM     22  O   UNL     1      -1.294   9.995  19.986  0.00  0.00    +0.000 OA
ATOM     23  H   UNL     1       0.207  11.019  17.367  0.00  0.00    +0.000 HD
BRANCH  20  24
ATOM     24  C   UNL     1      -1.916  11.033  17.427  0.00  0.00    +0.000 C 
BRANCH  24  25
ATOM     25  C   UNL     1      -2.330  10.046  16.331  0.00  0.00    +0.000 C 
BRANCH  25  26
ATOM     26  O   UNL     1      -2.828  10.770  15.200  0.00  0.00    +0.000 OA
BRANCH  26  27
ATOM     27  C   UNL     1      -2.957   9.934  14.052  0.00  0.00    +0.000 C 
BRANCH  27  29
ATOM     28  C   UNL     1      -4.289   9.841  12.111  0.00  0.00    +0.000 C 
ATOM     29  O   UNL     1      -4.281   9.905  13.531  0.00  0.00    +0.000 OA
ENDBRANCH  27  29
ENDBRANCH  26  27
ENDBRANCH  25  26
ENDBRANCH  24  25
ENDBRANCH  20  24
ENDBRANCH  19  21
ENDBRANCH   1  19
TORSDOF 10
ENDMDL
MODEL 2
REMARK VINA RESULT:      -6.6      2.112      3.491
REMARK  Name = 
REMARK  13 active torsions:
REMARK  status: ('A' for Active; 'I' for Inactive)
REMARK    1  A    between atoms: C_1  and  O_2
REMARK    2  A    between atoms: O_2  and  C_3
REMARK    3  A    between atoms: C_3  and  O_4
REMARK    4  A    between atoms: O_4  and  C_5
REMARK    5  A    between atoms: C_5  and  C_6
REMARK    6  A    between atoms: C_6  and  N_7
REMARK    7  A    between atoms: C_8  and  C_10
REMARK    8  A    between atoms: C_10  and  C_11
REMARK    9  A    between atoms: C_12  and  C_13
REMARK   10  A    between atoms: C_16  and  O_17
REMARK   11  A    between atoms: O_17  and  C_18
REMARK   12  A    between atoms: C_19  and  O_20
REMARK   13  A    between atoms: C_21  and  C_22
REMARK                            x       y       z     vdW  Elec       q    Type
REMARK                         _______ _______ _______ _____ _____    ______ ____
ROOT
ATOM      1  C   UNL     1       1.669   8.466  19.669  0.00  0.00    +0.000 A 
ATOM      2  C   UNL     1       2.319   7.784  18.700  0.00  0.00    +0.000 A 
ATOM      3  C   UNL     1       2.894   8.446  17.474  0.00  0.00    +0.000 C 
ATOM      4  C   UNL     1       2.513   6.320  18.839  0.00  0.00    +0.000 A 
ATOM      5  C   UNL     1       3.051   5.515  17.822  0.00  0.00    +0.000 A 
ATOM      6  C   UNL     1       3.266   4.128  17.969  0.00  0.00    +0.000 A 
ATOM      7  C   UNL     1       2.913   3.525  19.180  0.00  0.00    +0.000 A 
ATOM      8  C   UNL     1       2.331   4.305  20.204  0.00  0.00    +0.000 A 
ATOM      9  C   UNL     1       2.136   5.687  20.016  0.00  0.00    +0.000 A 
ATOM     10  O   UNL     1       1.537   6.441  21.038  0.00  0.00    +0.000 OA
ATOM     11  C   UNL     1       1.247   7.789  20.927  0.00  0.00    +0.000 A 
ATOM     12  O   UNL     1       0.672   8.403  21.814  0.00  0.00    +0.000 OA
ENDROOT
BRANCH   6  13
ATOM     13  O   UNL     1       3.823   3.610  16.835  0.00  0.00    +0.000 OA
ATOM     14  C   UNL     1       5.086   4.007  16.341  0.00  0.00    +0.000 C 
ENDBRANCH   6  13
BRANCH   7  15
ATOM     15  O   UNL     1       3.104   2.201  19.460  0.00  0.00    +0.000 OA
ATOM     16  H   UNL     1       3.975   2.051  19.845  0.00  0.00    +0.000 HD
ENDBRANCH   7  15
BRANCH   8  17
ATOM     17  C   UNL     1       1.908   3.633  21.463  0.00  0.00    +0.000 C 
ATOM     18  O   UNL     1       2.625   2.891  22.122  0.00  0.00    +0.000 OA
ENDBRANCH   8  17
BRANCH   1  19
ATOM     19  C   UNL     1       1.224   9.912  19.602  0.00  0.00    +0.000 C 
BRANCH  19  21
ATOM     20  N   UNL     1      -0.449   9.948  17.800  0.00  0.00    +0.000 N 
ATOM     21  C   UNL     1      -0.230  10.077  19.150  0.00  0.00    +0.000 C 
ATOM     22  O   UNL     1      -1.126  10.342  19.950  0.00  0.00    +0.000 OA
ATOM     23  H   UNL     1       0.325   9.755  17.173  0.00  0.00    +0.000 HD
BRANCH  20  24
ATOM     24  C   UNL     1      -1.769  10.112  17.203  0.00  0.00    +0.000 C 
BRANCH  24  25
ATOM     25  C   UNL     1      -2.229  11.572  17.143  0.00  0.00    +0.000 C 
BRANCH  25  26
ATOM     26  O   UNL     1      -3.431  11.725  17.908  0.00  0.00    +0.000 OA
BRANCH  26  27
ATOM     27  C   UNL     1      -4.540  11.085  17.282  0.00  0.00    +0.000 C 
BRANCH  27  29
ATOM     28  C   UNL     1      -6.712  11.619  18.022  0.00  0.00    +0.000 C 
ATOM     29  O   UNL     1      -5.662  11.946  17.122  0.00  0.00    +0.000 OA
ENDBRANCH  27  29
ENDBRANCH  26  27
ENDBRANCH  25  26
ENDBRANCH  24  25
ENDBRANCH  20  24
ENDBRANCH  19  21
ENDBRANCH   1  19
TORSDOF 10
ENDMDL
MODEL 3
REMARK VINA RESULT:      -6.5      1.500      2.994
REMARK  Name = 
REMARK  13 active torsions:
REMARK  status: ('A' for Active; 'I' for Inactive)
REMARK    1  A    between atoms: C_1  and  O_2
REMARK    2  A    between atoms: O_2  and  C_3
REMARK    3  A    between atoms: C_3  and  O_4
REMARK    4  A    between atoms: O_4  and  C_5
REMARK    5  A    between atoms: C_5  and  C_6
REMARK    6  A    between atoms: C_6  and  N_7
REMARK    7  A    between atoms: C_8  and  C_10
REMARK    8  A    between atoms: C_10  and  C_11
REMARK    9  A    between atoms: C_12  and  C_13
REMARK   10  A    between atoms: C_16  and  O_17
REMARK   11  A    between atoms: O_17  and  C_18
REMARK   12  A    between atoms: C_19  and  O_20
REMARK   13  A    between atoms: C_21  and  C_22
REMARK                            x       y       z     vdW  Elec       q    Type
REMARK                         _______ _______ _______ _____ _____    ______ ____
ROOT
ATOM      1  C   UNL     1       1.579   8.673  19.837  0.00  0.00    +0.000 A 
ATOM      2  C   UNL     1       2.168   8.013  18.815  0.00  0.00    +0.000 A 
ATOM      3  C   UNL     1       2.661   8.702  17.568  0.00  0.00    +0.000 C 
ATOM      4  C   UNL     1       2.376   6.548  18.912  0.00  0.00    +0.000 A 
ATOM      5  C   UNL     1       2.850   5.765  17.847  0.00  0.00    +0.000 A 
ATOM      6  C   UNL     1       3.078   4.377  17.953  0.00  0.00    +0.000 A 
ATOM      7  C   UNL     1       2.806   3.749  19.172  0.00  0.00    +0.000 A 
ATOM      8  C   UNL     1       2.288   4.506  20.246  0.00  0.00    +0.000 A 
ATOM      9  C   UNL     1       2.077   5.890  20.098  0.00  0.00    +0.000 A 
ATOM     10  O   UNL     1       1.541   6.621  21.171  0.00  0.00    +0.000 OA
ATOM     11  C   UNL     1       1.241   7.970  21.105  0.00  0.00    +0.000 A 
ATOM     12  O   UNL     1       0.722   8.564  22.039  0.00  0.00    +0.000 OA
ENDROOT
BRANCH   6  13
ATOM     13  O   UNL     1       3.564   3.884  16.775  0.00  0.00    +0.000 OA
ATOM     14  C   UNL     1       4.944   3.762  16.496  0.00  0.00    +0.000 C 
ENDBRANCH   6  13
BRANCH   7  15
ATOM     15  O   UNL     1       3.018   2.420  19.413  0.00  0.00    +0.000 OA
ATOM     16  H   UNL     1       3.648   2.051  18.783  0.00  0.00    +0.000 HD
ENDBRANCH   7  15
BRANCH   8  17
ATOM     17  C   UNL     1       1.948   3.807  21.515  0.00  0.00    +0.000 C 
ATOM     18  O   UNL     1       2.665   2.975  22.057  0.00  0.00    +0.000 OA
ENDBRANCH   8  17
BRANCH   1  19
ATOM     19  C   UNL     1       1.126  10.119  19.827  0.00  0.00    +0.000 C 
BRANCH  19  21
ATOM     20  N   UNL     1      -0.409  10.709  17.999  0.00  0.00    +0.000 N 
ATOM     21  C   UNL     1      -0.303  10.300  19.306  0.00  0.00    +0.000 C 
ATOM     22  O   UNL     1      -1.279  10.124  20.032  0.00  0.00    +0.000 OA
ATOM     23  H   UNL     1       0.425  10.869  17.444  0.00  0.00    +0.000 HD
BRANCH  20  24
ATOM     24  C   UNL     1      -1.695  10.964  17.362  0.00  0.00    +0.000 C 
BRANCH  24  25
ATOM     25  C   UNL     1      -2.412   9.687  16.912  0.00  0.00    +0.000 C 
BRANCH  25  26
ATOM     26  O   UNL     1      -3.544  10.035  16.105  0.00  0.00    +0.000 OA
BRANCH  26  27
ATOM     27  C   UNL     1      -3.155  10.730  14.923  0.00  0.00    +0.000 C 
BRANCH  27  29
ATOM     28  C   UNL     1      -3.979   9.823  12.910  0.00  0.00    +0.000 C 
ATOM     29  O   UNL     1      -2.893   9.860  13.826  0.00  0.00    +0.000 OA
ENDBRANCH  27  29
ENDBRANCH  26  27
ENDBRANCH  25  26
ENDBRANCH  24  25
ENDBRANCH  20  24
ENDBRANCH  19  21
ENDBRANCH   1  19
TORSDOF 10
ENDMDL
MODEL 4
REMARK VINA RESULT:      -6.4      3.877      8.123
REMARK  Name = 
REMARK  13 active torsions:
REMARK  status: ('A' for Active; 'I' for Inactive)
REMARK    1  A    between atoms: C_1  and  O_2
REMARK    2  A    between atoms: O_2  and  C_3
REMARK    3  A    between atoms: C_3  and  O_4
REMARK    4  A    between atoms: O_4  and  C_5
REMARK    5  A    between atoms: C_5  and  C_6
REMARK    6  A    between atoms: C_6  and  N_7
REMARK    7  A    between atoms: C_8  and  C_10
REMARK    8  A    between atoms: C_10  and  C_11
REMARK    9  A    between atoms: C_12  and  C_13
REMARK   10  A    between atoms: C_16  and  O_17
REMARK   11  A    between atoms: O_17  and  C_18
REMARK   12  A    between atoms: C_19  and  O_20
REMARK   13  A    between atoms: C_21  and  C_22
REMARK                            x       y       z     vdW  Elec       q    Type
REMARK                         _______ _______ _______ _____ _____    ______ ____
ROOT
ATOM      1  C   UNL     1       2.321   6.559  19.241  0.00  0.00    +0.000 A 
ATOM      2  C   UNL     1       2.183   7.798  18.721  0.00  0.00    +0.000 A 
ATOM      3  C   UNL     1       2.561   8.140  17.301  0.00  0.00    +0.000 C 
ATOM      4  C   UNL     1       1.612   8.883  19.554  0.00  0.00    +0.000 A 
ATOM      5  C   UNL     1       1.562  10.225  19.143  0.00  0.00    +0.000 A 
ATOM      6  C   UNL     1       0.987  11.250  19.925  0.00  0.00    +0.000 A 
ATOM      7  C   UNL     1       0.455  10.915  21.173  0.00  0.00    +0.000 A 
ATOM      8  C   UNL     1       0.530   9.580  21.629  0.00  0.00    +0.000 A 
ATOM      9  C   UNL     1       1.111   8.588  20.816  0.00  0.00    +0.000 A 
ATOM     10  O   UNL     1       1.196   7.270  21.295  0.00  0.00    +0.000 OA
ATOM     11  C   UNL     1       1.801   6.240  20.600  0.00  0.00    +0.000 A 
ATOM     12  O   UNL     1       1.909   5.117  21.071  0.00  0.00    +0.000 OA
ENDROOT
BRANCH   6  13
ATOM     13  O   UNL     1       1.053  12.444  19.266  0.00  0.00    +0.000 OA
ATOM     14  C   UNL     1       1.923  13.491  19.645  0.00  0.00    +0.000 C 
ENDBRANCH   6  13
BRANCH   7  15
ATOM     15  O   UNL     1      -0.160  11.807  22.007  0.00  0.00    +0.000 OA
ATOM     16  H   UNL     1       0.484  12.263  22.560  0.00  0.00    +0.000 HD
ENDBRANCH   7  15
BRANCH   8  17
ATOM     17  C   UNL     1       0.012   9.257  22.986  0.00  0.00    +0.000 C 
ATOM     18  O   UNL     1       0.494   9.685  24.027  0.00  0.00    +0.000 OA
ENDBRANCH   8  17
BRANCH   1  19
ATOM     19  C   UNL     1       3.049   5.394  18.602  0.00  0.00    +0.000 C 
BRANCH  19  21
ATOM     20  N   UNL     1       5.187   5.802  17.458  0.00  0.00    +0.000 N 
ATOM     21  C   UNL     1       4.573   5.530  18.657  0.00  0.00    +0.000 C 
ATOM     22  O   UNL     1       5.196   5.369  19.705  0.00  0.00    +0.000 OA
ATOM     23  H   UNL     1       4.636   5.900  16.612  0.00  0.00    +0.000 HD
BRANCH  20  24
ATOM     24  C   UNL     1       6.635   5.925  17.331  0.00  0.00    +0.000 C 
BRANCH  24  25
ATOM     25  C   UNL     1       7.319   4.622  16.906  0.00  0.00    +0.000 C 
BRANCH  25  26
ATOM     26  O   UNL     1       6.494   3.939  15.953  0.00  0.00    +0.000 OA
BRANCH  26  27
ATOM     27  C   UNL     1       6.655   4.471  14.640  0.00  0.00    +0.000 C 
BRANCH  27  29
ATOM     28  C   UNL     1       6.580   3.672  12.424  0.00  0.00    +0.000 C 
ATOM     29  O   UNL     1       5.889   3.776  13.661  0.00  0.00    +0.000 OA
ENDBRANCH  27  29
ENDBRANCH  26  27
ENDBRANCH  25  26
ENDBRANCH  24  25
ENDBRANCH  20  24
ENDBRANCH  19  21
ENDBRANCH   1  19
TORSDOF 10
ENDMDL
MODEL 5
REMARK VINA RESULT:      -6.4      1.581      3.262
REMARK  Name = 
REMARK  13 active torsions:
REMARK  status: ('A' for Active; 'I' for Inactive)
REMARK    1  A    between atoms: C_1  and  O_2
REMARK    2  A    between atoms: O_2  and  C_3
REMARK    3  A    between atoms: C_3  and  O_4
REMARK    4  A    between atoms: O_4  and  C_5
REMARK    5  A    between atoms: C_5  and  C_6
REMARK    6  A    between atoms: C_6  and  N_7
REMARK    7  A    between atoms: C_8  and  C_10
REMARK    8  A    between atoms: C_10  and  C_11
REMARK    9  A    between atoms: C_12  and  C_13
REMARK   10  A    between atoms: C_16  and  O_17
REMARK   11  A    between atoms: O_17  and  C_18
REMARK   12  A    between atoms: C_19  and  O_20
REMARK   13  A    between atoms: C_21  and  C_22
REMARK                            x       y       z     vdW  Elec       q    Type
REMARK                         _______ _______ _______ _____ _____    ______ ____
ROOT
ATOM      1  C   UNL     1       1.774   8.454  19.460  0.00  0.00    +0.000 A 
ATOM      2  C   UNL     1       2.461   7.724  18.553  0.00  0.00    +0.000 A 
ATOM      3  C   UNL     1       3.118   8.331  17.339  0.00  0.00    +0.000 C 
ATOM      4  C   UNL     1       2.613   6.263  18.753  0.00  0.00    +0.000 A 
ATOM      5  C   UNL     1       3.187   5.410  17.796  0.00  0.00    +0.000 A 
ATOM      6  C   UNL     1       3.361   4.025  18.002  0.00  0.00    +0.000 A 
ATOM      7  C   UNL     1       2.927   3.474  19.211  0.00  0.00    +0.000 A 
ATOM      8  C   UNL     1       2.307   4.302  20.174  0.00  0.00    +0.000 A 
ATOM      9  C   UNL     1       2.156   5.680  19.928  0.00  0.00    +0.000 A 
ATOM     10  O   UNL     1       1.518   6.483  20.888  0.00  0.00    +0.000 OA
ATOM     11  C   UNL     1       1.267   7.832  20.714  0.00  0.00    +0.000 A 
ATOM     12  O   UNL     1       0.658   8.489  21.546  0.00  0.00    +0.000 OA
ENDROOT
BRANCH   6  13
ATOM     13  O   UNL     1       3.968   3.456  16.920  0.00  0.00    +0.000 OA
ATOM     14  C   UNL     1       5.030   4.067  16.216  0.00  0.00    +0.000 C 
ENDBRANCH   6  13
BRANCH   7  15
ATOM     15  O   UNL     1       3.070   2.156  19.547  0.00  0.00    +0.000 OA
ATOM     16  H   UNL     1       2.728   1.986  20.432  0.00  0.00    +0.000 HD
ENDBRANCH   7  15
BRANCH   8  17
ATOM     17  C   UNL     1       1.799   3.684  21.428  0.00  0.00    +0.000 C 
ATOM     18  O   UNL     1       2.482   3.014  22.192  0.00  0.00    +0.000 OA
ENDBRANCH   8  17
BRANCH   1  19
ATOM     19  C   UNL     1       1.367   9.907  19.319  0.00  0.00    +0.000 C 
BRANCH  19  21
ATOM     20  N   UNL     1      -0.929  10.748  19.576  0.00  0.00    +0.000 N 
ATOM     21  C   UNL     1      -0.046  10.087  18.757  0.00  0.00    +0.000 C 
ATOM     22  O   UNL     1      -0.364   9.633  17.660  0.00  0.00    +0.000 OA
ATOM     23  H   UNL     1      -0.630  11.082  20.486  0.00  0.00    +0.000 HD
BRANCH  20  24
ATOM     24  C   UNL     1      -2.322  10.970  19.207  0.00  0.00    +0.000 C 
BRANCH  24  25
ATOM     25  C   UNL     1      -2.486  11.811  17.936  0.00  0.00    +0.000 C 
BRANCH  25  26
ATOM     26  O   UNL     1      -3.862  11.811  17.539  0.00  0.00    +0.000 OA
BRANCH  26  27
ATOM     27  C   UNL     1      -4.045  11.184  16.272  0.00  0.00    +0.000 C 
BRANCH  27  29
ATOM     28  C   UNL     1      -2.917  10.036  14.550  0.00  0.00    +0.000 C 
ATOM     29  O   UNL     1      -2.835  11.060  15.532  0.00  0.00    +0.000 OA
ENDBRANCH  27  29
ENDBRANCH  26  27
ENDBRANCH  25  26
ENDBRANCH  24  25
ENDBRANCH  20  24
ENDBRANCH  19  21
ENDBRANCH   1  19
TORSDOF 10
ENDMDL
MODEL 6
REMARK VINA RESULT:      -6.4      1.501      1.958
REMARK  Name = 
REMARK  13 active torsions:
REMARK  status: ('A' for Active; 'I' for Inactive)
REMARK    1  A    between atoms: C_1  and  O_2
REMARK    2  A    between atoms: O_2  and  C_3
REMARK    3  A    between atoms: C_3  and  O_4
REMARK    4  A    between atoms: O_4  and  C_5
REMARK    5  A    between atoms: C_5  and  C_6
REMARK    6  A    between atoms: C_6  and  N_7
REMARK    7  A    between atoms: C_8  and  C_10
REMARK    8  A    between atoms: C_10  and  C_11
REMARK    9  A    between atoms: C_12  and  C_13
REMARK   10  A    between atoms: C_16  and  O_17
REMARK   11  A    between atoms: O_17  and  C_18
REMARK   12  A    between atoms: C_19  and  O_20
REMARK   13  A    between atoms: C_21  and  C_22
REMARK                            x       y       z     vdW  Elec       q    Type
REMARK                         _______ _______ _______ _____ _____    ______ ____
ROOT
ATOM      1  C   UNL     1       1.443   9.407  19.434  0.00  0.00    +0.000 A 
ATOM      2  C   UNL     1       1.264   8.367  20.278  0.00  0.00    +0.000 A 
ATOM      3  C   UNL     1       0.397   8.448  21.509  0.00  0.00    +0.000 C 
ATOM      4  C   UNL     1       1.917   7.068  19.988  0.00  0.00    +0.000 A 
ATOM      5  C   UNL     1       1.900   5.981  20.879  0.00  0.00    +0.000 A 
ATOM      6  C   UNL     1       2.493   4.735  20.586  0.00  0.00    +0.000 A 
ATOM      7  C   UNL     1       3.142   4.580  19.358  0.00  0.00    +0.000 A 
ATOM      8  C   UNL     1       3.211   5.670  18.462  0.00  0.00    +0.000 A 
ATOM      9  C   UNL     1       2.603   6.896  18.793  0.00  0.00    +0.000 A 
ATOM     10  O   UNL     1       2.701   7.974  17.899  0.00  0.00    +0.000 OA
ATOM     11  C   UNL     1       2.192   9.234  18.158  0.00  0.00    +0.000 A 
ATOM     12  O   UNL     1       2.344  10.166  17.383  0.00  0.00    +0.000 OA
ENDROOT
BRANCH   6  13
ATOM     13  O   UNL     1       2.297   3.861  21.617  0.00  0.00    +0.000 OA
ATOM     14  C   UNL     1       1.474   2.717  21.518  0.00  0.00    +0.000 C 
ENDBRANCH   6  13
BRANCH   7  15
ATOM     15  O   UNL     1       3.723   3.414  18.941  0.00  0.00    +0.000 OA
ATOM     16  H   UNL     1       4.557   3.261  19.401  0.00  0.00    +0.000 HD
ENDBRANCH   7  15
BRANCH   8  17
ATOM     17  C   UNL     1       3.958   5.501  17.186  0.00  0.00    +0.000 C 
ATOM     18  O   UNL     1       5.177   5.408  17.108  0.00  0.00    +0.000 OA
ENDBRANCH   8  17
BRANCH   1  19
ATOM     19  C   UNL     1       1.010  10.839  19.671  0.00  0.00    +0.000 C 
BRANCH  19  21
ATOM     20  N   UNL     1      -0.623  11.315  17.895  0.00  0.00    +0.000 N 
ATOM     21  C   UNL     1      -0.434  11.113  19.241  0.00  0.00    +0.000 C 
ATOM     22  O   UNL     1      -1.348  11.180  20.061  0.00  0.00    +0.000 OA
ATOM     23  H   UNL     1       0.165  11.277  17.257  0.00  0.00    +0.000 HD
BRANCH  20  24
ATOM     24  C   UNL     1      -1.930  11.623  17.326  0.00  0.00    +0.000 C 
BRANCH  24  25
ATOM     25  C   UNL     1      -2.710  10.378  16.891  0.00  0.00    +0.000 C 
BRANCH  25  26
ATOM     26  O   UNL     1      -3.805  10.771  16.054  0.00  0.00    +0.000 OA
BRANCH  26  27
ATOM     27  C   UNL     1      -4.860  11.364  16.808  0.00  0.00    +0.000 C 
BRANCH  27  29
ATOM     28  C   UNL     1      -6.275  11.203  18.685  0.00  0.00    +0.000 C 
ATOM     29  O   UNL     1      -5.156  10.651  18.005  0.00  0.00    +0.000 OA
ENDBRANCH  27  29
ENDBRANCH  26  27
ENDBRANCH  25  26
ENDBRANCH  24  25
ENDBRANCH  20  24
ENDBRANCH  19  21
ENDBRANCH   1  19
TORSDOF 10
ENDMDL
MODEL 7
REMARK VINA RESULT:      -6.3      4.967      8.172
REMARK  Name = 
REMARK  13 active torsions:
REMARK  status: ('A' for Active; 'I' for Inactive)
REMARK    1  A    between atoms: C_1  and  O_2
REMARK    2  A    between atoms: O_2  and  C_3
REMARK    3  A    between atoms: C_3  and  O_4
REMARK    4  A    between atoms: O_4  and  C_5
REMARK    5  A    between atoms: C_5  and  C_6
REMARK    6  A    between atoms: C_6  and  N_7
REMARK    7  A    between atoms: C_8  and  C_10
REMARK    8  A    between atoms: C_10  and  C_11
REMARK    9  A    between atoms: C_12  and  C_13
REMARK   10  A    between atoms: C_16  and  O_17
REMARK   11  A    between atoms: O_17  and  C_18
REMARK   12  A    between atoms: C_19  and  O_20
REMARK   13  A    between atoms: C_21  and  C_22
REMARK                            x       y       z     vdW  Elec       q    Type
REMARK                         _______ _______ _______ _____ _____    ______ ____
ROOT
ATOM      1  C   UNL     1       6.212   6.072  17.620  0.00  0.00    +0.000 A 
ATOM      2  C   UNL     1       4.957   6.361  18.031  0.00  0.00    +0.000 A 
ATOM      3  C   UNL     1       4.243   7.634  17.653  0.00  0.00    +0.000 C 
ATOM      4  C   UNL     1       4.218   5.386  18.868  0.00  0.00    +0.000 A 
ATOM      5  C   UNL     1       2.970   5.663  19.452  0.00  0.00    +0.000 A 
ATOM      6  C   UNL     1       2.253   4.722  20.221  0.00  0.00    +0.000 A 
ATOM      7  C   UNL     1       2.819   3.459  20.423  0.00  0.00    +0.000 A 
ATOM      8  C   UNL     1       4.092   3.170  19.883  0.00  0.00    +0.000 A 
ATOM      9  C   UNL     1       4.772   4.138  19.120  0.00  0.00    +0.000 A 
ATOM     10  O   UNL     1       6.046   3.839  18.609  0.00  0.00    +0.000 OA
ATOM     11  C   UNL     1       6.818   4.741  17.901  0.00  0.00    +0.000 A 
ATOM     12  O   UNL     1       7.947   4.467  17.520  0.00  0.00    +0.000 OA
ENDROOT
BRANCH   6  13
ATOM     13  O   UNL     1       1.065   5.252  20.635  0.00  0.00    +0.000 OA
ATOM     14  C   UNL     1       0.879   6.630  20.890  0.00  0.00    +0.000 C 
ENDBRANCH   6  13
BRANCH   7  15
ATOM     15  O   UNL     1       2.211   2.450  21.117  0.00  0.00    +0.000 OA
ATOM     16  H   UNL     1       1.292   2.670  21.311  0.00  0.00    +0.000 HD
ENDBRANCH   7  15
BRANCH   8  17
ATOM     17  C   UNL     1       4.702   1.842  20.161  0.00  0.00    +0.000 C 
ATOM     18  O   UNL     1       5.244   1.540  21.217  0.00  0.00    +0.000 OA
ENDBRANCH   8  17
BRANCH   1  19
ATOM     19  C   UNL     1       7.169   7.019  16.926  0.00  0.00    +0.000 C 
BRANCH  19  21
ATOM     20  N   UNL     1       8.061   9.215  17.582  0.00  0.00    +0.000 N 
ATOM     21  C   UNL     1       7.980   7.880  17.899  0.00  0.00    +0.000 C 
ATOM     22  O   UNL     1       8.544   7.390  18.875  0.00  0.00    +0.000 OA
ATOM     23  H   UNL     1       7.602   9.571  16.751  0.00  0.00    +0.000 HD
BRANCH  20  24
ATOM     24  C   UNL     1       8.825  10.163  18.384  0.00  0.00    +0.000 C 
BRANCH  24  25
ATOM     25  C   UNL     1       8.760  11.598  17.850  0.00  0.00    +0.000 C 
BRANCH  25  26
ATOM     26  O   UNL     1       9.981  12.280  18.166  0.00  0.00    +0.000 OA
BRANCH  26  27
ATOM     27  C   UNL     1       9.944  13.644  17.753  0.00  0.00    +0.000 C 
BRANCH  27  29
ATOM     28  C   UNL     1      11.200  15.441  16.890  0.00  0.00    +0.000 C 
ATOM     29  O   UNL     1      11.091  14.029  17.002  0.00  0.00    +0.000 OA
ENDBRANCH  27  29
ENDBRANCH  26  27
ENDBRANCH  25  26
ENDBRANCH  24  25
ENDBRANCH  20  24
ENDBRANCH  19  21
ENDBRANCH   1  19
TORSDOF 10
ENDMDL
MODEL 8
REMARK VINA RESULT:      -6.2      2.140      3.723
REMARK  Name = 
REMARK  13 active torsions:
REMARK  status: ('A' for Active; 'I' for Inactive)
REMARK    1  A    between atoms: C_1  and  O_2
REMARK    2  A    between atoms: O_2  and  C_3
REMARK    3  A    between atoms: C_3  and  O_4
REMARK    4  A    between atoms: O_4  and  C_5
REMARK    5  A    between atoms: C_5  and  C_6
REMARK    6  A    between atoms: C_6  and  N_7
REMARK    7  A    between atoms: C_8  and  C_10
REMARK    8  A    between atoms: C_10  and  C_11
REMARK    9  A    between atoms: C_12  and  C_13
REMARK   10  A    between atoms: C_16  and  O_17
REMARK   11  A    between atoms: O_17  and  C_18
REMARK   12  A    between atoms: C_19  and  O_20
REMARK   13  A    between atoms: C_21  and  C_22
REMARK                            x       y       z     vdW  Elec       q    Type
REMARK                         _______ _______ _______ _____ _____    ______ ____
ROOT
ATOM      1  C   UNL     1       1.633   8.621  19.748  0.00  0.00    +0.000 A 
ATOM      2  C   UNL     1       2.249   7.936  18.760  0.00  0.00    +0.000 A 
ATOM      3  C   UNL     1       2.814   8.599  17.529  0.00  0.00    +0.000 C 
ATOM      4  C   UNL     1       2.414   6.467  18.880  0.00  0.00    +0.000 A 
ATOM      5  C   UNL     1       2.914   5.661  17.844  0.00  0.00    +0.000 A 
ATOM      6  C   UNL     1       3.101   4.268  17.973  0.00  0.00    +0.000 A 
ATOM      7  C   UNL     1       2.759   3.660  19.184  0.00  0.00    +0.000 A 
ATOM      8  C   UNL     1       2.214   4.442  20.227  0.00  0.00    +0.000 A 
ATOM      9  C   UNL     1       2.045   5.829  20.057  0.00  0.00    +0.000 A 
ATOM     10  O   UNL     1       1.482   6.585  21.098  0.00  0.00    +0.000 OA
ATOM     11  C   UNL     1       1.220   7.940  21.006  0.00  0.00    +0.000 A 
ATOM     12  O   UNL     1       0.676   8.557  21.911  0.00  0.00    +0.000 OA
ENDROOT
BRANCH   6  13
ATOM     13  O   UNL     1       3.625   3.750  16.823  0.00  0.00    +0.000 OA
ATOM     14  C   UNL     1       4.860   4.167  16.277  0.00  0.00    +0.000 C 
ENDBRANCH   6  13
BRANCH   7  15
ATOM     15  O   UNL     1       2.926   2.329  19.447  0.00  0.00    +0.000 OA
ATOM     16  H   UNL     1       2.362   2.048  20.176  0.00  0.00    +0.000 HD
ENDBRANCH   7  15
BRANCH   8  17
ATOM     17  C   UNL     1       1.800   3.765  21.487  0.00  0.00    +0.000 C 
ATOM     18  O   UNL     1       2.487   2.949  22.088  0.00  0.00    +0.000 OA
ENDBRANCH   8  17
BRANCH   1  19
ATOM     19  C   UNL     1       1.218  10.078  19.704  0.00  0.00    +0.000 C 
BRANCH  19  21
ATOM     20  N   UNL     1      -0.374  10.202  17.834  0.00  0.00    +0.000 N 
ATOM     21  C   UNL     1      -0.212  10.284  19.196  0.00  0.00    +0.000 C 
ATOM     22  O   UNL     1      -1.137  10.541  19.964  0.00  0.00    +0.000 OA
ATOM     23  H   UNL     1       0.423  10.014  17.235  0.00  0.00    +0.000 HD
BRANCH  20  24
ATOM     24  C   UNL     1      -1.664  10.410  17.186  0.00  0.00    +0.000 C 
BRANCH  24  25
ATOM     25  C   UNL     1      -2.782   9.540  17.769  0.00  0.00    +0.000 C 
BRANCH  25  26
ATOM     26  O   UNL     1      -4.046  10.178  17.550  0.00  0.00    +0.000 OA
BRANCH  26  27
ATOM     27  C   UNL     1      -4.010  11.558  17.910  0.00  0.00    +0.000 C 
BRANCH  27  29
ATOM     28  C   UNL     1      -3.935  12.627  20.008  0.00  0.00    +0.000 C 
ATOM     29  O   UNL     1      -4.710  11.836  19.118  0.00  0.00    +0.000 OA
ENDBRANCH  27  29
ENDBRANCH  26  27
ENDBRANCH  25  26
ENDBRANCH  24  25
ENDBRANCH  20  24
ENDBRANCH  19  21
ENDBRANCH   1  19
TORSDOF 10
ENDMDL
MODEL 9
REMARK VINA RESULT:      -6.2      3.908      8.269
REMARK  Name = 
REMARK  13 active torsions:
REMARK  status: ('A' for Active; 'I' for Inactive)
REMARK    1  A    between atoms: C_1  and  O_2
REMARK    2  A    between atoms: O_2  and  C_3
REMARK    3  A    between atoms: C_3  and  O_4
REMARK    4  A    between atoms: O_4  and  C_5
REMARK    5  A    between atoms: C_5  and  C_6
REMARK    6  A    between atoms: C_6  and  N_7
REMARK    7  A    between atoms: C_8  and  C_10
REMARK    8  A    between atoms: C_10  and  C_11
REMARK    9  A    between atoms: C_12  and  C_13
REMARK   10  A    between atoms: C_16  and  O_17
REMARK   11  A    between atoms: O_17  and  C_18
REMARK   12  A    between atoms: C_19  and  O_20
REMARK   13  A    between atoms: C_21  and  C_22
REMARK                            x       y       z     vdW  Elec       q    Type
REMARK                         _______ _______ _______ _____ _____    ______ ____
ROOT
ATOM      1  C   UNL     1       2.363   6.171  19.275  0.00  0.00    +0.000 A 
ATOM      2  C   UNL     1       2.279   7.350  18.621  0.00  0.00    +0.000 A 
ATOM      3  C   UNL     1       2.674   7.517  17.175  0.00  0.00    +0.000 C 
ATOM      4  C   UNL     1       1.752   8.543  19.326  0.00  0.00    +0.000 A 
ATOM      5  C   UNL     1       1.760   9.833  18.769  0.00  0.00    +0.000 A 
ATOM      6  C   UNL     1       1.227  10.960  19.429  0.00  0.00    +0.000 A 
ATOM      7  C   UNL     1       0.679  10.788  20.704  0.00  0.00    +0.000 A 
ATOM      8  C   UNL     1       0.697   9.509  21.304  0.00  0.00    +0.000 A 
ATOM      9  C   UNL     1       1.237   8.410  20.609  0.00  0.00    +0.000 A 
ATOM     10  O   UNL     1       1.265   7.151  21.231  0.00  0.00    +0.000 OA
ATOM     11  C   UNL     1       1.828   6.025  20.657  0.00  0.00    +0.000 A 
ATOM     12  O   UNL     1       1.887   4.957  21.249  0.00  0.00    +0.000 OA
ENDROOT
BRANCH   6  13
ATOM     13  O   UNL     1       1.345  12.071  18.644  0.00  0.00    +0.000 OA
ATOM     14  C   UNL     1       2.175  13.167  18.971  0.00  0.00    +0.000 C 
ENDBRANCH   6  13
BRANCH   7  15
ATOM     15  O   UNL     1       0.101  11.791  21.431  0.00  0.00    +0.000 OA
ATOM     16  H   UNL     1      -0.727  11.497  21.827  0.00  0.00    +0.000 HD
ENDBRANCH   7  15
BRANCH   8  17
ATOM     17  C   UNL     1       0.163   9.359  22.685  0.00  0.00    +0.000 C 
ATOM     18  O   UNL     1      -0.875   9.873  23.081  0.00  0.00    +0.000 OA
ENDBRANCH   8  17
BRANCH   1  19
ATOM     19  C   UNL     1       3.043   4.913  18.773  0.00  0.00    +0.000 C 
BRANCH  19  21
ATOM     20  N   UNL     1       5.126   4.654  17.492  0.00  0.00    +0.000 N 
ATOM     21  C   UNL     1       4.566   5.043  18.685  0.00  0.00    +0.000 C 
ATOM     22  O   UNL     1       5.234   5.436  19.639  0.00  0.00    +0.000 OA
ATOM     23  H   UNL     1       4.538   4.310  16.740  0.00  0.00    +0.000 HD
BRANCH  20  24
ATOM     24  C   UNL     1       6.565   4.680  17.258  0.00  0.00    +0.000 C 
BRANCH  24  25
ATOM     25  C   UNL     1       6.956   5.406  15.966  0.00  0.00    +0.000 C 
BRANCH  25  26
ATOM     26  O   UNL     1       7.775   6.538  16.285  0.00  0.00    +0.000 OA
BRANCH  26  27
ATOM     27  C   UNL     1       7.203   7.325  17.327  0.00  0.00    +0.000 C 
BRANCH  27  29
ATOM     28  C   UNL     1       8.380   9.186  18.167  0.00  0.00    +0.000 C 
ATOM     29  O   UNL     1       8.167   7.785  18.269  0.00  0.00    +0.000 OA
ENDBRANCH  27  29
ENDBRANCH  26  27
ENDBRANCH  25  26
ENDBRANCH  24  25
ENDBRANCH  20  24
ENDBRANCH  19  21
ENDBRANCH   1  19
TORSDOF 10
ENDMDL
