MODEL 1
REMARK VINA RESULT:      -9.1      0.000      0.000
REMARK  Name = 
REMARK  6 active torsions:
REMARK  status: ('A' for Active; 'I' for Inactive)
REMARK    1  A    between atoms: N_4  and  C_5
REMARK    2  A    between atoms: C_5  and  C_6
REMARK    3  A    between atoms: N_10  and  C_11
REMARK    4  A    between atoms: C_11  and  C_12
REMARK    5  A    between atoms: C_15  and  C_16
REMARK    6  A    between atoms: N_26  and  C_27
REMARK                            x       y       z     vdW  Elec       q    Type
REMARK                         _______ _______ _______ _____ _____    ______ ____
ROOT
ATOM      1  C   UNL     1       2.121   4.345  18.788  0.00  0.00    +0.000 A 
ATOM      2  C   UNL     1       1.371   3.185  18.833  0.00  0.00    +0.000 A 
ATOM      3  N   UNL     1       0.729   3.050  20.033  0.00  0.00    +0.000 NA
ATOM      4  C   UNL     1       1.076   4.108  20.728  0.00  0.00    +0.000 A 
ATOM      5  N   UNL     1       1.902   4.936  20.017  0.00  0.00    +0.000 N 
ENDROOT
BRANCH   1   6
ATOM      6  C   UNL     1       2.974   4.883  17.695  0.00  0.00    +0.000 C 
BRANCH   6  10
ATOM      7  O   UNL     1       5.098   7.110  15.174  0.00  0.00    +0.000 OA
ATOM      8  C   UNL     1       5.210   6.190  15.989  0.00  0.00    +0.000 C 
ATOM      9  C   UNL     1       4.842   6.463  17.453  0.00  0.00    +0.000 C 
ATOM     10  N   UNL     1       4.304   5.294  18.175  0.00  0.00    +0.000 NA
ATOM     11  C   UNL     1       5.295   4.218  18.061  0.00  0.00    +0.000 C 
ATOM     12  C   UNL     1       5.509   3.783  16.609  0.00  0.00    +0.000 C 
ATOM     13  N   UNL     1       5.691   4.906  15.675  0.00  0.00    +0.000 N 
BRANCH  13  14
ATOM     14  C   UNL     1       6.194   4.603  14.365  0.00  0.00    +0.000 A 
ATOM     15  C   UNL     1       7.340   5.244  13.870  0.00  0.00    +0.000 A 
ATOM     16  C   UNL     1       7.858   4.936  12.608  0.00  0.00    +0.000 A 
ATOM     17  C   UNL     1       7.225   3.988  11.809  0.00  0.00    +0.000 A 
ATOM     18  C   UNL     1       6.086   3.346  12.285  0.00  0.00    +0.000 A 
ATOM     19 CL   UNL     1       5.286   2.188  11.294  0.00  0.00    +0.000 Cl
ATOM     20  C   UNL     1       5.579   3.638  13.553  0.00  0.00    +0.000 A 
ENDBRANCH  13  14
ENDBRANCH   6  10
ENDBRANCH   1   6
BRANCH   5  21
ATOM     21  C   UNL     1       2.513   6.135  20.576  0.00  0.00    +0.000 C 
BRANCH  21  22
ATOM     22  C   UNL     1       1.807   7.426  20.219  0.00  0.00    +0.000 A 
ATOM     23  C   UNL     1       1.043   8.073  21.199  0.00  0.00    +0.000 A 
ATOM     24  C   UNL     1       0.535   9.361  20.983  0.00  0.00    +0.000 A 
ATOM     25  C   UNL     1       0.796  10.069  19.799  0.00  0.00    +0.000 A 
ATOM     26  C   UNL     1       1.492   9.379  18.792  0.00  0.00    +0.000 A 
ATOM     27  C   UNL     1       1.991   8.082  18.997  0.00  0.00    +0.000 A 
BRANCH  25  28
ATOM     28  C   UNL     1       0.425  11.500  19.658  0.00  0.00    +0.000 A 
ATOM     29  C   UNL     1      -0.307  11.943  18.537  0.00  0.00    +0.000 A 
ATOM     30  C   UNL     1      -0.707  13.274  18.397  0.00  0.00    +0.000 A 
ATOM     31  C   UNL     1      -0.395  14.201  19.383  0.00  0.00    +0.000 A 
ATOM     32  C   UNL     1       0.321  13.793  20.508  0.00  0.00    +0.000 A 
ATOM     33  C   UNL     1       0.729  12.459  20.641  0.00  0.00    +0.000 A 
ENDBRANCH  25  28
ENDBRANCH  21  22
ENDBRANCH   5  21
TORSDOF 6
ENDMDL
MODEL 2
REMARK VINA RESULT:      -8.6      0.724      1.062
REMARK  Name = 
REMARK  6 active torsions:
REMARK  status: ('A' for Active; 'I' for Inactive)
REMARK    1  A    between atoms: N_4  and  C_5
REMARK    2  A    between atoms: C_5  and  C_6
REMARK    3  A    between atoms: N_10  and  C_11
REMARK    4  A    between atoms: C_11  and  C_12
REMARK    5  A    between atoms: C_15  and  C_16
REMARK    6  A    between atoms: N_26  and  C_27
REMARK                            x       y       z     vdW  Elec       q    Type
REMARK                         _______ _______ _______ _____ _____    ______ ____
ROOT
ATOM      1  C   UNL     1       2.239   4.444  18.805  0.00  0.00    +0.000 A 
ATOM      2  C   UNL     1       1.482   3.304  18.996  0.00  0.00    +0.000 A 
ATOM      3  N   UNL     1       0.816   3.340  20.189  0.00  0.00    +0.000 NA
ATOM      4  C   UNL     1       1.154   4.483  20.737  0.00  0.00    +0.000 A 
ATOM      5  N   UNL     1       1.999   5.202  19.934  0.00  0.00    +0.000 N 
ENDROOT
BRANCH   1   6
ATOM      6  C   UNL     1       3.118   4.821  17.665  0.00  0.00    +0.000 C 
BRANCH   6  10
ATOM      7  O   UNL     1       5.057   7.103  15.046  0.00  0.00    +0.000 OA
ATOM      8  C   UNL     1       5.240   6.217  15.886  0.00  0.00    +0.000 C 
ATOM      9  C   UNL     1       4.875   6.511  17.347  0.00  0.00    +0.000 C 
ATOM     10  N   UNL     1       4.425   5.332  18.112  0.00  0.00    +0.000 NA
ATOM     11  C   UNL     1       5.482   4.319  18.013  0.00  0.00    +0.000 C 
ATOM     12  C   UNL     1       5.703   3.855  16.572  0.00  0.00    +0.000 C 
ATOM     13  N   UNL     1       5.799   4.957  15.602  0.00  0.00    +0.000 N 
BRANCH  13  14
ATOM     14  C   UNL     1       6.302   4.648  14.295  0.00  0.00    +0.000 A 
ATOM     15  C   UNL     1       7.412   5.330  13.772  0.00  0.00    +0.000 A 
ATOM     16  C   UNL     1       7.931   5.017  12.512  0.00  0.00    +0.000 A 
ATOM     17  C   UNL     1       7.335   4.022  11.742  0.00  0.00    +0.000 A 
ATOM     18  C   UNL     1       6.233   3.339  12.245  0.00  0.00    +0.000 A 
ATOM     19 CL   UNL     1       5.478   2.121  11.291  0.00  0.00    +0.000 Cl
ATOM     20  C   UNL     1       5.725   3.636  13.512  0.00  0.00    +0.000 A 
ENDBRANCH  13  14
ENDBRANCH   6  10
ENDBRANCH   1   6
BRANCH   5  21
ATOM     21  C   UNL     1       2.605   6.465  20.333  0.00  0.00    +0.000 C 
BRANCH  21  22
ATOM     22  C   UNL     1       1.677   7.659  20.260  0.00  0.00    +0.000 A 
ATOM     23  C   UNL     1       0.916   7.995  21.388  0.00  0.00    +0.000 A 
ATOM     24  C   UNL     1       0.197   9.196  21.440  0.00  0.00    +0.000 A 
ATOM     25  C   UNL     1       0.233  10.125  20.388  0.00  0.00    +0.000 A 
ATOM     26  C   UNL     1       0.932   9.741  19.231  0.00  0.00    +0.000 A 
ATOM     27  C   UNL     1       1.643   8.532  19.166  0.00  0.00    +0.000 A 
BRANCH  25  28
ATOM     28  C   UNL     1      -0.367  11.476  20.531  0.00  0.00    +0.000 A 
ATOM     29  C   UNL     1       0.339  12.508  21.184  0.00  0.00    +0.000 A 
ATOM     30  C   UNL     1      -0.181  13.801  21.296  0.00  0.00    +0.000 A 
ATOM     31  C   UNL     1      -1.421  14.101  20.747  0.00  0.00    +0.000 A 
ATOM     32  C   UNL     1      -2.140  13.104  20.088  0.00  0.00    +0.000 A 
ATOM     33  C   UNL     1      -1.620  11.807  19.985  0.00  0.00    +0.000 A 
ENDBRANCH  25  28
ENDBRANCH  21  22
ENDBRANCH   5  21
TORSDOF 6
ENDMDL
MODEL 3
REMARK VINA RESULT:      -8.5      2.092      2.912
REMARK  Name = 
REMARK  6 active torsions:
REMARK  status: ('A' for Active; 'I' for Inactive)
REMARK    1  A    between atoms: N_4  and  C_5
REMARK    2  A    between atoms: C_5  and  C_6
REMARK    3  A    between atoms: N_10  and  C_11
REMARK    4  A    between atoms: C_11  and  C_12
REMARK    5  A    between atoms: C_15  and  C_16
REMARK    6  A    between atoms: N_26  and  C_27
REMARK                            x       y       z     vdW  Elec       q    Type
REMARK                         _______ _______ _______ _____ _____    ______ ____
ROOT
ATOM      1  C   UNL     1       2.877   6.694  19.090  0.00  0.00    +0.000 A 
ATOM      2  C   UNL     1       2.459   5.979  20.196  0.00  0.00    +0.000 A 
ATOM      3  N   UNL     1       1.544   6.681  20.930  0.00  0.00    +0.000 NA
ATOM      4  C   UNL     1       1.395   7.819  20.294  0.00  0.00    +0.000 A 
ATOM      5  N   UNL     1       2.164   7.874  19.162  0.00  0.00    +0.000 N 
ENDROOT
BRANCH   1   6
ATOM      6  C   UNL     1       3.857   6.323  18.033  0.00  0.00    +0.000 C 
BRANCH   6  10
ATOM      7  O   UNL     1       7.434   6.553  16.309  0.00  0.00    +0.000 OA
ATOM      8  C   UNL     1       6.607   5.737  16.726  0.00  0.00    +0.000 C 
ATOM      9  C   UNL     1       6.243   5.763  18.216  0.00  0.00    +0.000 C 
ATOM     10  N   UNL     1       4.857   5.355  18.513  0.00  0.00    +0.000 NA
ATOM     11  C   UNL     1       4.663   4.021  17.933  0.00  0.00    +0.000 C 
ATOM     12  C   UNL     1       4.807   4.027  16.410  0.00  0.00    +0.000 C 
ATOM     13  N   UNL     1       5.994   4.752  15.930  0.00  0.00    +0.000 N 
BRANCH  13  14
ATOM     14  C   UNL     1       6.380   4.560  14.561  0.00  0.00    +0.000 A 
ATOM     15  C   UNL     1       7.432   5.300  14.000  0.00  0.00    +0.000 A 
ATOM     16  C   UNL     1       7.837   5.100  12.677  0.00  0.00    +0.000 A 
ATOM     17  C   UNL     1       7.182   4.163  11.883  0.00  0.00    +0.000 A 
ATOM     18  C   UNL     1       6.136   3.423  12.424  0.00  0.00    +0.000 A 
ATOM     19 CL   UNL     1       5.308   2.276  11.442  0.00  0.00    +0.000 Cl
ATOM     20  C   UNL     1       5.743   3.607  13.751  0.00  0.00    +0.000 A 
ENDBRANCH  13  14
ENDBRANCH   6  10
ENDBRANCH   1   6
BRANCH   5  21
ATOM     21  C   UNL     1       2.264   9.056  18.316  0.00  0.00    +0.000 C 
BRANCH  21  22
ATOM     22  C   UNL     1       0.992   9.872  18.220  0.00  0.00    +0.000 A 
ATOM     23  C   UNL     1      -0.113   9.326  17.553  0.00  0.00    +0.000 A 
ATOM     24  C   UNL     1      -1.367   9.949  17.606  0.00  0.00    +0.000 A 
ATOM     25  C   UNL     1      -1.578  11.120  18.352  0.00  0.00    +0.000 A 
ATOM     26  C   UNL     1      -0.446  11.701  18.948  0.00  0.00    +0.000 A 
ATOM     27  C   UNL     1       0.816  11.090  18.886  0.00  0.00    +0.000 A 
BRANCH  25  28
ATOM     28  C   UNL     1      -2.944  11.662  18.565  0.00  0.00    +0.000 A 
ATOM     29  C   UNL     1      -3.945  11.486  17.587  0.00  0.00    +0.000 A 
ATOM     30  C   UNL     1      -5.251  11.947  17.777  0.00  0.00    +0.000 A 
ATOM     31  C   UNL     1      -5.595  12.590  18.959  0.00  0.00    +0.000 A 
ATOM     32  C   UNL     1      -4.630  12.772  19.949  0.00  0.00    +0.000 A 
ATOM     33  C   UNL     1      -3.320  12.317  19.752  0.00  0.00    +0.000 A 
ENDBRANCH  25  28
ENDBRANCH  21  22
ENDBRANCH   5  21
TORSDOF 6
ENDMDL
MODEL 4
REMARK VINA RESULT:      -8.4      5.676     11.300
REMARK  Name = 
REMARK  6 active torsions:
REMARK  status: ('A' for Active; 'I' for Inactive)
REMARK    1  A    between atoms: N_4  and  C_5
REMARK    2  A    between atoms: C_5  and  C_6
REMARK    3  A    between atoms: N_10  and  C_11
REMARK    4  A    between atoms: C_11  and  C_12
REMARK    5  A    between atoms: C_15  and  C_16
REMARK    6  A    between atoms: N_26  and  C_27
REMARK                            x       y       z     vdW  Elec       q    Type
REMARK                         _______ _______ _______ _____ _____    ______ ____
ROOT
ATOM      1  C   UNL     1       0.986  12.568  20.273  0.00  0.00    +0.000 A 
ATOM      2  C   UNL     1       1.938  13.569  20.290  0.00  0.00    +0.000 A 
ATOM      3  N   UNL     1       2.739  13.517  19.183  0.00  0.00    +0.000 NA
ATOM      4  C   UNL     1       2.297  12.497  18.487  0.00  0.00    +0.000 A 
ATOM      5  N   UNL     1       1.224  11.896  19.089  0.00  0.00    +0.000 N 
ENDROOT
BRANCH   1   6
ATOM      6  C   UNL     1      -0.076  12.249  21.265  0.00  0.00    +0.000 C 
BRANCH   6  10
ATOM      7  O   UNL     1      -3.334  11.797  23.502  0.00  0.00    +0.000 OA
ATOM      8  C   UNL     1      -2.756  12.616  22.781  0.00  0.00    +0.000 C 
ATOM      9  C   UNL     1      -1.354  13.086  23.191  0.00  0.00    +0.000 C 
ATOM     10  N   UNL     1      -0.469  13.425  22.060  0.00  0.00    +0.000 NA
ATOM     11  C   UNL     1      -1.162  14.436  21.253  0.00  0.00    +0.000 C 
ATOM     12  C   UNL     1      -2.465  13.901  20.653  0.00  0.00    +0.000 C 
ATOM     13  N   UNL     1      -3.310  13.182  21.619  0.00  0.00    +0.000 N 
BRANCH  13  14
ATOM     14  C   UNL     1      -4.668  12.912  21.239  0.00  0.00    +0.000 A 
ATOM     15  C   UNL     1      -5.739  13.492  21.938  0.00  0.00    +0.000 A 
ATOM     16  C   UNL     1      -7.064  13.261  21.559  0.00  0.00    +0.000 A 
ATOM     17  C   UNL     1      -7.344  12.429  20.479  0.00  0.00    +0.000 A 
ATOM     18  C   UNL     1      -6.294  11.844  19.778  0.00  0.00    +0.000 A 
ATOM     19 CL   UNL     1      -6.633  10.798  18.454  0.00  0.00    +0.000 Cl
ATOM     20  C   UNL     1      -4.968  12.089  20.142  0.00  0.00    +0.000 A 
ENDBRANCH  13  14
ENDBRANCH   6  10
ENDBRANCH   1   6
BRANCH   5  21
ATOM     21  C   UNL     1       0.592  10.685  18.583  0.00  0.00    +0.000 C 
BRANCH  21  22
ATOM     22  C   UNL     1       1.312   9.402  18.942  0.00  0.00    +0.000 A 
ATOM     23  C   UNL     1       1.185   8.897  20.243  0.00  0.00    +0.000 A 
ATOM     24  C   UNL     1       1.663   7.621  20.569  0.00  0.00    +0.000 A 
ATOM     25  C   UNL     1       2.254   6.785  19.608  0.00  0.00    +0.000 A 
ATOM     26  C   UNL     1       2.449   7.334  18.330  0.00  0.00    +0.000 A 
ATOM     27  C   UNL     1       1.986   8.618  18.000  0.00  0.00    +0.000 A 
BRANCH  25  28
ATOM     28  C   UNL     1       2.577   5.368  19.912  0.00  0.00    +0.000 A 
ATOM     29  C   UNL     1       3.605   4.702  19.213  0.00  0.00    +0.000 A 
ATOM     30  C   UNL     1       3.961   3.382  19.506  0.00  0.00    +0.000 A 
ATOM     31  C   UNL     1       3.302   2.693  20.517  0.00  0.00    +0.000 A 
ATOM     32  C   UNL     1       2.286   3.327  21.231  0.00  0.00    +0.000 A 
ATOM     33  C   UNL     1       1.926   4.646  20.929  0.00  0.00    +0.000 A 
ENDBRANCH  25  28
ENDBRANCH  21  22
ENDBRANCH   5  21
TORSDOF 6
ENDMDL
MODEL 5
REMARK VINA RESULT:      -8.4      1.363      1.795
REMARK  Name = 
REMARK  6 active torsions:
REMARK  status: ('A' for Active; 'I' for Inactive)
REMARK    1  A    between atoms: N_4  and  C_5
REMARK    2  A    between atoms: C_5  and  C_6
REMARK    3  A    between atoms: N_10  and  C_11
REMARK    4  A    between atoms: C_11  and  C_12
REMARK    5  A    between atoms: C_15  and  C_16
REMARK    6  A    between atoms: N_26  and  C_27
REMARK                            x       y       z     vdW  Elec       q    Type
REMARK                         _______ _______ _______ _____ _____    ______ ____
ROOT
ATOM      1  C   UNL     1       3.884   4.140  18.348  0.00  0.00    +0.000 A 
ATOM      2  C   UNL     1       3.251   3.532  17.281  0.00  0.00    +0.000 A 
ATOM      3  N   UNL     1       1.937   3.901  17.202  0.00  0.00    +0.000 NA
ATOM      4  C   UNL     1       1.751   4.724  18.207  0.00  0.00    +0.000 A 
ATOM      5  N   UNL     1       2.900   4.921  18.924  0.00  0.00    +0.000 N 
ENDROOT
BRANCH   1   6
ATOM      6  C   UNL     1       5.294   4.024  18.809  0.00  0.00    +0.000 C 
BRANCH   6  10
ATOM      7  O   UNL     1       4.527   6.199  15.569  0.00  0.00    +0.000 OA
ATOM      8  C   UNL     1       5.450   5.857  16.314  0.00  0.00    +0.000 C 
ATOM      9  C   UNL     1       5.382   6.260  17.792  0.00  0.00    +0.000 C 
ATOM     10  N   UNL     1       6.019   5.302  18.716  0.00  0.00    +0.000 NA
ATOM     11  C   UNL     1       7.406   5.124  18.269  0.00  0.00    +0.000 C 
ATOM     12  C   UNL     1       7.486   4.511  16.869  0.00  0.00    +0.000 C 
ATOM     13  N   UNL     1       6.589   5.148  15.891  0.00  0.00    +0.000 N 
BRANCH  13  14
ATOM     14  C   UNL     1       6.808   4.856  14.503  0.00  0.00    +0.000 A 
ATOM     15  C   UNL     1       7.757   5.573  13.758  0.00  0.00    +0.000 A 
ATOM     16  C   UNL     1       8.000   5.278  12.414  0.00  0.00    +0.000 A 
ATOM     17  C   UNL     1       7.282   4.266  11.783  0.00  0.00    +0.000 A 
ATOM     18  C   UNL     1       6.336   3.549  12.506  0.00  0.00    +0.000 A 
ATOM     19 CL   UNL     1       5.429   2.309  11.728  0.00  0.00    +0.000 Cl
ATOM     20  C   UNL     1       6.105   3.828  13.855  0.00  0.00    +0.000 A 
ENDBRANCH  13  14
ENDBRANCH   6  10
ENDBRANCH   1   6
BRANCH   5  21
ATOM     21  C   UNL     1       2.961   5.714  20.145  0.00  0.00    +0.000 C 
BRANCH  21  22
ATOM     22  C   UNL     1       2.255   7.051  20.062  0.00  0.00    +0.000 A 
ATOM     23  C   UNL     1       2.291   7.762  18.855  0.00  0.00    +0.000 A 
ATOM     24  C   UNL     1       1.496   8.899  18.665  0.00  0.00    +0.000 A 
ATOM     25  C   UNL     1       0.610   9.355  19.654  0.00  0.00    +0.000 A 
ATOM     26  C   UNL     1       0.643   8.684  20.888  0.00  0.00    +0.000 A 
ATOM     27  C   UNL     1       1.449   7.552  21.090  0.00  0.00    +0.000 A 
BRANCH  25  28
ATOM     28  C   UNL     1      -0.369  10.437  19.374  0.00  0.00    +0.000 A 
ATOM     29  C   UNL     1      -1.060  10.477  18.146  0.00  0.00    +0.000 A 
ATOM     30  C   UNL     1      -2.017  11.457  17.870  0.00  0.00    +0.000 A 
ATOM     31  C   UNL     1      -2.320  12.421  18.824  0.00  0.00    +0.000 A 
ATOM     32  C   UNL     1      -1.659  12.403  20.052  0.00  0.00    +0.000 A 
ATOM     33  C   UNL     1      -0.694  11.424  20.321  0.00  0.00    +0.000 A 
ENDBRANCH  25  28
ENDBRANCH  21  22
ENDBRANCH   5  21
TORSDOF 6
ENDMDL
MODEL 6
REMARK VINA RESULT:      -8.4      1.234      1.454
REMARK  Name = 
REMARK  6 active torsions:
REMARK  status: ('A' for Active; 'I' for Inactive)
REMARK    1  A    between atoms: N_4  and  C_5
REMARK    2  A    between atoms: C_5  and  C_6
REMARK    3  A    between atoms: N_10  and  C_11
REMARK    4  A    between atoms: C_11  and  C_12
REMARK    5  A    between atoms: C_15  and  C_16
REMARK    6  A    between atoms: N_26  and  C_27
REMARK                            x       y       z     vdW  Elec       q    Type
REMARK                         _______ _______ _______ _____ _____    ______ ____
ROOT
ATOM      1  C   UNL     1       3.948   4.084  18.341  0.00  0.00    +0.000 A 
ATOM      2  C   UNL     1       3.355   3.305  17.365  0.00  0.00    +0.000 A 
ATOM      3  N   UNL     1       2.050   3.660  17.166  0.00  0.00    +0.000 NA
ATOM      4  C   UNL     1       1.829   4.642  18.008  0.00  0.00    +0.000 A 
ATOM      5  N   UNL     1       2.949   4.954  18.732  0.00  0.00    +0.000 N 
ENDROOT
BRANCH   1   6
ATOM      6  C   UNL     1       5.335   4.043  18.877  0.00  0.00    +0.000 C 
BRANCH   6  10
ATOM      7  O   UNL     1       4.484   6.141  15.606  0.00  0.00    +0.000 OA
ATOM      8  C   UNL     1       5.421   5.841  16.352  0.00  0.00    +0.000 C 
ATOM      9  C   UNL     1       5.345   6.265  17.824  0.00  0.00    +0.000 C 
ATOM     10  N   UNL     1       6.018   5.343  18.760  0.00  0.00    +0.000 NA
ATOM     11  C   UNL     1       7.407   5.204  18.310  0.00  0.00    +0.000 C 
ATOM     12  C   UNL     1       7.503   4.572  16.919  0.00  0.00    +0.000 C 
ATOM     13  N   UNL     1       6.581   5.164  15.936  0.00  0.00    +0.000 N 
BRANCH  13  14
ATOM     14  C   UNL     1       6.803   4.857  14.552  0.00  0.00    +0.000 A 
ATOM     15  C   UNL     1       7.771   5.550  13.808  0.00  0.00    +0.000 A 
ATOM     16  C   UNL     1       8.018   5.241  12.467  0.00  0.00    +0.000 A 
ATOM     17  C   UNL     1       7.285   4.237  11.839  0.00  0.00    +0.000 A 
ATOM     18  C   UNL     1       6.321   3.543  12.561  0.00  0.00    +0.000 A 
ATOM     19 CL   UNL     1       5.397   2.315  11.786  0.00  0.00    +0.000 Cl
ATOM     20  C   UNL     1       6.087   3.837  13.907  0.00  0.00    +0.000 A 
ENDBRANCH  13  14
ENDBRANCH   6  10
ENDBRANCH   1   6
BRANCH   5  21
ATOM     21  C   UNL     1       2.964   5.942  19.802  0.00  0.00    +0.000 C 
BRANCH  21  22
ATOM     22  C   UNL     1       2.223   7.224  19.486  0.00  0.00    +0.000 A 
ATOM     23  C   UNL     1       1.575   7.905  20.525  0.00  0.00    +0.000 A 
ATOM     24  C   UNL     1       1.047   9.188  20.327  0.00  0.00    +0.000 A 
ATOM     25  C   UNL     1       1.173   9.857  19.099  0.00  0.00    +0.000 A 
ATOM     26  C   UNL     1       1.751   9.132  18.042  0.00  0.00    +0.000 A 
ATOM     27  C   UNL     1       2.269   7.841  18.230  0.00  0.00    +0.000 A 
BRANCH  25  28
ATOM     28  C   UNL     1       0.790  11.284  18.955  0.00  0.00    +0.000 A 
ATOM     29  C   UNL     1      -0.530  11.639  18.608  0.00  0.00    +0.000 A 
ATOM     30  C   UNL     1      -0.933  12.974  18.507  0.00  0.00    +0.000 A 
ATOM     31  C   UNL     1      -0.025  13.994  18.762  0.00  0.00    +0.000 A 
ATOM     32  C   UNL     1       1.286  13.675  19.115  0.00  0.00    +0.000 A 
ATOM     33  C   UNL     1       1.688  12.337  19.206  0.00  0.00    +0.000 A 
ENDBRANCH  25  28
ENDBRANCH  21  22
ENDBRANCH   5  21
TORSDOF 6
ENDMDL
MODEL 7
REMARK VINA RESULT:      -8.3      3.085      8.757
REMARK  Name = 
REMARK  6 active torsions:
REMARK  status: ('A' for Active; 'I' for Inactive)
REMARK    1  A    between atoms: N_4  and  C_5
REMARK    2  A    between atoms: C_5  and  C_6
REMARK    3  A    between atoms: N_10  and  C_11
REMARK    4  A    between atoms: C_11  and  C_12
REMARK    5  A    between atoms: C_15  and  C_16
REMARK    6  A    between atoms: N_26  and  C_27
REMARK                            x       y       z     vdW  Elec       q    Type
REMARK                         _______ _______ _______ _____ _____    ______ ____
ROOT
ATOM      1  C   UNL     1       1.914   4.579  19.779  0.00  0.00    +0.000 A 
ATOM      2  C   UNL     1       1.087   3.532  20.139  0.00  0.00    +0.000 A 
ATOM      3  N   UNL     1       1.802   2.476  20.633  0.00  0.00    +0.000 NA
ATOM      4  C   UNL     1       3.056   2.857  20.580  0.00  0.00    +0.000 A 
ATOM      5  N   UNL     1       3.182   4.129  20.089  0.00  0.00    +0.000 N 
ENDROOT
BRANCH   1   6
ATOM      6  C   UNL     1       1.570   5.905  19.199  0.00  0.00    +0.000 C 
BRANCH   6  10
ATOM      7  O   UNL     1       0.044   9.037  21.119  0.00  0.00    +0.000 OA
ATOM      8  C   UNL     1       0.878   8.736  20.260  0.00  0.00    +0.000 C 
ATOM      9  C   UNL     1       2.043   7.823  20.663  0.00  0.00    +0.000 C 
ATOM     10  N   UNL     1       2.536   6.949  19.581  0.00  0.00    +0.000 NA
ATOM     11  C   UNL     1       2.896   7.815  18.453  0.00  0.00    +0.000 C 
ATOM     12  C   UNL     1       1.686   8.570  17.897  0.00  0.00    +0.000 C 
ATOM     13  N   UNL     1       0.856   9.204  18.934  0.00  0.00    +0.000 N 
BRANCH  13  14
ATOM     14  C   UNL     1      -0.112  10.174  18.507  0.00  0.00    +0.000 A 
ATOM     15  C   UNL     1       0.002  11.519  18.890  0.00  0.00    +0.000 A 
ATOM     16  C   UNL     1      -0.916  12.480  18.456  0.00  0.00    +0.000 A 
ATOM     17  C   UNL     1      -1.980  12.105  17.640  0.00  0.00    +0.000 A 
ATOM     18  C   UNL     1      -2.109  10.775  17.255  0.00  0.00    +0.000 A 
ATOM     19 CL   UNL     1      -3.434  10.301  16.263  0.00  0.00    +0.000 Cl
ATOM     20  C   UNL     1      -1.181   9.818  17.670  0.00  0.00    +0.000 A 
ENDBRANCH  13  14
ENDBRANCH   6  10
ENDBRANCH   1   6
BRANCH   5  21
ATOM     21  C   UNL     1       4.466   4.769  19.836  0.00  0.00    +0.000 C 
BRANCH  21  22
ATOM     22  C   UNL     1       5.078   4.443  18.489  0.00  0.00    +0.000 A 
ATOM     23  C   UNL     1       4.231   4.097  17.427  0.00  0.00    +0.000 A 
ATOM     24  C   UNL     1       4.724   3.981  16.121  0.00  0.00    +0.000 A 
ATOM     25  C   UNL     1       6.070   4.238  15.814  0.00  0.00    +0.000 A 
ATOM     26  C   UNL     1       6.924   4.503  16.898  0.00  0.00    +0.000 A 
ATOM     27  C   UNL     1       6.439   4.606  18.211  0.00  0.00    +0.000 A 
BRANCH  25  28
ATOM     28  C   UNL     1       6.541   4.306  14.407  0.00  0.00    +0.000 A 
ATOM     29  C   UNL     1       5.946   3.502  13.414  0.00  0.00    +0.000 A 
ATOM     30  C   UNL     1       6.338   3.574  12.074  0.00  0.00    +0.000 A 
ATOM     31  C   UNL     1       7.331   4.466  11.688  0.00  0.00    +0.000 A 
ATOM     32  C   UNL     1       7.933   5.281  12.646  0.00  0.00    +0.000 A 
ATOM     33  C   UNL     1       7.544   5.199  13.989  0.00  0.00    +0.000 A 
ENDBRANCH  25  28
ENDBRANCH  21  22
ENDBRANCH   5  21
TORSDOF 6
ENDMDL
MODEL 8
REMARK VINA RESULT:      -8.3      3.344      8.859
REMARK  Name = 
REMARK  6 active torsions:
REMARK  status: ('A' for Active; 'I' for Inactive)
REMARK    1  A    between atoms: N_4  and  C_5
REMARK    2  A    between atoms: C_5  and  C_6
REMARK    3  A    between atoms: N_10  and  C_11
REMARK    4  A    between atoms: C_11  and  C_12
REMARK    5  A    between atoms: C_15  and  C_16
REMARK    6  A    between atoms: N_26  and  C_27
REMARK                            x       y       z     vdW  Elec       q    Type
REMARK                         _______ _______ _______ _____ _____    ______ ____
ROOT
ATOM      1  C   UNL     1       1.888   4.526  19.374  0.00  0.00    +0.000 A 
ATOM      2  C   UNL     1       0.937   3.556  19.627  0.00  0.00    +0.000 A 
ATOM      3  N   UNL     1       1.487   2.463  20.237  0.00  0.00    +0.000 NA
ATOM      4  C   UNL     1       2.762   2.745  20.360  0.00  0.00    +0.000 A 
ATOM      5  N   UNL     1       3.059   3.989  19.871  0.00  0.00    +0.000 N 
ENDROOT
BRANCH   1   6
ATOM      6  C   UNL     1       1.738   5.858  18.728  0.00  0.00    +0.000 C 
BRANCH   6  10
ATOM      7  O   UNL     1       0.416   8.833  21.013  0.00  0.00    +0.000 OA
ATOM      8  C   UNL     1       1.207   8.589  20.098  0.00  0.00    +0.000 C 
ATOM      9  C   UNL     1       2.342   7.592  20.363  0.00  0.00    +0.000 C 
ATOM     10  N   UNL     1       2.762   6.816  19.179  0.00  0.00    +0.000 NA
ATOM     11  C   UNL     1       3.123   7.779  18.133  0.00  0.00    +0.000 C 
ATOM     12  C   UNL     1       1.931   8.637  17.702  0.00  0.00    +0.000 C 
ATOM     13  N   UNL     1       1.164   9.193  18.828  0.00  0.00    +0.000 N 
BRANCH  13  14
ATOM     14  C   UNL     1       0.228  10.241  18.538  0.00  0.00    +0.000 A 
ATOM     15  C   UNL     1      -1.012   9.955  17.945  0.00  0.00    +0.000 A 
ATOM     16  C   UNL     1      -1.945  10.963  17.686  0.00  0.00    +0.000 A 
ATOM     17  C   UNL     1      -1.645  12.286  18.002  0.00  0.00    +0.000 A 
ATOM     18  C   UNL     1      -0.419  12.586  18.587  0.00  0.00    +0.000 A 
ATOM     19 CL   UNL     1      -0.033  14.222  18.961  0.00  0.00    +0.000 Cl
ATOM     20  C   UNL     1       0.506  11.578  18.865  0.00  0.00    +0.000 A 
ENDBRANCH  13  14
ENDBRANCH   6  10
ENDBRANCH   1   6
BRANCH   5  21
ATOM     21  C   UNL     1       4.413   4.521  19.795  0.00  0.00    +0.000 C 
BRANCH  21  22
ATOM     22  C   UNL     1       5.105   4.295  18.467  0.00  0.00    +0.000 A 
ATOM     23  C   UNL     1       4.408   3.638  17.444  0.00  0.00    +0.000 A 
ATOM     24  C   UNL     1       4.924   3.580  16.143  0.00  0.00    +0.000 A 
ATOM     25  C   UNL     1       6.136   4.202  15.801  0.00  0.00    +0.000 A 
ATOM     26  C   UNL     1       6.864   4.785  16.851  0.00  0.00    +0.000 A 
ATOM     27  C   UNL     1       6.359   4.834  18.161  0.00  0.00    +0.000 A 
BRANCH  25  28
ATOM     28  C   UNL     1       6.577   4.306  14.387  0.00  0.00    +0.000 A 
ATOM     29  C   UNL     1       5.976   3.511  13.389  0.00  0.00    +0.000 A 
ATOM     30  C   UNL     1       6.339   3.616  12.043  0.00  0.00    +0.000 A 
ATOM     31  C   UNL     1       7.310   4.532  11.656  0.00  0.00    +0.000 A 
ATOM     32  C   UNL     1       7.917   5.338  12.618  0.00  0.00    +0.000 A 
ATOM     33  C   UNL     1       7.557   5.223  13.967  0.00  0.00    +0.000 A 
ENDBRANCH  25  28
ENDBRANCH  21  22
ENDBRANCH   5  21
TORSDOF 6
ENDMDL
MODEL 9
REMARK VINA RESULT:      -8.3      3.666      9.228
REMARK  Name = 
REMARK  6 active torsions:
REMARK  status: ('A' for Active; 'I' for Inactive)
REMARK    1  A    between atoms: N_4  and  C_5
REMARK    2  A    between atoms: C_5  and  C_6
REMARK    3  A    between atoms: N_10  and  C_11
REMARK    4  A    between atoms: C_11  and  C_12
REMARK    5  A    between atoms: C_15  and  C_16
REMARK    6  A    between atoms: N_26  and  C_27
REMARK                            x       y       z     vdW  Elec       q    Type
REMARK                         _______ _______ _______ _____ _____    ______ ____
ROOT
ATOM      1  C   UNL     1       1.786   5.218  19.788  0.00  0.00    +0.000 A 
ATOM      2  C   UNL     1       0.844   4.387  20.363  0.00  0.00    +0.000 A 
ATOM      3  N   UNL     1       1.433   3.373  21.067  0.00  0.00    +0.000 NA
ATOM      4  C   UNL     1       2.723   3.566  20.930  0.00  0.00    +0.000 A 
ATOM      5  N   UNL     1       2.996   4.679  20.181  0.00  0.00    +0.000 N 
ENDROOT
BRANCH   1   6
ATOM      6  C   UNL     1       1.597   6.427  18.941  0.00  0.00    +0.000 C 
BRANCH   6  10
ATOM      7  O   UNL     1      -0.378   8.864  21.387  0.00  0.00    +0.000 OA
ATOM      8  C   UNL     1       0.435   8.869  20.458  0.00  0.00    +0.000 C 
ATOM      9  C   UNL     1       1.784   8.170  20.665  0.00  0.00    +0.000 C 
ATOM     10  N   UNL     1       2.361   7.582  19.440  0.00  0.00    +0.000 NA
ATOM     11  C   UNL     1       2.458   8.657  18.446  0.00  0.00    +0.000 C 
ATOM     12  C   UNL     1       1.085   9.216  18.066  0.00  0.00    +0.000 C 
ATOM     13  N   UNL     1       0.223   9.508  19.222  0.00  0.00    +0.000 N 
BRANCH  13  14
ATOM     14  C   UNL     1      -0.947  10.307  18.992  0.00  0.00    +0.000 A 
ATOM     15  C   UNL     1      -1.852   9.980  17.972  0.00  0.00    +0.000 A 
ATOM     16  C   UNL     1      -3.011  10.732  17.758  0.00  0.00    +0.000 A 
ATOM     17  C   UNL     1      -3.276  11.842  18.555  0.00  0.00    +0.000 A 
ATOM     18  C   UNL     1      -2.387  12.182  19.569  0.00  0.00    +0.000 A 
ATOM     19 CL   UNL     1      -2.698  13.565  20.546  0.00  0.00    +0.000 Cl
ATOM     20  C   UNL     1      -1.239  11.419  19.798  0.00  0.00    +0.000 A 
ENDBRANCH  13  14
ENDBRANCH   6  10
ENDBRANCH   1   6
BRANCH   5  21
ATOM     21  C   UNL     1       4.342   5.078  19.794  0.00  0.00    +0.000 C 
BRANCH  21  22
ATOM     22  C   UNL     1       4.616   5.009  18.306  0.00  0.00    +0.000 A 
ATOM     23  C   UNL     1       5.408   6.004  17.717  0.00  0.00    +0.000 A 
ATOM     24  C   UNL     1       5.853   5.881  16.394  0.00  0.00    +0.000 A 
ATOM     25  C   UNL     1       5.556   4.749  15.617  0.00  0.00    +0.000 A 
ATOM     26  C   UNL     1       4.694   3.799  16.190  0.00  0.00    +0.000 A 
ATOM     27  C   UNL     1       4.232   3.924  17.510  0.00  0.00    +0.000 A 
BRANCH  25  28
ATOM     28  C   UNL     1       6.192   4.535  14.292  0.00  0.00    +0.000 A 
ATOM     29  C   UNL     1       5.650   3.606  13.380  0.00  0.00    +0.000 A 
ATOM     30  C   UNL     1       6.200   3.413  12.109  0.00  0.00    +0.000 A 
ATOM     31  C   UNL     1       7.305   4.155  11.711  0.00  0.00    +0.000 A 
ATOM     32  C   UNL     1       7.859   5.088  12.587  0.00  0.00    +0.000 A 
ATOM     33  C   UNL     1       7.310   5.272  13.863  0.00  0.00    +0.000 A 
ENDBRANCH  25  28
ENDBRANCH  21  22
ENDBRANCH   5  21
TORSDOF 6
ENDMDL
