MODEL 1
REMARK VINA RESULT:      -7.7      0.000      0.000
REMARK  Name = 
REMARK  3 active torsions:
REMARK  status: ('A' for Active; 'I' for Inactive)
REMARK    1  A    between atoms: C_1  and  C_2
REMARK    2  A    between atoms: C_10  and  C_12
REMARK    3  A    between atoms: C_12  and  N_13
REMARK                            x       y       z     vdW  Elec       q    Type
REMARK                         _______ _______ _______ _____ _____    ______ ____
ROOT
ATOM      1  C   UNL     1       5.661   4.768  14.977  0.00  0.00    +0.000 C 
ATOM      2  C   UNL     1       5.015   4.913  16.293  0.00  0.00    +0.000 A 
ATOM      3  C   UNL     1       4.460   5.982  16.953  0.00  0.00    +0.000 A 
ATOM      4  C   UNL     1       3.853   5.477  18.136  0.00  0.00    +0.000 A 
ATOM      5  C   UNL     1       3.042   6.000  19.176  0.00  0.00    +0.000 A 
ATOM      6  N   UNL     1       2.556   7.324  19.174  0.00  0.00    +0.000 N 
ATOM      7  C   UNL     1       1.815   7.655  20.416  0.00  0.00    +0.000 C 
ATOM      8  C   UNL     1       1.465   9.150  20.419  0.00  0.00    +0.000 C 
ATOM      9  N   UNL     1       0.705   9.527  19.219  0.00  0.00    +0.000 N 
ATOM     10  C   UNL     1      -0.498  10.197  19.377  0.00  0.00    +0.000 C 
ATOM     11  O   UNL     1      -1.009  10.331  20.493  0.00  0.00    +0.000 OA
ATOM     12  C   UNL     1       1.355   9.140  17.962  0.00  0.00    +0.000 C 
ATOM     13  C   UNL     1       1.774   7.654  17.963  0.00  0.00    +0.000 C 
ATOM     14  N   UNL     1       2.755   5.169  20.217  0.00  0.00    +0.000 NA
ATOM     15  C   UNL     1       3.173   3.878  20.223  0.00  0.00    +0.000 A 
ATOM     16  C   UNL     1       3.890   3.273  19.212  0.00  0.00    +0.000 A 
ATOM     17  C   UNL     1       4.207   4.133  18.176  0.00  0.00    +0.000 A 
ATOM     18  O   UNL     1       4.894   3.787  17.051  0.00  0.00    +0.000 OA
ENDROOT
BRANCH  10  19
ATOM     19  C   UNL     1      -1.185  10.805  18.136  0.00  0.00    +0.000 C 
BRANCH  19  20
ATOM     20  N   UNL     1      -2.310   9.963  17.682  0.00  0.00    +0.000 NA
ATOM     21  C   UNL     1      -2.286   9.751  16.222  0.00  0.00    +0.000 C 
ATOM     22  C   UNL     1      -2.861  10.923  15.410  0.00  0.00    +0.000 C 
ATOM     23  O   UNL     1      -4.200  11.222  15.818  0.00  0.00    +0.000 OA
ATOM     24  C   UNL     1      -4.237  11.563  17.207  0.00  0.00    +0.000 C 
ATOM     25  C   UNL     1      -3.643  10.452  18.091  0.00  0.00    +0.000 C 
ENDBRANCH  19  20
ENDBRANCH  10  19
TORSDOF 2
ENDMDL
MODEL 2
REMARK VINA RESULT:      -7.5      2.920      4.401
REMARK  Name = 
REMARK  3 active torsions:
REMARK  status: ('A' for Active; 'I' for Inactive)
REMARK    1  A    between atoms: C_1  and  C_2
REMARK    2  A    between atoms: C_10  and  C_12
REMARK    3  A    between atoms: C_12  and  N_13
REMARK                            x       y       z     vdW  Elec       q    Type
REMARK                         _______ _______ _______ _____ _____    ______ ____
ROOT
ATOM      1  C   UNL     1       1.538   2.534  21.940  0.00  0.00    +0.000 C 
ATOM      2  C   UNL     1       2.071   3.450  20.916  0.00  0.00    +0.000 A 
ATOM      3  C   UNL     1       1.633   4.650  20.412  0.00  0.00    +0.000 A 
ATOM      4  C   UNL     1       2.651   5.138  19.545  0.00  0.00    +0.000 A 
ATOM      5  C   UNL     1       2.888   6.328  18.811  0.00  0.00    +0.000 A 
ATOM      6  N   UNL     1       2.041   7.454  18.885  0.00  0.00    +0.000 N 
ATOM      7  C   UNL     1       2.451   8.531  17.950  0.00  0.00    +0.000 C 
ATOM      8  C   UNL     1       1.395   9.646  17.962  0.00  0.00    +0.000 C 
ATOM      9  N   UNL     1       1.174  10.164  19.320  0.00  0.00    +0.000 N 
ATOM     10  C   UNL     1       1.272  11.530  19.535  0.00  0.00    +0.000 C 
ATOM     11  O   UNL     1       1.695  12.283  18.653  0.00  0.00    +0.000 OA
ATOM     12  C   UNL     1       0.853   9.124  20.303  0.00  0.00    +0.000 C 
ATOM     13  C   UNL     1       1.866   7.960  20.264  0.00  0.00    +0.000 C 
ATOM     14  N   UNL     1       3.976   6.345  17.992  0.00  0.00    +0.000 NA
ATOM     15  C   UNL     1       4.831   5.293  17.934  0.00  0.00    +0.000 A 
ATOM     16  C   UNL     1       4.716   4.138  18.680  0.00  0.00    +0.000 A 
ATOM     17  C   UNL     1       3.590   4.115  19.482  0.00  0.00    +0.000 A 
ATOM     18  O   UNL     1       3.248   3.101  20.327  0.00  0.00    +0.000 OA
ENDROOT
BRANCH  10  19
ATOM     19  C   UNL     1       0.812  12.109  20.890  0.00  0.00    +0.000 C 
BRANCH  19  20
ATOM     20  N   UNL     1      -0.559  12.649  20.801  0.00  0.00    +0.000 NA
ATOM     21  C   UNL     1      -0.634  14.043  21.280  0.00  0.00    +0.000 C 
ATOM     22  C   UNL     1      -0.701  14.176  22.810  0.00  0.00    +0.000 C 
ATOM     23  O   UNL     1      -1.806  13.438  23.342  0.00  0.00    +0.000 OA
ATOM     24  C   UNL     1      -1.692  12.053  23.005  0.00  0.00    +0.000 C 
ATOM     25  C   UNL     1      -1.583  11.834  21.486  0.00  0.00    +0.000 C 
ENDBRANCH  19  20
ENDBRANCH  10  19
TORSDOF 2
ENDMDL
MODEL 3
REMARK VINA RESULT:      -7.2      2.477      2.904
REMARK  Name = 
REMARK  3 active torsions:
REMARK  status: ('A' for Active; 'I' for Inactive)
REMARK    1  A    between atoms: C_1  and  C_2
REMARK    2  A    between atoms: C_10  and  C_12
REMARK    3  A    between atoms: C_12  and  N_13
REMARK                            x       y       z     vdW  Elec       q    Type
REMARK                         _______ _______ _______ _____ _____    ______ ____
ROOT
ATOM      1  C   UNL     1       6.211   5.146  14.922  0.00  0.00    +0.000 C 
ATOM      2  C   UNL     1       5.339   4.890  16.081  0.00  0.00    +0.000 A 
ATOM      3  C   UNL     1       4.813   5.701  17.057  0.00  0.00    +0.000 A 
ATOM      4  C   UNL     1       3.916   4.907  17.826  0.00  0.00    +0.000 A 
ATOM      5  C   UNL     1       2.991   5.133  18.877  0.00  0.00    +0.000 A 
ATOM      6  N   UNL     1       2.701   6.420  19.377  0.00  0.00    +0.000 N 
ATOM      7  C   UNL     1       1.776   6.379  20.537  0.00  0.00    +0.000 C 
ATOM      8  C   UNL     1       1.640   7.788  21.131  0.00  0.00    +0.000 C 
ATOM      9  N   UNL     1       1.197   8.759  20.120  0.00  0.00    +0.000 N 
ATOM     10  C   UNL     1       0.089   9.545  20.394  0.00  0.00    +0.000 C 
ATOM     11  O   UNL     1      -0.613   9.331  21.386  0.00  0.00    +0.000 OA
ATOM     12  C   UNL     1       2.028   8.774  18.911  0.00  0.00    +0.000 C 
ATOM     13  C   UNL     1       2.232   7.357  18.333  0.00  0.00    +0.000 C 
ATOM     14  N   UNL     1       2.389   4.038  19.420  0.00  0.00    +0.000 NA
ATOM     15  C   UNL     1       2.617   2.794  18.929  0.00  0.00    +0.000 A 
ATOM     16  C   UNL     1       3.435   2.503  17.857  0.00  0.00    +0.000 A 
ATOM     17  C   UNL     1       4.068   3.616  17.335  0.00  0.00    +0.000 A 
ATOM     18  O   UNL     1       4.915   3.608  16.266  0.00  0.00    +0.000 OA
ENDROOT
BRANCH  10  19
ATOM     19  C   UNL     1      -0.243  10.724  19.453  0.00  0.00    +0.000 C 
BRANCH  19  20
ATOM     20  N   UNL     1      -0.099  12.018  20.149  0.00  0.00    +0.000 NA
ATOM     21  C   UNL     1      -0.875  13.086  19.490  0.00  0.00    +0.000 C 
ATOM     22  C   UNL     1      -0.184  13.693  18.258  0.00  0.00    +0.000 C 
ATOM     23  O   UNL     1       1.114  14.196  18.592  0.00  0.00    +0.000 OA
ATOM     24  C   UNL     1       1.937  13.148  19.112  0.00  0.00    +0.000 C 
ATOM     25  C   UNL     1       1.298  12.461  20.332  0.00  0.00    +0.000 C 
ENDBRANCH  19  20
ENDBRANCH  10  19
TORSDOF 2
ENDMDL
MODEL 4
REMARK VINA RESULT:      -7.1      2.464      3.016
REMARK  Name = 
REMARK  3 active torsions:
REMARK  status: ('A' for Active; 'I' for Inactive)
REMARK    1  A    between atoms: C_1  and  C_2
REMARK    2  A    between atoms: C_10  and  C_12
REMARK    3  A    between atoms: C_12  and  N_13
REMARK                            x       y       z     vdW  Elec       q    Type
REMARK                         _______ _______ _______ _____ _____    ______ ____
ROOT
ATOM      1  C   UNL     1       6.211   4.963  14.959  0.00  0.00    +0.000 C 
ATOM      2  C   UNL     1       5.297   4.787  16.101  0.00  0.00    +0.000 A 
ATOM      3  C   UNL     1       4.783   5.654  17.034  0.00  0.00    +0.000 A 
ATOM      4  C   UNL     1       3.830   4.928  17.803  0.00  0.00    +0.000 A 
ATOM      5  C   UNL     1       2.889   5.231  18.819  0.00  0.00    +0.000 A 
ATOM      6  N   UNL     1       2.645   6.546  19.269  0.00  0.00    +0.000 N 
ATOM      7  C   UNL     1       1.689   6.586  20.403  0.00  0.00    +0.000 C 
ATOM      8  C   UNL     1       1.603   8.020  20.947  0.00  0.00    +0.000 C 
ATOM      9  N   UNL     1       1.232   8.975  19.892  0.00  0.00    +0.000 N 
ATOM     10  C   UNL     1       0.155   9.820  20.109  0.00  0.00    +0.000 C 
ATOM     11  O   UNL     1      -0.582   9.671  21.088  0.00  0.00    +0.000 OA
ATOM     12  C   UNL     1       2.095   8.911  18.708  0.00  0.00    +0.000 C 
ATOM     13  C   UNL     1       2.249   7.468  18.182  0.00  0.00    +0.000 C 
ATOM     14  N   UNL     1       2.222   4.184  19.380  0.00  0.00    +0.000 NA
ATOM     15  C   UNL     1       2.405   2.914  18.936  0.00  0.00    +0.000 A 
ATOM     16  C   UNL     1       3.237   2.551  17.898  0.00  0.00    +0.000 A 
ATOM     17  C   UNL     1       3.935   3.615  17.358  0.00  0.00    +0.000 A 
ATOM     18  O   UNL     1       4.809   3.533  16.315  0.00  0.00    +0.000 OA
ENDROOT
BRANCH  10  19
ATOM     19  C   UNL     1      -0.097  10.979  19.122  0.00  0.00    +0.000 C 
BRANCH  19  20
ATOM     20  N   UNL     1       0.918  12.041  19.276  0.00  0.00    +0.000 NA
ATOM     21  C   UNL     1       1.096  12.432  20.687  0.00  0.00    +0.000 C 
ATOM     22  C   UNL     1       0.026  13.406  21.207  0.00  0.00    +0.000 C 
ATOM     23  O   UNL     1      -0.031  14.586  20.398  0.00  0.00    +0.000 OA
ATOM     24  C   UNL     1      -0.335  14.248  19.042  0.00  0.00    +0.000 C 
ATOM     25  C   UNL     1       0.673  13.244  18.455  0.00  0.00    +0.000 C 
ENDBRANCH  19  20
ENDBRANCH  10  19
TORSDOF 2
ENDMDL
MODEL 5
REMARK VINA RESULT:      -7.1      2.355      7.889
REMARK  Name = 
REMARK  3 active torsions:
REMARK  status: ('A' for Active; 'I' for Inactive)
REMARK    1  A    between atoms: C_1  and  C_2
REMARK    2  A    between atoms: C_10  and  C_12
REMARK    3  A    between atoms: C_12  and  N_13
REMARK                            x       y       z     vdW  Elec       q    Type
REMARK                         _______ _______ _______ _____ _____    ______ ____
ROOT
ATOM      1  C   UNL     1      -0.115   9.616  23.817  0.00  0.00    +0.000 C 
ATOM      2  C   UNL     1       0.165   9.641  22.371  0.00  0.00    +0.000 A 
ATOM      3  C   UNL     1       1.191   9.143  21.605  0.00  0.00    +0.000 A 
ATOM      4  C   UNL     1       0.836   9.348  20.242  0.00  0.00    +0.000 A 
ATOM      5  C   UNL     1       1.370   8.988  18.979  0.00  0.00    +0.000 A 
ATOM      6  N   UNL     1       2.503   8.160  18.835  0.00  0.00    +0.000 N 
ATOM      7  C   UNL     1       2.919   8.013  17.419  0.00  0.00    +0.000 C 
ATOM      8  C   UNL     1       4.247   7.245  17.354  0.00  0.00    +0.000 C 
ATOM      9  N   UNL     1       4.149   5.941  18.027  0.00  0.00    +0.000 N 
ATOM     10  C   UNL     1       4.528   4.804  17.331  0.00  0.00    +0.000 C 
ATOM     11  O   UNL     1       4.785   4.852  16.125  0.00  0.00    +0.000 OA
ATOM     12  C   UNL     1       3.655   6.025  19.405  0.00  0.00    +0.000 C 
ATOM     13  C   UNL     1       2.353   6.849  19.504  0.00  0.00    +0.000 C 
ATOM     14  N   UNL     1       0.752   9.496  17.876  0.00  0.00    +0.000 NA
ATOM     15  C   UNL     1      -0.365  10.259  17.984  0.00  0.00    +0.000 A 
ATOM     16  C   UNL     1      -0.992  10.581  19.169  0.00  0.00    +0.000 A 
ATOM     17  C   UNL     1      -0.339  10.090  20.284  0.00  0.00    +0.000 A 
ATOM     18  O   UNL     1      -0.755  10.251  21.572  0.00  0.00    +0.000 OA
ENDROOT
BRANCH  10  19
ATOM     19  C   UNL     1       4.657   3.469  18.095  0.00  0.00    +0.000 C 
BRANCH  19  20
ATOM     20  N   UNL     1       3.668   2.482  17.615  0.00  0.00    +0.000 NA
ATOM     21  C   UNL     1       2.435   3.131  17.130  0.00  0.00    +0.000 C 
ATOM     22  C   UNL     1       1.459   3.535  18.248  0.00  0.00    +0.000 C 
ATOM     23  O   UNL     1       1.109   2.408  19.057  0.00  0.00    +0.000 OA
ATOM     24  C   UNL     1       2.278   1.835  19.651  0.00  0.00    +0.000 C 
ATOM     25  C   UNL     1       3.325   1.434  18.597  0.00  0.00    +0.000 C 
ENDBRANCH  19  20
ENDBRANCH  10  19
TORSDOF 2
ENDMDL
MODEL 6
REMARK VINA RESULT:      -7.0      1.121      1.455
REMARK  Name = 
REMARK  3 active torsions:
REMARK  status: ('A' for Active; 'I' for Inactive)
REMARK    1  A    between atoms: C_1  and  C_2
REMARK    2  A    between atoms: C_10  and  C_12
REMARK    3  A    between atoms: C_12  and  N_13
REMARK                            x       y       z     vdW  Elec       q    Type
REMARK                         _______ _______ _______ _____ _____    ______ ____
ROOT
ATOM      1  C   UNL     1       5.229   5.722  15.656  0.00  0.00    +0.000 C 
ATOM      2  C   UNL     1       4.498   5.898  16.923  0.00  0.00    +0.000 A 
ATOM      3  C   UNL     1       3.890   6.980  17.513  0.00  0.00    +0.000 A 
ATOM      4  C   UNL     1       3.213   6.501  18.670  0.00  0.00    +0.000 A 
ATOM      5  C   UNL     1       2.331   7.044  19.639  0.00  0.00    +0.000 A 
ATOM      6  N   UNL     1       1.832   8.362  19.566  0.00  0.00    +0.000 N 
ATOM      7  C   UNL     1       1.009   8.720  20.747  0.00  0.00    +0.000 C 
ATOM      8  C   UNL     1       0.643  10.210  20.682  0.00  0.00    +0.000 C 
ATOM      9  N   UNL     1      -0.042  10.542  19.424  0.00  0.00    +0.000 N 
ATOM     10  C   UNL     1      -1.260  11.200  19.485  0.00  0.00    +0.000 C 
ATOM     11  O   UNL     1      -1.843  11.361  20.561  0.00  0.00    +0.000 OA
ATOM     12  C   UNL     1       0.692  10.126  18.225  0.00  0.00    +0.000 C 
ATOM     13  C   UNL     1       1.126   8.646  18.297  0.00  0.00    +0.000 C 
ATOM     14  N   UNL     1       1.986   6.241  20.683  0.00  0.00    +0.000 NA
ATOM     15  C   UNL     1       2.416   4.956  20.755  0.00  0.00    +0.000 A 
ATOM     16  C   UNL     1       3.204   4.331  19.811  0.00  0.00    +0.000 A 
ATOM     17  C   UNL     1       3.578   5.164  18.773  0.00  0.00    +0.000 A 
ATOM     18  O   UNL     1       4.340   4.794  17.705  0.00  0.00    +0.000 OA
ENDROOT
BRANCH  10  19
ATOM     19  C   UNL     1      -1.872  11.763  18.184  0.00  0.00    +0.000 C 
BRANCH  19  20
ATOM     20  N   UNL     1      -3.143  11.087  17.856  0.00  0.00    +0.000 NA
ATOM     21  C   UNL     1      -2.966   9.631  17.697  0.00  0.00    +0.000 C 
ATOM     22  C   UNL     1      -2.412   9.213  16.324  0.00  0.00    +0.000 C 
ATOM     23  O   UNL     1      -3.241   9.703  15.265  0.00  0.00    +0.000 OA
ATOM     24  C   UNL     1      -3.324  11.131  15.314  0.00  0.00    +0.000 C 
ATOM     25  C   UNL     1      -3.839  11.635  16.674  0.00  0.00    +0.000 C 
ENDBRANCH  19  20
ENDBRANCH  10  19
TORSDOF 2
ENDMDL
MODEL 7
REMARK VINA RESULT:      -7.0      0.893      1.024
REMARK  Name = 
REMARK  3 active torsions:
REMARK  status: ('A' for Active; 'I' for Inactive)
REMARK    1  A    between atoms: C_1  and  C_2
REMARK    2  A    between atoms: C_10  and  C_12
REMARK    3  A    between atoms: C_12  and  N_13
REMARK                            x       y       z     vdW  Elec       q    Type
REMARK                         _______ _______ _______ _____ _____    ______ ____
ROOT
ATOM      1  C   UNL     1       5.687   5.391  15.545  0.00  0.00    +0.000 C 
ATOM      2  C   UNL     1       4.890   5.549  16.774  0.00  0.00    +0.000 A 
ATOM      3  C   UNL     1       4.272   6.627  17.360  0.00  0.00    +0.000 A 
ATOM      4  C   UNL     1       3.523   6.133  18.464  0.00  0.00    +0.000 A 
ATOM      5  C   UNL     1       2.599   6.670  19.398  0.00  0.00    +0.000 A 
ATOM      6  N   UNL     1       2.132   8.000  19.334  0.00  0.00    +0.000 N 
ATOM      7  C   UNL     1       1.252   8.344  20.477  0.00  0.00    +0.000 C 
ATOM      8  C   UNL     1       0.921   9.843  20.434  0.00  0.00    +0.000 C 
ATOM      9  N   UNL     1       0.314  10.223  19.150  0.00  0.00    +0.000 N 
ATOM     10  C   UNL     1      -0.892  10.906  19.162  0.00  0.00    +0.000 C 
ATOM     11  O   UNL     1      -1.530  11.052  20.208  0.00  0.00    +0.000 OA
ATOM     12  C   UNL     1       1.105   9.823  17.981  0.00  0.00    +0.000 C 
ATOM     13  C   UNL     1       1.504   8.333  18.036  0.00  0.00    +0.000 C 
ATOM     14  N   UNL     1       2.181   5.847  20.399  0.00  0.00    +0.000 NA
ATOM     15  C   UNL     1       2.580   4.551  20.459  0.00  0.00    +0.000 A 
ATOM     16  C   UNL     1       3.406   3.934  19.543  0.00  0.00    +0.000 A 
ATOM     17  C   UNL     1       3.854   4.786  18.550  0.00  0.00    +0.000 A 
ATOM     18  O   UNL     1       4.667   4.428  17.516  0.00  0.00    +0.000 OA
ENDROOT
BRANCH  10  19
ATOM     19  C   UNL     1      -1.419  11.517  17.845  0.00  0.00    +0.000 C 
BRANCH  19  20
ATOM     20  N   UNL     1      -2.147  10.512  17.045  0.00  0.00    +0.000 NA
ATOM     21  C   UNL     1      -2.907  11.132  15.943  0.00  0.00    +0.000 C 
ATOM     22  C   UNL     1      -4.253  11.737  16.373  0.00  0.00    +0.000 C 
ATOM     23  O   UNL     1      -5.075  10.756  17.015  0.00  0.00    +0.000 OA
ATOM     24  C   UNL     1      -4.416  10.230  18.171  0.00  0.00    +0.000 C 
ATOM     25  C   UNL     1      -3.038   9.635  17.831  0.00  0.00    +0.000 C 
ENDBRANCH  19  20
ENDBRANCH  10  19
TORSDOF 2
ENDMDL
MODEL 8
REMARK VINA RESULT:      -6.9      2.314      8.589
REMARK  Name = 
REMARK  3 active torsions:
REMARK  status: ('A' for Active; 'I' for Inactive)
REMARK    1  A    between atoms: C_1  and  C_2
REMARK    2  A    between atoms: C_10  and  C_12
REMARK    3  A    between atoms: C_12  and  N_13
REMARK                            x       y       z     vdW  Elec       q    Type
REMARK                         _______ _______ _______ _____ _____    ______ ____
ROOT
ATOM      1  C   UNL     1      -2.324  12.730  23.419  0.00  0.00    +0.000 C 
ATOM      2  C   UNL     1      -2.027  12.321  22.035  0.00  0.00    +0.000 A 
ATOM      3  C   UNL     1      -0.951  11.698  21.451  0.00  0.00    +0.000 A 
ATOM      4  C   UNL     1      -1.304  11.430  20.099  0.00  0.00    +0.000 A 
ATOM      5  C   UNL     1      -0.723  10.737  19.006  0.00  0.00    +0.000 A 
ATOM      6  N   UNL     1       0.481  10.009  19.114  0.00  0.00    +0.000 N 
ATOM      7  C   UNL     1       0.927   9.459  17.811  0.00  0.00    +0.000 C 
ATOM      8  C   UNL     1       2.318   8.830  17.973  0.00  0.00    +0.000 C 
ATOM      9  N   UNL     1       2.326   7.803  19.024  0.00  0.00    +0.000 N 
ATOM     10  C   UNL     1       2.813   6.542  18.719  0.00  0.00    +0.000 C 
ATOM     11  O   UNL     1       3.082   6.229  17.555  0.00  0.00    +0.000 OA
ATOM     12  C   UNL     1       1.808   8.274  20.313  0.00  0.00    +0.000 C 
ATOM     13  C   UNL     1       0.437   8.969  20.165  0.00  0.00    +0.000 C 
ATOM     14  N   UNL     1      -1.368  10.815  17.808  0.00  0.00    +0.000 NA
ATOM     15  C   UNL     1      -2.549  11.472  17.686  0.00  0.00    +0.000 A 
ATOM     16  C   UNL     1      -3.218  12.095  18.718  0.00  0.00    +0.000 A 
ATOM     17  C   UNL     1      -2.540  12.042  19.921  0.00  0.00    +0.000 A 
ATOM     18  O   UNL     1      -2.986  12.564  21.099  0.00  0.00    +0.000 OA
ENDROOT
BRANCH  10  19
ATOM     19  C   UNL     1       3.048   5.533  19.863  0.00  0.00    +0.000 C 
BRANCH  19  20
ATOM     20  N   UNL     1       2.924   4.142  19.382  0.00  0.00    +0.000 NA
ATOM     21  C   UNL     1       1.518   3.770  19.133  0.00  0.00    +0.000 C 
ATOM     22  C   UNL     1       0.739   3.380  20.400  0.00  0.00    +0.000 C 
ATOM     23  O   UNL     1       1.390   2.312  21.096  0.00  0.00    +0.000 OA
ATOM     24  C   UNL     1       2.718   2.694  21.470  0.00  0.00    +0.000 C 
ATOM     25  C   UNL     1       3.556   3.134  20.257  0.00  0.00    +0.000 C 
ENDBRANCH  19  20
ENDBRANCH  10  19
TORSDOF 2
ENDMDL
MODEL 9
REMARK VINA RESULT:      -6.7      6.328      8.599
REMARK  Name = 
REMARK  3 active torsions:
REMARK  status: ('A' for Active; 'I' for Inactive)
REMARK    1  A    between atoms: C_1  and  C_2
REMARK    2  A    between atoms: C_10  and  C_12
REMARK    3  A    between atoms: C_12  and  N_13
REMARK                            x       y       z     vdW  Elec       q    Type
REMARK                         _______ _______ _______ _____ _____    ______ ____
ROOT
ATOM      1  C   UNL     1      -3.036   9.958  14.211  0.00  0.00    +0.000 C 
ATOM      2  C   UNL     1      -3.237  10.469  15.578  0.00  0.00    +0.000 A 
ATOM      3  C   UNL     1      -2.394  10.642  16.649  0.00  0.00    +0.000 A 
ATOM      4  C   UNL     1      -3.133  11.320  17.659  0.00  0.00    +0.000 A 
ATOM      5  C   UNL     1      -2.851  11.886  18.929  0.00  0.00    +0.000 A 
ATOM      6  N   UNL     1      -1.548  11.945  19.468  0.00  0.00    +0.000 N 
ATOM      7  C   UNL     1      -1.532  12.494  20.846  0.00  0.00    +0.000 C 
ATOM      8  C   UNL     1      -0.116  12.372  21.428  0.00  0.00    +0.000 C 
ATOM      9  N   UNL     1       0.877  13.035  20.571  0.00  0.00    +0.000 N 
ATOM     10  C   UNL     1       1.728  13.968  21.139  0.00  0.00    +0.000 C 
ATOM     11  O   UNL     1       1.558  14.363  22.297  0.00  0.00    +0.000 OA
ATOM     12  C   UNL     1       0.841  12.590  19.173  0.00  0.00    +0.000 C 
ATOM     13  C   UNL     1      -0.587  12.643  18.587  0.00  0.00    +0.000 C 
ATOM     14  N   UNL     1      -3.907  12.365  19.643  0.00  0.00    +0.000 NA
ATOM     15  C   UNL     1      -5.164  12.360  19.131  0.00  0.00    +0.000 A 
ATOM     16  C   UNL     1      -5.504  11.907  17.874  0.00  0.00    +0.000 A 
ATOM     17  C   UNL     1      -4.432  11.391  17.170  0.00  0.00    +0.000 A 
ATOM     18  O   UNL     1      -4.491  10.893  15.902  0.00  0.00    +0.000 OA
ENDROOT
BRANCH  10  19
ATOM     19  C   UNL     1       2.923  14.493  20.314  0.00  0.00    +0.000 C 
BRANCH  19  20
ATOM     20  N   UNL     1       2.967  15.969  20.318  0.00  0.00    +0.000 NA
ATOM     21  C   UNL     1       1.968  16.552  19.401  0.00  0.00    +0.000 C 
ATOM     22  C   UNL     1       2.403  16.562  17.926  0.00  0.00    +0.000 C 
ATOM     23  O   UNL     1       3.647  17.250  17.762  0.00  0.00    +0.000 OA
ATOM     24  C   UNL     1       4.672  16.624  18.540  0.00  0.00    +0.000 C 
ATOM     25  C   UNL     1       4.298  16.541  20.030  0.00  0.00    +0.000 C 
ENDBRANCH  19  20
ENDBRANCH  10  19
TORSDOF 2
ENDMDL
