MODEL 1
REMARK VINA RESULT:      -9.5      0.000      0.000
REMARK  Name = 
REMARK  10 active torsions:
REMARK  status: ('A' for Active; 'I' for Inactive)
REMARK    1  A    between atoms: C_1  and  O_2
REMARK    2  A    between atoms: O_2  and  C_3
REMARK    3  A    between atoms: C_8  and  C_9
REMARK    4  A    between atoms: N_11  and  C_12
REMARK    5  A    between atoms: C_12  and  C_13
REMARK    6  A    between atoms: C_13  and  C_14
REMARK    7  A    between atoms: C_22  and  N_23
REMARK    8  A    between atoms: C_24  and  C_26
REMARK    9  A    between atoms: C_26  and  C_27
REMARK   10  A    between atoms: C_27  and  C_28
REMARK                            x       y       z     vdW  Elec       q    Type
REMARK                         _______ _______ _______ _____ _____    ______ ____
ROOT
ATOM      1  C   UNL     1       3.849   5.853  18.836  0.00  0.00    +0.000 C 
ATOM      2  C   UNL     1       5.317   5.794  19.374  0.00  0.00    +0.000 C 
ATOM      3  C   UNL     1       6.436   5.613  18.330  0.00  0.00    +0.000 C 
ATOM      4  C   UNL     1       6.278   6.425  17.036  0.00  0.00    +0.000 C 
ATOM      5  C   UNL     1       4.826   6.433  16.557  0.00  0.00    +0.000 C 
ATOM      6  C   UNL     1       3.885   6.900  17.679  0.00  0.00    +0.000 C 
ENDROOT
BRANCH   1   7
ATOM      7  C   UNL     1       3.250   4.558  18.228  0.00  0.00    +0.000 A 
ATOM      8  C   UNL     1       1.889   4.411  17.939  0.00  0.00    +0.000 A 
ATOM      9  C   UNL     1       1.340   3.141  17.723  0.00  0.00    +0.000 A 
ATOM     10  C   UNL     1       2.146   2.004  17.745  0.00  0.00    +0.000 A 
ATOM     11  C   UNL     1       3.515   2.138  17.923  0.00  0.00    +0.000 A 
ATOM     12  C   UNL     1       4.063   3.402  18.136  0.00  0.00    +0.000 A 
ENDBRANCH   1   7
BRANCH   4  13
ATOM     13  N   UNL     1       6.767   7.790  17.168  0.00  0.00    +0.000 N 
ATOM     14  C   UNL     1       7.887   8.055  17.935  0.00  0.00    +0.000 C 
ATOM     15  O   UNL     1       8.453   7.220  18.634  0.00  0.00    +0.000 OA
ATOM     16  H   UNL     1       6.414   8.503  16.542  0.00  0.00    +0.000 HD
BRANCH  14  17
ATOM     17  C   UNL     1       8.382   9.474  17.852  0.00  0.00    +0.000 C 
BRANCH  17  18
ATOM     18  C   UNL     1       8.974   9.886  19.189  0.00  0.00    +0.000 C 
BRANCH  18  19
ATOM     19  C   UNL     1      10.028  10.944  19.013  0.00  0.00    +0.000 A 
ATOM     20  C   UNL     1      10.340  11.435  17.741  0.00  0.00    +0.000 A 
ATOM     21  C   UNL     1      11.333  12.397  17.585  0.00  0.00    +0.000 A 
ATOM     22  C   UNL     1      12.028  12.872  18.693  0.00  0.00    +0.000 A 
ATOM     23  C   UNL     1      11.730  12.385  19.965  0.00  0.00    +0.000 A 
ATOM     24  C   UNL     1      10.737  11.422  20.124  0.00  0.00    +0.000 A 
ENDBRANCH  18  19
ENDBRANCH  17  18
ENDBRANCH  14  17
ENDBRANCH   4  13
BRANCH   1  25
ATOM     25  C   UNL     1       2.931   6.360  19.997  0.00  0.00    +0.000 C 
BRANCH  25  28
ATOM     26  C   UNL     1       1.489   8.321  20.586  0.00  0.00    +0.000 C 
ATOM     27  O   UNL     1       1.446   8.012  21.776  0.00  0.00    +0.000 OA
ATOM     28  N   UNL     1       2.191   7.574  19.662  0.00  0.00    +0.000 N 
ATOM     29  H   UNL     1       2.200   7.896  18.699  0.00  0.00    +0.000 HD
BRANCH  26  35
ATOM     30  C   UNL     1       0.184  10.536  20.923  0.00  0.00    +0.000 A 
ATOM     31  C   UNL     1      -0.402  11.670  20.331  0.00  0.00    +0.000 A 
ATOM     32  C   UNL     1      -0.518  11.782  18.945  0.00  0.00    +0.000 A 
ATOM     33  C   UNL     1      -0.044  10.765  18.130  0.00  0.00    +0.000 A 
ATOM     34  C   UNL     1       0.582   9.653  18.702  0.00  0.00    +0.000 A 
ATOM     35  C   UNL     1       0.729   9.529  20.101  0.00  0.00    +0.000 A 
BRANCH  30  37
ATOM     36  C   UNL     1      -0.867  10.865  23.017  0.00  0.00    +0.000 C 
ATOM     37  O   UNL     1       0.271  10.402  22.288  0.00  0.00    +0.000 OA
ENDBRANCH  30  37
ENDBRANCH  26  35
ENDBRANCH  25  28
ENDBRANCH   1  25
TORSDOF 9
ENDMDL
MODEL 2
REMARK VINA RESULT:      -8.9      4.211      6.097
REMARK  Name = 
REMARK  10 active torsions:
REMARK  status: ('A' for Active; 'I' for Inactive)
REMARK    1  A    between atoms: C_1  and  O_2
REMARK    2  A    between atoms: O_2  and  C_3
REMARK    3  A    between atoms: C_8  and  C_9
REMARK    4  A    between atoms: N_11  and  C_12
REMARK    5  A    between atoms: C_12  and  C_13
REMARK    6  A    between atoms: C_13  and  C_14
REMARK    7  A    between atoms: C_22  and  N_23
REMARK    8  A    between atoms: C_24  and  C_26
REMARK    9  A    between atoms: C_26  and  C_27
REMARK   10  A    between atoms: C_27  and  C_28
REMARK                            x       y       z     vdW  Elec       q    Type
REMARK                         _______ _______ _______ _____ _____    ______ ____
ROOT
ATOM      1  C   UNL     1       2.760   5.763  18.353  0.00  0.00    +0.000 C 
ATOM      2  C   UNL     1       4.192   6.354  18.577  0.00  0.00    +0.000 C 
ATOM      3  C   UNL     1       5.360   5.349  18.631  0.00  0.00    +0.000 C 
ATOM      4  C   UNL     1       5.308   4.209  17.602  0.00  0.00    +0.000 C 
ATOM      5  C   UNL     1       3.887   3.669  17.440  0.00  0.00    +0.000 C 
ATOM      6  C   UNL     1       2.904   4.809  17.127  0.00  0.00    +0.000 C 
ENDROOT
BRANCH   1   7
ATOM      7  C   UNL     1       2.145   4.911  19.493  0.00  0.00    +0.000 A 
ATOM      8  C   UNL     1       2.659   4.894  20.794  0.00  0.00    +0.000 A 
ATOM      9  C   UNL     1       2.304   3.875  21.687  0.00  0.00    +0.000 A 
ATOM     10  C   UNL     1       1.397   2.885  21.313  0.00  0.00    +0.000 A 
ATOM     11  C   UNL     1       0.794   2.945  20.066  0.00  0.00    +0.000 A 
ATOM     12  C   UNL     1       1.145   3.960  19.177  0.00  0.00    +0.000 A 
ENDBRANCH   1   7
BRANCH   4  13
ATOM     13  N   UNL     1       5.844   4.601  16.306  0.00  0.00    +0.000 N 
ATOM     14  C   UNL     1       7.201   4.497  16.056  0.00  0.00    +0.000 C 
ATOM     15  O   UNL     1       8.035   4.205  16.907  0.00  0.00    +0.000 OA
ATOM     16  H   UNL     1       5.207   4.750  15.534  0.00  0.00    +0.000 HD
BRANCH  14  17
ATOM     17  C   UNL     1       7.597   4.773  14.631  0.00  0.00    +0.000 C 
BRANCH  17  18
ATOM     18  C   UNL     1       6.350   4.904  13.772  0.00  0.00    +0.000 C 
BRANCH  18  19
ATOM     19  C   UNL     1       6.275   3.801  12.753  0.00  0.00    +0.000 A 
ATOM     20  C   UNL     1       5.040   3.262  12.375  0.00  0.00    +0.000 A 
ATOM     21  C   UNL     1       4.981   2.225  11.449  0.00  0.00    +0.000 A 
ATOM     22  C   UNL     1       6.151   1.713  10.897  0.00  0.00    +0.000 A 
ATOM     23  C   UNL     1       7.387   2.237  11.270  0.00  0.00    +0.000 A 
ATOM     24  C   UNL     1       7.449   3.274  12.198  0.00  0.00    +0.000 A 
ENDBRANCH  18  19
ENDBRANCH  17  18
ENDBRANCH  14  17
ENDBRANCH   4  13
BRANCH   1  25
ATOM     25  C   UNL     1       1.800   6.949  18.008  0.00  0.00    +0.000 C 
BRANCH  25  28
ATOM     26  C   UNL     1       1.205   8.983  19.343  0.00  0.00    +0.000 C 
ATOM     27  O   UNL     1       1.624   9.750  18.478  0.00  0.00    +0.000 OA
ATOM     28  N   UNL     1       1.250   7.613  19.188  0.00  0.00    +0.000 N 
ATOM     29  H   UNL     1       0.870   7.037  19.934  0.00  0.00    +0.000 HD
BRANCH  26  35
ATOM     30  C   UNL     1      -0.142  10.697  20.746  0.00  0.00    +0.000 A 
ATOM     31  C   UNL     1      -0.687  11.040  21.997  0.00  0.00    +0.000 A 
ATOM     32  C   UNL     1      -0.396  10.295  23.140  0.00  0.00    +0.000 A 
ATOM     33  C   UNL     1       0.440   9.191  23.048  0.00  0.00    +0.000 A 
ATOM     34  C   UNL     1       0.952   8.812  21.803  0.00  0.00    +0.000 A 
ATOM     35  C   UNL     1       0.653   9.539  20.631  0.00  0.00    +0.000 A 
BRANCH  30  37
ATOM     36  C   UNL     1      -1.769  11.504  19.229  0.00  0.00    +0.000 C 
ATOM     37  O   UNL     1      -0.396  11.446  19.622  0.00  0.00    +0.000 OA
ENDBRANCH  30  37
ENDBRANCH  26  35
ENDBRANCH  25  28
ENDBRANCH   1  25
TORSDOF 9
ENDMDL
MODEL 3
REMARK VINA RESULT:      -8.8      0.999      1.683
REMARK  Name = 
REMARK  10 active torsions:
REMARK  status: ('A' for Active; 'I' for Inactive)
REMARK    1  A    between atoms: C_1  and  O_2
REMARK    2  A    between atoms: O_2  and  C_3
REMARK    3  A    between atoms: C_8  and  C_9
REMARK    4  A    between atoms: N_11  and  C_12
REMARK    5  A    between atoms: C_12  and  C_13
REMARK    6  A    between atoms: C_13  and  C_14
REMARK    7  A    between atoms: C_22  and  N_23
REMARK    8  A    between atoms: C_24  and  C_26
REMARK    9  A    between atoms: C_26  and  C_27
REMARK   10  A    between atoms: C_27  and  C_28
REMARK                            x       y       z     vdW  Elec       q    Type
REMARK                         _______ _______ _______ _____ _____    ______ ____
ROOT
ATOM      1  C   UNL     1       3.612   5.686  19.008  0.00  0.00    +0.000 C 
ATOM      2  C   UNL     1       5.088   5.667  19.528  0.00  0.00    +0.000 C 
ATOM      3  C   UNL     1       6.196   5.464  18.475  0.00  0.00    +0.000 C 
ATOM      4  C   UNL     1       6.009   6.225  17.154  0.00  0.00    +0.000 C 
ATOM      5  C   UNL     1       4.551   6.195  16.695  0.00  0.00    +0.000 C 
ATOM      6  C   UNL     1       3.618   6.690  17.812  0.00  0.00    +0.000 C 
ENDROOT
BRANCH   1   7
ATOM      7  C   UNL     1       3.024   4.362  18.456  0.00  0.00    +0.000 A 
ATOM      8  C   UNL     1       1.652   4.151  18.282  0.00  0.00    +0.000 A 
ATOM      9  C   UNL     1       1.145   2.856  18.117  0.00  0.00    +0.000 A 
ATOM     10  C   UNL     1       2.001   1.757  18.076  0.00  0.00    +0.000 A 
ATOM     11  C   UNL     1       3.372   1.954  18.138  0.00  0.00    +0.000 A 
ATOM     12  C   UNL     1       3.878   3.243  18.300  0.00  0.00    +0.000 A 
ENDBRANCH   1   7
BRANCH   4  13
ATOM     13  N   UNL     1       6.480   7.601  17.229  0.00  0.00    +0.000 N 
ATOM     14  C   UNL     1       7.663   7.895  17.882  0.00  0.00    +0.000 C 
ATOM     15  O   UNL     1       8.311   7.077  18.529  0.00  0.00    +0.000 OA
ATOM     16  H   UNL     1       6.054   8.301  16.635  0.00  0.00    +0.000 HD
BRANCH  14  17
ATOM     17  C   UNL     1       8.118   9.322  17.742  0.00  0.00    +0.000 C 
BRANCH  17  18
ATOM     18  C   UNL     1       8.977   9.703  18.937  0.00  0.00    +0.000 C 
BRANCH  18  19
ATOM     19  C   UNL     1       9.619  11.048  18.737  0.00  0.00    +0.000 A 
ATOM     20  C   UNL     1       9.045  11.991  17.877  0.00  0.00    +0.000 A 
ATOM     21  C   UNL     1       9.658  13.225  17.680  0.00  0.00    +0.000 A 
ATOM     22  C   UNL     1      10.850  13.526  18.332  0.00  0.00    +0.000 A 
ATOM     23  C   UNL     1      11.434  12.592  19.186  0.00  0.00    +0.000 A 
ATOM     24  C   UNL     1      10.823  11.356  19.384  0.00  0.00    +0.000 A 
ENDBRANCH  18  19
ENDBRANCH  17  18
ENDBRANCH  14  17
ENDBRANCH   4  13
BRANCH   1  25
ATOM     25  C   UNL     1       2.702   6.223  20.162  0.00  0.00    +0.000 C 
BRANCH  25  28
ATOM     26  C   UNL     1       1.383   8.257  20.790  0.00  0.00    +0.000 C 
ATOM     27  O   UNL     1       0.852   7.694  21.746  0.00  0.00    +0.000 OA
ATOM     28  N   UNL     1       2.294   7.614  19.977  0.00  0.00    +0.000 N 
ATOM     29  H   UNL     1       2.709   8.144  19.216  0.00  0.00    +0.000 HD
BRANCH  26  35
ATOM     30  C   UNL     1       1.052  10.261  19.180  0.00  0.00    +0.000 A 
ATOM     31  C   UNL     1       0.570  11.571  18.998  0.00  0.00    +0.000 A 
ATOM     32  C   UNL     1       0.122  12.332  20.078  0.00  0.00    +0.000 A 
ATOM     33  C   UNL     1       0.143  11.792  21.356  0.00  0.00    +0.000 A 
ATOM     34  C   UNL     1       0.577  10.476  21.545  0.00  0.00    +0.000 A 
ATOM     35  C   UNL     1       1.014   9.682  20.463  0.00  0.00    +0.000 A 
BRANCH  30  37
ATOM     36  C   UNL     1       0.523   8.946  17.285  0.00  0.00    +0.000 C 
ATOM     37  O   UNL     1       1.527   9.518  18.126  0.00  0.00    +0.000 OA
ENDBRANCH  30  37
ENDBRANCH  26  35
ENDBRANCH  25  28
ENDBRANCH   1  25
TORSDOF 9
ENDMDL
MODEL 4
REMARK VINA RESULT:      -8.8      5.983     11.742
REMARK  Name = 
REMARK  10 active torsions:
REMARK  status: ('A' for Active; 'I' for Inactive)
REMARK    1  A    between atoms: C_1  and  O_2
REMARK    2  A    between atoms: O_2  and  C_3
REMARK    3  A    between atoms: C_8  and  C_9
REMARK    4  A    between atoms: N_11  and  C_12
REMARK    5  A    between atoms: C_12  and  C_13
REMARK    6  A    between atoms: C_13  and  C_14
REMARK    7  A    between atoms: C_22  and  N_23
REMARK    8  A    between atoms: C_24  and  C_26
REMARK    9  A    between atoms: C_26  and  C_27
REMARK   10  A    between atoms: C_27  and  C_28
REMARK                            x       y       z     vdW  Elec       q    Type
REMARK                         _______ _______ _______ _____ _____    ______ ____
ROOT
ATOM      1  C   UNL     1      -2.628  13.026  22.957  0.00  0.00    +0.000 C 
ATOM      2  C   UNL     1      -4.097  12.615  23.308  0.00  0.00    +0.000 C 
ATOM      3  C   UNL     1      -5.223  13.499  22.737  0.00  0.00    +0.000 C 
ATOM      4  C   UNL     1      -5.034  13.965  21.285  0.00  0.00    +0.000 C 
ATOM      5  C   UNL     1      -3.584  14.362  21.011  0.00  0.00    +0.000 C 
ATOM      6  C   UNL     1      -2.625  13.230  21.409  0.00  0.00    +0.000 C 
ENDROOT
BRANCH   1   7
ATOM      7  C   UNL     1      -2.081  14.342  23.566  0.00  0.00    +0.000 A 
ATOM      8  C   UNL     1      -0.945  14.996  23.075  0.00  0.00    +0.000 A 
ATOM      9  C   UNL     1      -0.292  15.966  23.845  0.00  0.00    +0.000 A 
ATOM     10  C   UNL     1      -0.786  16.333  25.095  0.00  0.00    +0.000 A 
ATOM     11  C   UNL     1      -1.971  15.776  25.554  0.00  0.00    +0.000 A 
ATOM     12  C   UNL     1      -2.623  14.811  24.788  0.00  0.00    +0.000 A 
ENDBRANCH   1   7
BRANCH   4  13
ATOM     13  N   UNL     1      -5.470  12.968  20.317  0.00  0.00    +0.000 N 
ATOM     14  C   UNL     1      -6.092  13.362  19.145  0.00  0.00    +0.000 C 
ATOM     15  O   UNL     1      -6.425  14.518  18.902  0.00  0.00    +0.000 OA
ATOM     16  H   UNL     1      -5.137  12.016  20.406  0.00  0.00    +0.000 HD
BRANCH  14  17
ATOM     17  C   UNL     1      -6.338  12.251  18.162  0.00  0.00    +0.000 C 
BRANCH  17  18
ATOM     18  C   UNL     1      -5.554  11.018  18.581  0.00  0.00    +0.000 C 
BRANCH  18  19
ATOM     19  C   UNL     1      -4.444  10.724  17.609  0.00  0.00    +0.000 A 
ATOM     20  C   UNL     1      -3.321   9.992  18.009  0.00  0.00    +0.000 A 
ATOM     21  C   UNL     1      -2.288   9.745  17.110  0.00  0.00    +0.000 A 
ATOM     22  C   UNL     1      -2.363  10.231  15.808  0.00  0.00    +0.000 A 
ATOM     23  C   UNL     1      -3.473  10.967  15.400  0.00  0.00    +0.000 A 
ATOM     24  C   UNL     1      -4.508  11.216  16.298  0.00  0.00    +0.000 A 
ENDBRANCH  18  19
ENDBRANCH  17  18
ENDBRANCH  14  17
ENDBRANCH   4  13
BRANCH   1  25
ATOM     25  C   UNL     1      -1.690  11.837  23.349  0.00  0.00    +0.000 C 
BRANCH  25  28
ATOM     26  C   UNL     1      -0.082  10.227  22.300  0.00  0.00    +0.000 C 
ATOM     27  O   UNL     1       0.352   9.854  23.389  0.00  0.00    +0.000 OA
ATOM     28  N   UNL     1      -1.074  11.180  22.197  0.00  0.00    +0.000 N 
ATOM     29  H   UNL     1      -1.400  11.429  21.267  0.00  0.00    +0.000 HD
BRANCH  26  35
ATOM     30  C   UNL     1       0.388  10.239  19.751  0.00  0.00    +0.000 A 
ATOM     31  C   UNL     1       1.078   9.663  18.669  0.00  0.00    +0.000 A 
ATOM     32  C   UNL     1       1.814   8.488  18.825  0.00  0.00    +0.000 A 
ATOM     33  C   UNL     1       1.876   7.875  20.068  0.00  0.00    +0.000 A 
ATOM     34  C   UNL     1       1.232   8.460  21.162  0.00  0.00    +0.000 A 
ATOM     35  C   UNL     1       0.500   9.660  21.031  0.00  0.00    +0.000 A 
BRANCH  30  37
ATOM     36  C   UNL     1       0.278  12.444  18.901  0.00  0.00    +0.000 C 
ATOM     37  O   UNL     1      -0.368  11.377  19.597  0.00  0.00    +0.000 OA
ENDBRANCH  30  37
ENDBRANCH  26  35
ENDBRANCH  25  28
ENDBRANCH   1  25
TORSDOF 9
ENDMDL
MODEL 5
REMARK VINA RESULT:      -8.8      1.240      1.691
REMARK  Name = 
REMARK  10 active torsions:
REMARK  status: ('A' for Active; 'I' for Inactive)
REMARK    1  A    between atoms: C_1  and  O_2
REMARK    2  A    between atoms: O_2  and  C_3
REMARK    3  A    between atoms: C_8  and  C_9
REMARK    4  A    between atoms: N_11  and  C_12
REMARK    5  A    between atoms: C_12  and  C_13
REMARK    6  A    between atoms: C_13  and  C_14
REMARK    7  A    between atoms: C_22  and  N_23
REMARK    8  A    between atoms: C_24  and  C_26
REMARK    9  A    between atoms: C_26  and  C_27
REMARK   10  A    between atoms: C_27  and  C_28
REMARK                            x       y       z     vdW  Elec       q    Type
REMARK                         _______ _______ _______ _____ _____    ______ ____
ROOT
ATOM      1  C   UNL     1       3.444   5.988  18.839  0.00  0.00    +0.000 C 
ATOM      2  C   UNL     1       4.842   6.028  19.543  0.00  0.00    +0.000 C 
ATOM      3  C   UNL     1       6.061   5.616  18.695  0.00  0.00    +0.000 C 
ATOM      4  C   UNL     1       6.075   6.135  17.249  0.00  0.00    +0.000 C 
ATOM      5  C   UNL     1       4.686   6.058  16.616  0.00  0.00    +0.000 C 
ATOM      6  C   UNL     1       3.645   6.764  17.499  0.00  0.00    +0.000 C 
ENDROOT
BRANCH   1   7
ATOM      7  C   UNL     1       2.870   4.601  18.452  0.00  0.00    +0.000 A 
ATOM      8  C   UNL     1       1.609   4.434  17.871  0.00  0.00    +0.000 A 
ATOM      9  C   UNL     1       0.992   3.176  17.856  0.00  0.00    +0.000 A 
ATOM     10  C   UNL     1       1.642   2.059  18.377  0.00  0.00    +0.000 A 
ATOM     11  C   UNL     1       2.936   2.182  18.860  0.00  0.00    +0.000 A 
ATOM     12  C   UNL     1       3.551   3.433  18.873  0.00  0.00    +0.000 A 
ENDBRANCH   1   7
BRANCH   4  13
ATOM     13  N   UNL     1       6.596   7.491  17.147  0.00  0.00    +0.000 N 
ATOM     14  C   UNL     1       7.738   7.851  17.839  0.00  0.00    +0.000 C 
ATOM     15  O   UNL     1       8.301   7.128  18.656  0.00  0.00    +0.000 OA
ATOM     16  H   UNL     1       6.245   8.100  16.418  0.00  0.00    +0.000 HD
BRANCH  14  17
ATOM     17  C   UNL     1       8.260   9.224  17.515  0.00  0.00    +0.000 C 
BRANCH  17  18
ATOM     18  C   UNL     1       8.886   9.838  18.757  0.00  0.00    +0.000 C 
BRANCH  18  19
ATOM     19  C   UNL     1       9.616  11.109  18.425  0.00  0.00    +0.000 A 
ATOM     20  C   UNL     1      10.977  11.248  18.721  0.00  0.00    +0.000 A 
ATOM     21  C   UNL     1      11.640  12.436  18.432  0.00  0.00    +0.000 A 
ATOM     22  C   UNL     1      10.952  13.499  17.853  0.00  0.00    +0.000 A 
ATOM     23  C   UNL     1       9.595  13.375  17.560  0.00  0.00    +0.000 A 
ATOM     24  C   UNL     1       8.929  12.186  17.849  0.00  0.00    +0.000 A 
ENDBRANCH  18  19
ENDBRANCH  17  18
ENDBRANCH  14  17
ENDBRANCH   4  13
BRANCH   1  25
ATOM     25  C   UNL     1       2.424   6.742  19.754  0.00  0.00    +0.000 C 
BRANCH  25  28
ATOM     26  C   UNL     1       1.228   8.937  19.924  0.00  0.00    +0.000 C 
ATOM     27  O   UNL     1       0.695   8.634  20.990  0.00  0.00    +0.000 OA
ATOM     28  N   UNL     1       2.082   8.076  19.265  0.00  0.00    +0.000 N 
ATOM     29  H   UNL     1       2.504   8.396  18.397  0.00  0.00    +0.000 HD
BRANCH  26  35
ATOM     30  C   UNL     1      -0.349  10.702  18.869  0.00  0.00    +0.000 A 
ATOM     31  C   UNL     1      -0.511  12.017  18.395  0.00  0.00    +0.000 A 
ATOM     32  C   UNL     1       0.580  12.877  18.265  0.00  0.00    +0.000 A 
ATOM     33  C   UNL     1       1.849  12.436  18.613  0.00  0.00    +0.000 A 
ATOM     34  C   UNL     1       2.018  11.147  19.127  0.00  0.00    +0.000 A 
ATOM     35  C   UNL     1       0.924  10.269  19.288  0.00  0.00    +0.000 A 
BRANCH  30  37
ATOM     36  C   UNL     1      -2.420   9.998  17.965  0.00  0.00    +0.000 C 
ATOM     37  O   UNL     1      -1.414   9.838  18.967  0.00  0.00    +0.000 OA
ENDBRANCH  30  37
ENDBRANCH  26  35
ENDBRANCH  25  28
ENDBRANCH   1  25
TORSDOF 9
ENDMDL
MODEL 6
REMARK VINA RESULT:      -8.7      0.813      1.250
REMARK  Name = 
REMARK  10 active torsions:
REMARK  status: ('A' for Active; 'I' for Inactive)
REMARK    1  A    between atoms: C_1  and  O_2
REMARK    2  A    between atoms: O_2  and  C_3
REMARK    3  A    between atoms: C_8  and  C_9
REMARK    4  A    between atoms: N_11  and  C_12
REMARK    5  A    between atoms: C_12  and  C_13
REMARK    6  A    between atoms: C_13  and  C_14
REMARK    7  A    between atoms: C_22  and  N_23
REMARK    8  A    between atoms: C_24  and  C_26
REMARK    9  A    between atoms: C_26  and  C_27
REMARK   10  A    between atoms: C_27  and  C_28
REMARK                            x       y       z     vdW  Elec       q    Type
REMARK                         _______ _______ _______ _____ _____    ______ ____
ROOT
ATOM      1  C   UNL     1       3.744   5.516  19.264  0.00  0.00    +0.000 C 
ATOM      2  C   UNL     1       5.237   5.616  19.724  0.00  0.00    +0.000 C 
ATOM      3  C   UNL     1       6.315   5.356  18.654  0.00  0.00    +0.000 C 
ATOM      4  C   UNL     1       6.046   5.970  17.272  0.00  0.00    +0.000 C 
ATOM      5  C   UNL     1       4.576   5.829  16.877  0.00  0.00    +0.000 C 
ATOM      6  C   UNL     1       3.660   6.392  17.975  0.00  0.00    +0.000 C 
ENDROOT
BRANCH   1   7
ATOM      7  C   UNL     1       3.202   4.118  18.871  0.00  0.00    +0.000 A 
ATOM      8  C   UNL     1       4.031   3.066  18.465  0.00  0.00    +0.000 A 
ATOM      9  C   UNL     1       3.498   1.955  17.800  0.00  0.00    +0.000 A 
ATOM     10  C   UNL     1       2.127   1.853  17.570  0.00  0.00    +0.000 A 
ATOM     11  C   UNL     1       1.276   2.833  18.059  0.00  0.00    +0.000 A 
ATOM     12  C   UNL     1       1.805   3.939  18.723  0.00  0.00    +0.000 A 
ENDBRANCH   1   7
BRANCH   4  13
ATOM     13  N   UNL     1       6.453   7.366  17.191  0.00  0.00    +0.000 N 
ATOM     14  C   UNL     1       7.609   7.790  17.820  0.00  0.00    +0.000 C 
ATOM     15  O   UNL     1       8.281   7.085  18.567  0.00  0.00    +0.000 OA
ATOM     16  H   UNL     1       6.006   7.970  16.513  0.00  0.00    +0.000 HD
BRANCH  14  17
ATOM     17  C   UNL     1       8.001   9.211  17.519  0.00  0.00    +0.000 C 
BRANCH  17  18
ATOM     18  C   UNL     1       8.869   9.749  18.644  0.00  0.00    +0.000 C 
BRANCH  18  19
ATOM     19  C   UNL     1       9.536  11.037  18.247  0.00  0.00    +0.000 A 
ATOM     20  C   UNL     1       8.773  12.151  17.879  0.00  0.00    +0.000 A 
ATOM     21  C   UNL     1       9.398  13.332  17.489  0.00  0.00    +0.000 A 
ATOM     22  C   UNL     1      10.787  13.410  17.457  0.00  0.00    +0.000 A 
ATOM     23  C   UNL     1      11.557  12.305  17.815  0.00  0.00    +0.000 A 
ATOM     24  C   UNL     1      10.934  11.122  18.204  0.00  0.00    +0.000 A 
ENDBRANCH  18  19
ENDBRANCH  17  18
ENDBRANCH  14  17
ENDBRANCH   4  13
BRANCH   1  25
ATOM     25  C   UNL     1       2.851   6.127  20.394  0.00  0.00    +0.000 C 
BRANCH  25  28
ATOM     26  C   UNL     1       1.321   8.091  20.661  0.00  0.00    +0.000 C 
ATOM     27  O   UNL     1       0.556   7.474  21.401  0.00  0.00    +0.000 OA
ATOM     28  N   UNL     1       2.456   7.510  20.136  0.00  0.00    +0.000 N 
ATOM     29  H   UNL     1       3.055   8.082  19.547  0.00  0.00    +0.000 HD
BRANCH  26  35
ATOM     30  C   UNL     1       0.709  10.555  21.184  0.00  0.00    +0.000 A 
ATOM     31  C   UNL     1       0.545  11.866  20.699  0.00  0.00    +0.000 A 
ATOM     32  C   UNL     1       0.598  12.142  19.332  0.00  0.00    +0.000 A 
ATOM     33  C   UNL     1       0.823  11.112  18.430  0.00  0.00    +0.000 A 
ATOM     34  C   UNL     1       1.032   9.812  18.901  0.00  0.00    +0.000 A 
ATOM     35  C   UNL     1       1.004   9.515  20.281  0.00  0.00    +0.000 A 
BRANCH  30  37
ATOM     36  C   UNL     1      -0.700  10.277  23.065  0.00  0.00    +0.000 C 
ATOM     37  O   UNL     1       0.623  10.270  22.526  0.00  0.00    +0.000 OA
ENDBRANCH  30  37
ENDBRANCH  26  35
ENDBRANCH  25  28
ENDBRANCH   1  25
TORSDOF 9
ENDMDL
MODEL 7
REMARK VINA RESULT:      -8.4      5.915      9.848
REMARK  Name = 
REMARK  10 active torsions:
REMARK  status: ('A' for Active; 'I' for Inactive)
REMARK    1  A    between atoms: C_1  and  O_2
REMARK    2  A    between atoms: O_2  and  C_3
REMARK    3  A    between atoms: C_8  and  C_9
REMARK    4  A    between atoms: N_11  and  C_12
REMARK    5  A    between atoms: C_12  and  C_13
REMARK    6  A    between atoms: C_13  and  C_14
REMARK    7  A    between atoms: C_22  and  N_23
REMARK    8  A    between atoms: C_24  and  C_26
REMARK    9  A    between atoms: C_26  and  C_27
REMARK   10  A    between atoms: C_27  and  C_28
REMARK                            x       y       z     vdW  Elec       q    Type
REMARK                         _______ _______ _______ _____ _____    ______ ____
ROOT
ATOM      1  C   UNL     1      -0.501  10.625  19.057  0.00  0.00    +0.000 C 
ATOM      2  C   UNL     1      -1.227  10.836  20.428  0.00  0.00    +0.000 C 
ATOM      3  C   UNL     1      -0.453  11.606  21.516  0.00  0.00    +0.000 C 
ATOM      4  C   UNL     1       0.336  12.832  21.031  0.00  0.00    +0.000 C 
ATOM      5  C   UNL     1       1.029  12.558  19.697  0.00  0.00    +0.000 C 
ATOM      6  C   UNL     1       0.024  12.039  18.657  0.00  0.00    +0.000 C 
ENDROOT
BRANCH   1   7
ATOM      7  C   UNL     1       0.730   9.684  19.030  0.00  0.00    +0.000 A 
ATOM      8  C   UNL     1       1.471   9.431  17.870  0.00  0.00    +0.000 A 
ATOM      9  C   UNL     1       2.340   8.335  17.804  0.00  0.00    +0.000 A 
ATOM     10  C   UNL     1       2.521   7.503  18.907  0.00  0.00    +0.000 A 
ATOM     11  C   UNL     1       1.879   7.799  20.101  0.00  0.00    +0.000 A 
ATOM     12  C   UNL     1       1.015   8.890  20.168  0.00  0.00    +0.000 A 
ENDBRANCH   1   7
BRANCH   4  13
ATOM     13  N   UNL     1      -0.494  14.025  20.926  0.00  0.00    +0.000 N 
ATOM     14  C   UNL     1      -0.514  14.950  21.955  0.00  0.00    +0.000 C 
ATOM     15  O   UNL     1       0.038  14.782  23.038  0.00  0.00    +0.000 OA
ATOM     16  H   UNL     1      -0.887  14.273  20.027  0.00  0.00    +0.000 HD
BRANCH  14  17
ATOM     17  C   UNL     1      -1.276  16.210  21.649  0.00  0.00    +0.000 C 
BRANCH  17  18
ATOM     18  C   UNL     1      -2.581  16.217  22.427  0.00  0.00    +0.000 C 
BRANCH  18  19
ATOM     19  C   UNL     1      -3.401  14.993  22.125  0.00  0.00    +0.000 A 
ATOM     20  C   UNL     1      -3.991  14.822  20.869  0.00  0.00    +0.000 A 
ATOM     21  C   UNL     1      -4.767  13.698  20.605  0.00  0.00    +0.000 A 
ATOM     22  C   UNL     1      -4.967  12.738  21.593  0.00  0.00    +0.000 A 
ATOM     23  C   UNL     1      -4.390  12.901  22.851  0.00  0.00    +0.000 A 
ATOM     24  C   UNL     1      -3.613  14.026  23.117  0.00  0.00    +0.000 A 
ENDBRANCH  18  19
ENDBRANCH  17  18
ENDBRANCH  14  17
ENDBRANCH   4  13
BRANCH   1  25
ATOM     25  C   UNL     1      -1.564  10.128  18.022  0.00  0.00    +0.000 C 
BRANCH  25  28
ATOM     26  C   UNL     1      -3.870  10.760  17.275  0.00  0.00    +0.000 C 
ATOM     27  O   UNL     1      -3.676  10.358  16.129  0.00  0.00    +0.000 OA
ATOM     28  N   UNL     1      -2.898  10.680  18.251  0.00  0.00    +0.000 N 
ATOM     29  H   UNL     1      -3.130  11.013  19.183  0.00  0.00    +0.000 HD
BRANCH  26  35
ATOM     30  C   UNL     1      -6.146  10.849  18.512  0.00  0.00    +0.000 A 
ATOM     31  C   UNL     1      -7.287  11.601  18.845  0.00  0.00    +0.000 A 
ATOM     32  C   UNL     1      -7.526  12.846  18.263  0.00  0.00    +0.000 A 
ATOM     33  C   UNL     1      -6.623  13.361  17.344  0.00  0.00    +0.000 A 
ATOM     34  C   UNL     1      -5.462  12.645  17.038  0.00  0.00    +0.000 A 
ATOM     35  C   UNL     1      -5.190  11.393  17.632  0.00  0.00    +0.000 A 
BRANCH  30  37
ATOM     36  C   UNL     1      -7.046   9.019  19.712  0.00  0.00    +0.000 C 
ATOM     37  O   UNL     1      -5.922   9.606  19.055  0.00  0.00    +0.000 OA
ENDBRANCH  30  37
ENDBRANCH  26  35
ENDBRANCH  25  28
ENDBRANCH   1  25
TORSDOF 9
ENDMDL
MODEL 8
REMARK VINA RESULT:      -8.3      5.718     11.728
REMARK  Name = 
REMARK  10 active torsions:
REMARK  status: ('A' for Active; 'I' for Inactive)
REMARK    1  A    between atoms: C_1  and  O_2
REMARK    2  A    between atoms: O_2  and  C_3
REMARK    3  A    between atoms: C_8  and  C_9
REMARK    4  A    between atoms: N_11  and  C_12
REMARK    5  A    between atoms: C_12  and  C_13
REMARK    6  A    between atoms: C_13  and  C_14
REMARK    7  A    between atoms: C_22  and  N_23
REMARK    8  A    between atoms: C_24  and  C_26
REMARK    9  A    between atoms: C_26  and  C_27
REMARK   10  A    between atoms: C_27  and  C_28
REMARK                            x       y       z     vdW  Elec       q    Type
REMARK                         _______ _______ _______ _____ _____    ______ ____
ROOT
ATOM      1  C   UNL     1      -2.147  12.765  22.739  0.00  0.00    +0.000 C 
ATOM      2  C   UNL     1      -3.520  12.286  23.319  0.00  0.00    +0.000 C 
ATOM      3  C   UNL     1      -4.777  13.043  22.850  0.00  0.00    +0.000 C 
ATOM      4  C   UNL     1      -4.821  13.403  21.357  0.00  0.00    +0.000 C 
ATOM      5  C   UNL     1      -3.456  13.874  20.857  0.00  0.00    +0.000 C 
ATOM      6  C   UNL     1      -2.367  12.844  21.196  0.00  0.00    +0.000 C 
ENDROOT
BRANCH   1   7
ATOM      7  C   UNL     1      -1.628  14.159  23.174  0.00  0.00    +0.000 A 
ATOM      8  C   UNL     1      -0.582  14.821  22.520  0.00  0.00    +0.000 A 
ATOM      9  C   UNL     1       0.078  15.892  23.134  0.00  0.00    +0.000 A 
ATOM     10  C   UNL     1      -0.323  16.351  24.387  0.00  0.00    +0.000 A 
ATOM     11  C   UNL     1      -1.426  15.780  25.005  0.00  0.00    +0.000 A 
ATOM     12  C   UNL     1      -2.085  14.714  24.393  0.00  0.00    +0.000 A 
ENDBRANCH   1   7
BRANCH   4  13
ATOM     13  N   UNL     1      -5.304  12.305  20.531  0.00  0.00    +0.000 N 
ATOM     14  C   UNL     1      -6.662  12.132  20.329  0.00  0.00    +0.000 C 
ATOM     15  O   UNL     1      -7.529  12.780  20.907  0.00  0.00    +0.000 OA
ATOM     16  H   UNL     1      -4.647  11.802  19.947  0.00  0.00    +0.000 HD
BRANCH  14  17
ATOM     17  C   UNL     1      -7.015  11.068  19.326  0.00  0.00    +0.000 C 
BRANCH  17  18
ATOM     18  C   UNL     1      -6.643  11.541  17.930  0.00  0.00    +0.000 C 
BRANCH  18  19
ATOM     19  C   UNL     1      -5.269  11.068  17.544  0.00  0.00    +0.000 A 
ATOM     20  C   UNL     1      -4.531  11.744  16.567  0.00  0.00    +0.000 A 
ATOM     21  C   UNL     1      -3.269  11.285  16.199  0.00  0.00    +0.000 A 
ATOM     22  C   UNL     1      -2.737  10.146  16.796  0.00  0.00    +0.000 A 
ATOM     23  C   UNL     1      -3.466   9.461  17.766  0.00  0.00    +0.000 A 
ATOM     24  C   UNL     1      -4.729   9.918  18.135  0.00  0.00    +0.000 A 
ENDBRANCH  18  19
ENDBRANCH  17  18
ENDBRANCH  14  17
ENDBRANCH   4  13
BRANCH   1  25
ATOM     25  C   UNL     1      -1.076  11.677  23.079  0.00  0.00    +0.000 C 
BRANCH  25  28
ATOM     26  C   UNL     1       0.478  10.075  21.942  0.00  0.00    +0.000 C 
ATOM     27  O   UNL     1       1.036   9.771  22.995  0.00  0.00    +0.000 OA
ATOM     28  N   UNL     1      -0.557  10.987  21.900  0.00  0.00    +0.000 N 
ATOM     29  H   UNL     1      -0.986  11.178  20.999  0.00  0.00    +0.000 HD
BRANCH  26  35
ATOM     30  C   UNL     1       0.887  10.089  19.382  0.00  0.00    +0.000 A 
ATOM     31  C   UNL     1       1.468   9.453  18.270  0.00  0.00    +0.000 A 
ATOM     32  C   UNL     1       2.040   8.185  18.380  0.00  0.00    +0.000 A 
ATOM     33  C   UNL     1       2.046   7.537  19.607  0.00  0.00    +0.000 A 
ATOM     34  C   UNL     1       1.513   8.176  20.730  0.00  0.00    +0.000 A 
ATOM     35  C   UNL     1       0.948   9.467  20.645  0.00  0.00    +0.000 A 
BRANCH  30  37
ATOM     36  C   UNL     1       1.190  12.417  19.091  0.00  0.00    +0.000 C 
ATOM     37  O   UNL     1       0.291  11.322  19.274  0.00  0.00    +0.000 OA
ENDBRANCH  30  37
ENDBRANCH  26  35
ENDBRANCH  25  28
ENDBRANCH   1  25
TORSDOF 9
ENDMDL
MODEL 9
REMARK VINA RESULT:      -8.3      6.604     12.352
REMARK  Name = 
REMARK  10 active torsions:
REMARK  status: ('A' for Active; 'I' for Inactive)
REMARK    1  A    between atoms: C_1  and  O_2
REMARK    2  A    between atoms: O_2  and  C_3
REMARK    3  A    between atoms: C_8  and  C_9
REMARK    4  A    between atoms: N_11  and  C_12
REMARK    5  A    between atoms: C_12  and  C_13
REMARK    6  A    between atoms: C_13  and  C_14
REMARK    7  A    between atoms: C_22  and  N_23
REMARK    8  A    between atoms: C_24  and  C_26
REMARK    9  A    between atoms: C_26  and  C_27
REMARK   10  A    between atoms: C_27  and  C_28
REMARK                            x       y       z     vdW  Elec       q    Type
REMARK                         _______ _______ _______ _____ _____    ______ ____
ROOT
ATOM      1  C   UNL     1      -3.259  14.515  22.584  0.00  0.00    +0.000 C 
ATOM      2  C   UNL     1      -4.088  13.232  22.927  0.00  0.00    +0.000 C 
ATOM      3  C   UNL     1      -5.562  13.214  22.478  0.00  0.00    +0.000 C 
ATOM      4  C   UNL     1      -5.840  13.781  21.078  0.00  0.00    +0.000 C 
ATOM      5  C   UNL     1      -5.011  15.037  20.810  0.00  0.00    +0.000 C 
ATOM      6  C   UNL     1      -3.520  14.769  21.066  0.00  0.00    +0.000 C 
ENDROOT
BRANCH   1   7
ATOM      7  C   UNL     1      -3.633  15.831  23.312  0.00  0.00    +0.000 A 
ATOM      8  C   UNL     1      -4.583  15.892  24.338  0.00  0.00    +0.000 A 
ATOM      9  C   UNL     1      -5.136  17.119  24.725  0.00  0.00    +0.000 A 
ATOM     10  C   UNL     1      -4.718  18.308  24.129  0.00  0.00    +0.000 A 
ATOM     11  C   UNL     1      -3.700  18.281  23.187  0.00  0.00    +0.000 A 
ATOM     12  C   UNL     1      -3.147  17.060  22.803  0.00  0.00    +0.000 A 
ENDBRANCH   1   7
BRANCH   4  13
ATOM     13  N   UNL     1      -5.617  12.802  20.023  0.00  0.00    +0.000 N 
ATOM     14  C   UNL     1      -6.681  12.086  19.503  0.00  0.00    +0.000 C 
ATOM     15  O   UNL     1      -7.821  12.125  19.957  0.00  0.00    +0.000 OA
ATOM     16  H   UNL     1      -4.730  12.795  19.537  0.00  0.00    +0.000 HD
BRANCH  14  17
ATOM     17  C   UNL     1      -6.340  11.235  18.311  0.00  0.00    +0.000 C 
BRANCH  17  18
ATOM     18  C   UNL     1      -5.421  12.008  17.379  0.00  0.00    +0.000 C 
BRANCH  18  19
ATOM     19  C   UNL     1      -4.176  11.223  17.071  0.00  0.00    +0.000 A 
ATOM     20  C   UNL     1      -3.871  10.858  15.755  0.00  0.00    +0.000 A 
ATOM     21  C   UNL     1      -2.728  10.112  15.481  0.00  0.00    +0.000 A 
ATOM     22  C   UNL     1      -1.885   9.718  16.516  0.00  0.00    +0.000 A 
ATOM     23  C   UNL     1      -2.183  10.070  17.831  0.00  0.00    +0.000 A 
ATOM     24  C   UNL     1      -3.326  10.816  18.108  0.00  0.00    +0.000 A 
ENDBRANCH  18  19
ENDBRANCH  17  18
ENDBRANCH  14  17
ENDBRANCH   4  13
BRANCH   1  25
ATOM     25  C   UNL     1      -1.748  14.190  22.828  0.00  0.00    +0.000 C 
BRANCH  25  28
ATOM     26  C   UNL     1      -0.632  12.095  22.031  0.00  0.00    +0.000 C 
ATOM     27  O   UNL     1      -0.624  11.597  23.156  0.00  0.00    +0.000 OA
ATOM     28  N   UNL     1      -1.162  13.345  21.790  0.00  0.00    +0.000 N 
ATOM     29  H   UNL     1      -1.153  13.689  20.834  0.00  0.00    +0.000 HD
BRANCH  26  35
ATOM     30  C   UNL     1       0.506  11.929  19.709  0.00  0.00    +0.000 A 
ATOM     31  C   UNL     1       1.157  11.118  18.761  0.00  0.00    +0.000 A 
ATOM     32  C   UNL     1       1.230   9.734  18.923  0.00  0.00    +0.000 A 
ATOM     33  C   UNL     1       0.660   9.141  20.041  0.00  0.00    +0.000 A 
ATOM     34  C   UNL     1       0.050   9.940  21.013  0.00  0.00    +0.000 A 
ATOM     35  C   UNL     1      -0.016  11.344  20.879  0.00  0.00    +0.000 A 
BRANCH  30  37
ATOM     36  C   UNL     1      -0.369  13.700  18.407  0.00  0.00    +0.000 C 
ATOM     37  O   UNL     1       0.400  13.289  19.538  0.00  0.00    +0.000 OA
ENDBRANCH  30  37
ENDBRANCH  26  35
ENDBRANCH  25  28
ENDBRANCH   1  25
TORSDOF 9
ENDMDL
