MODEL 1
REMARK VINA RESULT:      -8.6      0.000      0.000
REMARK  Name = 
REMARK  5 active torsions:
REMARK  status: ('A' for Active; 'I' for Inactive)
REMARK    1  A    between atoms: C_2  and  N_3
REMARK    2  A    between atoms: C_2  and  N_11
REMARK    3  A    between atoms: N_3  and  C_4
REMARK    4  A    between atoms: N_11  and  C_12
REMARK    5  A    between atoms: N_15  and  C_16
REMARK                            x       y       z     vdW  Elec       q    Type
REMARK                         _______ _______ _______ _____ _____    ______ ____
ROOT
ATOM      1  C   UNL     1       4.093   4.106  19.034  0.00  0.00    +0.000 C 
ATOM      2  C   UNL     1       2.715   3.766  18.410  0.00  0.00    +0.000 C 
ATOM      3  C   UNL     1       2.111   5.103  17.885  0.00  0.00    +0.000 C 
ATOM      4  N   UNL     1       2.516   6.062  18.890  0.00  0.00    +0.000 N 
ATOM      5  C   UNL     1       3.848   5.580  19.466  0.00  0.00    +0.000 C 
ENDROOT
BRANCH   4   6
ATOM      6  C   UNL     1       2.196   7.408  19.066  0.00  0.00    +0.000 A 
ATOM      7  C   UNL     1       2.702   8.203  18.047  0.00  0.00    +0.000 A 
ATOM      8  C   UNL     1       1.747   9.021  17.557  0.00  0.00    +0.000 A 
ATOM      9  N   UNL     1       1.294   9.952  18.377  0.00  0.00    +0.000 NA
ATOM     10  C   UNL     1       1.155   9.549  19.644  0.00  0.00    +0.000 A 
ATOM     11  C   UNL     1       0.589  10.530  20.424  0.00  0.00    +0.000 A 
ATOM     12  C   UNL     1       0.164  10.268  21.700  0.00  0.00    +0.000 A 
ATOM     13 CL   UNL     1      -0.612  11.513  22.601  0.00  0.00    +0.000 Cl
ATOM     14  C   UNL     1       0.336   8.980  22.206  0.00  0.00    +0.000 A 
ATOM     15  C   UNL     1       0.986   7.969  21.431  0.00  0.00    +0.000 A 
ATOM     16  C   UNL     1       1.473   8.214  20.081  0.00  0.00    +0.000 A 
ENDBRANCH   4   6
BRANCH   1  17
ATOM     17  N   UNL     1       5.185   3.859  18.040  0.00  0.00    +0.000 N 
ATOM     18  H   UNL     1       5.647   2.972  18.221  0.00  0.00    +0.000 HD
BRANCH  17  20
ATOM     19  S   UNL     1       7.515   4.809  17.801  0.00  0.00    +0.000 S 
ATOM     20  C   UNL     1       5.987   4.526  17.150  0.00  0.00    +0.000 C 
BRANCH  20  21
ATOM     21  N   UNL     1       5.542   4.878  15.898  0.00  0.00    +0.000 N 
ATOM     22  H   UNL     1       4.563   5.136  15.861  0.00  0.00    +0.000 HD
BRANCH  21  23
ATOM     23  C   UNL     1       6.148   4.624  14.581  0.00  0.00    +0.000 A 
ATOM     24  C   UNL     1       7.268   5.303  14.073  0.00  0.00    +0.000 A 
ATOM     25  C   UNL     1       7.794   5.027  12.787  0.00  0.00    +0.000 A 
ATOM     26  C   UNL     1       7.198   4.078  11.974  0.00  0.00    +0.000 A 
ATOM     27  C   UNL     1       6.079   3.404  12.451  0.00  0.00    +0.000 A 
ATOM     28 CL   UNL     1       5.325   2.223  11.443  0.00  0.00    +0.000 Cl
ATOM     29  C   UNL     1       5.556   3.672  13.737  0.00  0.00    +0.000 A 
ENDBRANCH  21  23
ENDBRANCH  20  21
ENDBRANCH  17  20
ENDBRANCH   1  17
TORSDOF 5
ENDMDL
MODEL 2
REMARK VINA RESULT:      -8.5      3.142      3.607
REMARK  Name = 
REMARK  5 active torsions:
REMARK  status: ('A' for Active; 'I' for Inactive)
REMARK    1  A    between atoms: C_2  and  N_3
REMARK    2  A    between atoms: C_2  and  N_11
REMARK    3  A    between atoms: N_3  and  C_4
REMARK    4  A    between atoms: N_11  and  C_12
REMARK    5  A    between atoms: N_15  and  C_16
REMARK                            x       y       z     vdW  Elec       q    Type
REMARK                         _______ _______ _______ _____ _____    ______ ____
ROOT
ATOM      1  C   UNL     1       2.375   3.244  21.342  0.00  0.00    +0.000 C 
ATOM      2  C   UNL     1       1.094   3.122  20.474  0.00  0.00    +0.000 C 
ATOM      3  C   UNL     1       1.029   4.394  19.578  0.00  0.00    +0.000 C 
ATOM      4  N   UNL     1       1.517   5.438  20.454  0.00  0.00    +0.000 N 
ATOM      5  C   UNL     1       2.513   4.790  21.418  0.00  0.00    +0.000 C 
ENDROOT
BRANCH   4   6
ATOM      6  C   UNL     1       1.595   6.820  20.292  0.00  0.00    +0.000 A 
ATOM      7  C   UNL     1       2.535   7.183  19.338  0.00  0.00    +0.000 A 
ATOM      8  C   UNL     1       2.012   8.065  18.460  0.00  0.00    +0.000 A 
ATOM      9  N   UNL     1       1.694   9.253  18.939  0.00  0.00    +0.000 NA
ATOM     10  C   UNL     1       1.158   9.228  20.163  0.00  0.00    +0.000 A 
ATOM     11  C   UNL     1       0.760  10.481  20.564  0.00  0.00    +0.000 A 
ATOM     12  C   UNL     1       0.000  10.661  21.689  0.00  0.00    +0.000 A 
ATOM     13 CL   UNL     1      -0.539  12.244  22.098  0.00  0.00    +0.000 Cl
ATOM     14  C   UNL     1      -0.349   9.540  22.441  0.00  0.00    +0.000 A 
ATOM     15  C   UNL     1       0.116   8.238  22.075  0.00  0.00    +0.000 A 
ATOM     16  C   UNL     1       0.945   8.008  20.900  0.00  0.00    +0.000 A 
ENDBRANCH   4   6
BRANCH   1  17
ATOM     17  N   UNL     1       3.501   2.486  20.708  0.00  0.00    +0.000 N 
ATOM     18  H   UNL     1       4.049   1.998  21.410  0.00  0.00    +0.000 HD
BRANCH  17  20
ATOM     19  S   UNL     1       3.634   1.301  18.480  0.00  0.00    +0.000 S 
ATOM     20  C   UNL     1       4.242   2.446  19.556  0.00  0.00    +0.000 C 
BRANCH  20  21
ATOM     21  N   UNL     1       5.324   3.271  19.362  0.00  0.00    +0.000 N 
ATOM     22  H   UNL     1       6.038   3.198  20.078  0.00  0.00    +0.000 HD
BRANCH  21  23
ATOM     23  C   UNL     1       5.459   4.454  18.497  0.00  0.00    +0.000 A 
ATOM     24  C   UNL     1       4.605   4.760  17.423  0.00  0.00    +0.000 A 
ATOM     25  C   UNL     1       4.799   5.905  16.612  0.00  0.00    +0.000 A 
ATOM     26  C   UNL     1       5.862   6.760  16.847  0.00  0.00    +0.000 A 
ATOM     27  C   UNL     1       6.729   6.469  17.896  0.00  0.00    +0.000 A 
ATOM     28 CL   UNL     1       8.061   7.524  18.194  0.00  0.00    +0.000 Cl
ATOM     29  C   UNL     1       6.534   5.330  18.712  0.00  0.00    +0.000 A 
ENDBRANCH  21  23
ENDBRANCH  20  21
ENDBRANCH  17  20
ENDBRANCH   1  17
TORSDOF 5
ENDMDL
MODEL 3
REMARK VINA RESULT:      -8.1      3.682      4.877
REMARK  Name = 
REMARK  5 active torsions:
REMARK  status: ('A' for Active; 'I' for Inactive)
REMARK    1  A    between atoms: C_2  and  N_3
REMARK    2  A    between atoms: C_2  and  N_11
REMARK    3  A    between atoms: N_3  and  C_4
REMARK    4  A    between atoms: N_11  and  C_12
REMARK    5  A    between atoms: N_15  and  C_16
REMARK                            x       y       z     vdW  Elec       q    Type
REMARK                         _______ _______ _______ _____ _____    ______ ____
ROOT
ATOM      1  C   UNL     1       3.466   6.203  18.249  0.00  0.00    +0.000 C 
ATOM      2  C   UNL     1       3.298   7.328  17.195  0.00  0.00    +0.000 C 
ATOM      3  C   UNL     1       2.886   8.617  17.967  0.00  0.00    +0.000 C 
ATOM      4  N   UNL     1       2.009   8.113  19.002  0.00  0.00    +0.000 N 
ATOM      5  C   UNL     1       2.481   6.699  19.345  0.00  0.00    +0.000 C 
ENDROOT
BRANCH   4   6
ATOM      6  C   UNL     1       1.222   8.768  19.948  0.00  0.00    +0.000 A 
ATOM      7  C   UNL     1       1.303   8.174  21.199  0.00  0.00    +0.000 A 
ATOM      8  C   UNL     1       1.542   9.097  22.155  0.00  0.00    +0.000 A 
ATOM      9  N   UNL     1       0.583   9.976  22.375  0.00  0.00    +0.000 NA
ATOM     10  C   UNL     1      -0.044  10.396  21.272  0.00  0.00    +0.000 A 
ATOM     11  C   UNL     1      -0.961  11.379  21.558  0.00  0.00    +0.000 A 
ATOM     12  C   UNL     1      -1.567  12.099  20.562  0.00  0.00    +0.000 A 
ATOM     13 CL   UNL     1      -2.646  13.374  20.981  0.00  0.00    +0.000 Cl
ATOM     14  C   UNL     1      -1.250  11.799  19.238  0.00  0.00    +0.000 A 
ATOM     15  C   UNL     1      -0.350  10.732  18.924  0.00  0.00    +0.000 A 
ATOM     16  C   UNL     1       0.297   9.929  19.953  0.00  0.00    +0.000 A 
ENDBRANCH   4   6
BRANCH   1  17
ATOM     17  N   UNL     1       4.907   6.069  18.635  0.00  0.00    +0.000 N 
ATOM     18  H   UNL     1       5.413   6.930  18.451  0.00  0.00    +0.000 HD
BRANCH  17  20
ATOM     19  S   UNL     1       7.397   5.798  18.973  0.00  0.00    +0.000 S 
ATOM     20  C   UNL     1       5.861   5.114  18.874  0.00  0.00    +0.000 C 
BRANCH  20  21
ATOM     21  N   UNL     1       5.536   3.785  19.014  0.00  0.00    +0.000 N 
ATOM     22  H   UNL     1       6.308   3.148  18.858  0.00  0.00    +0.000 HD
BRANCH  21  23
ATOM     23  C   UNL     1       4.214   3.138  19.018  0.00  0.00    +0.000 A 
ATOM     24  C   UNL     1       3.610   2.549  17.894  0.00  0.00    +0.000 A 
ATOM     25  C   UNL     1       2.324   1.958  17.956  0.00  0.00    +0.000 A 
ATOM     26  C   UNL     1       1.607   1.960  19.140  0.00  0.00    +0.000 A 
ATOM     27  C   UNL     1       2.180   2.550  20.263  0.00  0.00    +0.000 A 
ATOM     28 CL   UNL     1       1.292   2.562  21.743  0.00  0.00    +0.000 Cl
ATOM     29  C   UNL     1       3.466   3.134  20.206  0.00  0.00    +0.000 A 
ENDBRANCH  21  23
ENDBRANCH  20  21
ENDBRANCH  17  20
ENDBRANCH   1  17
TORSDOF 5
ENDMDL
MODEL 4
REMARK VINA RESULT:      -8.1      2.212      8.440
REMARK  Name = 
REMARK  5 active torsions:
REMARK  status: ('A' for Active; 'I' for Inactive)
REMARK    1  A    between atoms: C_2  and  N_3
REMARK    2  A    between atoms: C_2  and  N_11
REMARK    3  A    between atoms: N_3  and  C_4
REMARK    4  A    between atoms: N_11  and  C_12
REMARK    5  A    between atoms: N_15  and  C_16
REMARK                            x       y       z     vdW  Elec       q    Type
REMARK                         _______ _______ _______ _____ _____    ______ ____
ROOT
ATOM      1  C   UNL     1       1.548   3.445  18.272  0.00  0.00    +0.000 C 
ATOM      2  C   UNL     1       2.280   2.080  18.365  0.00  0.00    +0.000 C 
ATOM      3  C   UNL     1       3.802   2.370  18.208  0.00  0.00    +0.000 C 
ATOM      4  N   UNL     1       3.835   3.428  17.221  0.00  0.00    +0.000 N 
ATOM      5  C   UNL     1       2.547   4.237  17.383  0.00  0.00    +0.000 C 
ENDROOT
BRANCH   4   6
ATOM      6  C   UNL     1       4.897   4.047  16.563  0.00  0.00    +0.000 A 
ATOM      7  C   UNL     1       5.633   4.863  17.409  0.00  0.00    +0.000 A 
ATOM      8  C   UNL     1       6.953   4.608  17.294  0.00  0.00    +0.000 A 
ATOM      9  N   UNL     1       7.511   4.909  16.136  0.00  0.00    +0.000 NA
ATOM     10  C   UNL     1       6.748   4.642  15.071  0.00  0.00    +0.000 A 
ATOM     11  C   UNL     1       7.420   4.885  13.897  0.00  0.00    +0.000 A 
ATOM     12  C   UNL     1       6.910   4.486  12.689  0.00  0.00    +0.000 A 
ATOM     13 CL   UNL     1       7.833   4.743  11.259  0.00  0.00    +0.000 Cl
ATOM     14  C   UNL     1       5.673   3.842  12.670  0.00  0.00    +0.000 A 
ATOM     15  C   UNL     1       4.931   3.646  13.876  0.00  0.00    +0.000 A 
ATOM     16  C   UNL     1       5.428   4.075  15.177  0.00  0.00    +0.000 A 
ENDBRANCH   4   6
BRANCH   1  17
ATOM     17  N   UNL     1       1.280   3.981  19.644  0.00  0.00    +0.000 N 
ATOM     18  H   UNL     1       0.348   4.383  19.701  0.00  0.00    +0.000 HD
BRANCH  17  20
ATOM     19  S   UNL     1       1.992   3.167  21.929  0.00  0.00    +0.000 S 
ATOM     20  C   UNL     1       1.938   4.393  20.774  0.00  0.00    +0.000 C 
BRANCH  20  21
ATOM     21  N   UNL     1       2.472   5.655  20.881  0.00  0.00    +0.000 N 
ATOM     22  H   UNL     1       3.068   5.789  21.690  0.00  0.00    +0.000 HD
BRANCH  21  23
ATOM     23  C   UNL     1       2.062   6.906  20.222  0.00  0.00    +0.000 A 
ATOM     24  C   UNL     1       2.461   7.296  18.933  0.00  0.00    +0.000 A 
ATOM     25  C   UNL     1       2.050   8.525  18.359  0.00  0.00    +0.000 A 
ATOM     26  C   UNL     1       1.244   9.397  19.071  0.00  0.00    +0.000 A 
ATOM     27  C   UNL     1       0.849   9.037  20.356  0.00  0.00    +0.000 A 
ATOM     28 CL   UNL     1      -0.150  10.119  21.255  0.00  0.00    +0.000 Cl
ATOM     29  C   UNL     1       1.252   7.808  20.928  0.00  0.00    +0.000 A 
ENDBRANCH  21  23
ENDBRANCH  20  21
ENDBRANCH  17  20
ENDBRANCH   1  17
TORSDOF 5
ENDMDL
MODEL 5
REMARK VINA RESULT:      -7.9      1.063      1.403
REMARK  Name = 
REMARK  5 active torsions:
REMARK  status: ('A' for Active; 'I' for Inactive)
REMARK    1  A    between atoms: C_2  and  N_3
REMARK    2  A    between atoms: C_2  and  N_11
REMARK    3  A    between atoms: N_3  and  C_4
REMARK    4  A    between atoms: N_11  and  C_12
REMARK    5  A    between atoms: N_15  and  C_16
REMARK                            x       y       z     vdW  Elec       q    Type
REMARK                         _______ _______ _______ _____ _____    ______ ____
ROOT
ATOM      1  C   UNL     1       3.992   4.105  19.105  0.00  0.00    +0.000 C 
ATOM      2  C   UNL     1       2.590   3.753  18.542  0.00  0.00    +0.000 C 
ATOM      3  C   UNL     1       1.974   5.076  17.997  0.00  0.00    +0.000 C 
ATOM      4  N   UNL     1       2.420   6.065  18.956  0.00  0.00    +0.000 N 
ATOM      5  C   UNL     1       3.770   5.592  19.498  0.00  0.00    +0.000 C 
ENDROOT
BRANCH   4   6
ATOM      6  C   UNL     1       2.114   7.417  19.100  0.00  0.00    +0.000 A 
ATOM      7  C   UNL     1       2.577   8.175  18.033  0.00  0.00    +0.000 A 
ATOM      8  C   UNL     1       1.603   8.981  17.559  0.00  0.00    +0.000 A 
ATOM      9  N   UNL     1       1.191   9.941  18.366  0.00  0.00    +0.000 NA
ATOM     10  C   UNL     1       1.109   9.583  19.651  0.00  0.00    +0.000 A 
ATOM     11  C   UNL     1       0.583  10.592  20.423  0.00  0.00    +0.000 A 
ATOM     12  C   UNL     1       0.215  10.376  21.724  0.00  0.00    +0.000 A 
ATOM     13 CL   UNL     1      -0.514  11.654  22.617  0.00  0.00    +0.000 Cl
ATOM     14  C   UNL     1       0.405   9.105  22.266  0.00  0.00    +0.000 A 
ATOM     15  C   UNL     1       1.015   8.065  21.497  0.00  0.00    +0.000 A 
ATOM     16  C   UNL     1       1.441   8.261  20.119  0.00  0.00    +0.000 A 
ENDBRANCH   4   6
BRANCH   1  17
ATOM     17  N   UNL     1       5.046   3.818  18.080  0.00  0.00    +0.000 N 
ATOM     18  H   UNL     1       5.476   2.913  18.245  0.00  0.00    +0.000 HD
BRANCH  17  20
ATOM     19  S   UNL     1       7.399   4.695  17.789  0.00  0.00    +0.000 S 
ATOM     20  C   UNL     1       5.849   4.458  17.171  0.00  0.00    +0.000 C 
BRANCH  20  21
ATOM     21  N   UNL     1       5.390   4.821  15.927  0.00  0.00    +0.000 N 
ATOM     22  H   UNL     1       4.411   5.082  15.905  0.00  0.00    +0.000 HD
BRANCH  21  23
ATOM     23  C   UNL     1       5.978   4.573  14.601  0.00  0.00    +0.000 A 
ATOM     24  C   UNL     1       5.539   3.581  13.706  0.00  0.00    +0.000 A 
ATOM     25  C   UNL     1       6.159   3.377  12.449  0.00  0.00    +0.000 A 
ATOM     26  C   UNL     1       7.243   4.149  12.068  0.00  0.00    +0.000 A 
ATOM     27  C   UNL     1       7.703   5.127  12.944  0.00  0.00    +0.000 A 
ATOM     28 CL   UNL     1       9.058   6.090  12.481  0.00  0.00    +0.000 Cl
ATOM     29  C   UNL     1       7.082   5.338  14.197  0.00  0.00    +0.000 A 
ENDBRANCH  21  23
ENDBRANCH  20  21
ENDBRANCH  17  20
ENDBRANCH   1  17
TORSDOF 5
ENDMDL
MODEL 6
REMARK VINA RESULT:      -7.9      2.563      8.371
REMARK  Name = 
REMARK  5 active torsions:
REMARK  status: ('A' for Active; 'I' for Inactive)
REMARK    1  A    between atoms: C_2  and  N_3
REMARK    2  A    between atoms: C_2  and  N_11
REMARK    3  A    between atoms: N_3  and  C_4
REMARK    4  A    between atoms: N_11  and  C_12
REMARK    5  A    between atoms: N_15  and  C_16
REMARK                            x       y       z     vdW  Elec       q    Type
REMARK                         _______ _______ _______ _____ _____    ______ ____
ROOT
ATOM      1  C   UNL     1       1.580   3.261  18.341  0.00  0.00    +0.000 C 
ATOM      2  C   UNL     1       2.392   1.958  18.559  0.00  0.00    +0.000 C 
ATOM      3  C   UNL     1       3.899   2.339  18.458  0.00  0.00    +0.000 C 
ATOM      4  N   UNL     1       3.915   3.334  17.407  0.00  0.00    +0.000 N 
ATOM      5  C   UNL     1       2.572   4.062  17.452  0.00  0.00    +0.000 C 
ENDROOT
BRANCH   4   6
ATOM      6  C   UNL     1       4.969   3.980  16.762  0.00  0.00    +0.000 A 
ATOM      7  C   UNL     1       5.715   4.761  17.633  0.00  0.00    +0.000 A 
ATOM      8  C   UNL     1       7.034   4.512  17.491  0.00  0.00    +0.000 A 
ATOM      9  N   UNL     1       7.578   4.861  16.340  0.00  0.00    +0.000 NA
ATOM     10  C   UNL     1       6.801   4.639  15.274  0.00  0.00    +0.000 A 
ATOM     11  C   UNL     1       7.459   4.931  14.103  0.00  0.00    +0.000 A 
ATOM     12  C   UNL     1       6.935   4.584  12.886  0.00  0.00    +0.000 A 
ATOM     13 CL   UNL     1       7.840   4.901  11.457  0.00  0.00    +0.000 Cl
ATOM     14  C   UNL     1       5.698   3.940  12.855  0.00  0.00    +0.000 A 
ATOM     15  C   UNL     1       4.971   3.692  14.061  0.00  0.00    +0.000 A 
ATOM     16  C   UNL     1       5.483   4.067  15.372  0.00  0.00    +0.000 A 
ENDBRANCH   4   6
BRANCH   1  17
ATOM     17  N   UNL     1       1.205   3.862  19.660  0.00  0.00    +0.000 N 
ATOM     18  H   UNL     1       0.348   4.402  19.583  0.00  0.00    +0.000 HD
BRANCH  17  20
ATOM     19  S   UNL     1       1.643   2.916  21.963  0.00  0.00    +0.000 S 
ATOM     20  C   UNL     1       1.752   4.195  20.873  0.00  0.00    +0.000 C 
BRANCH  20  21
ATOM     21  N   UNL     1       2.312   5.431  21.099  0.00  0.00    +0.000 N 
ATOM     22  H   UNL     1       3.027   5.439  21.817  0.00  0.00    +0.000 HD
BRANCH  21  23
ATOM     23  C   UNL     1       1.821   6.767  20.723  0.00  0.00    +0.000 A 
ATOM     24  C   UNL     1       0.958   7.550  21.507  0.00  0.00    +0.000 A 
ATOM     25  C   UNL     1       0.503   8.822  21.081  0.00  0.00    +0.000 A 
ATOM     26  C   UNL     1       0.889   9.330  19.853  0.00  0.00    +0.000 A 
ATOM     27  C   UNL     1       1.733   8.565  19.053  0.00  0.00    +0.000 A 
ATOM     28 CL   UNL     1       2.216   9.187  17.518  0.00  0.00    +0.000 Cl
ATOM     29  C   UNL     1       2.194   7.298  19.479  0.00  0.00    +0.000 A 
ENDBRANCH  21  23
ENDBRANCH  20  21
ENDBRANCH  17  20
ENDBRANCH   1  17
TORSDOF 5
ENDMDL
MODEL 7
REMARK VINA RESULT:      -7.7      2.642      3.617
REMARK  Name = 
REMARK  5 active torsions:
REMARK  status: ('A' for Active; 'I' for Inactive)
REMARK    1  A    between atoms: C_2  and  N_3
REMARK    2  A    between atoms: C_2  and  N_11
REMARK    3  A    between atoms: N_3  and  C_4
REMARK    4  A    between atoms: N_11  and  C_12
REMARK    5  A    between atoms: N_15  and  C_16
REMARK                            x       y       z     vdW  Elec       q    Type
REMARK                         _______ _______ _______ _____ _____    ______ ____
ROOT
ATOM      1  C   UNL     1       2.918   6.629  18.359  0.00  0.00    +0.000 C 
ATOM      2  C   UNL     1       3.058   6.471  19.896  0.00  0.00    +0.000 C 
ATOM      3  C   UNL     1       1.846   7.206  20.541  0.00  0.00    +0.000 C 
ATOM      4  N   UNL     1       1.677   8.366  19.692  0.00  0.00    +0.000 N 
ATOM      5  C   UNL     1       2.133   7.970  18.288  0.00  0.00    +0.000 C 
ENDROOT
BRANCH   4   6
ATOM      6  C   UNL     1       0.841   9.477  19.801  0.00  0.00    +0.000 A 
ATOM      7  C   UNL     1       0.765  10.193  18.615  0.00  0.00    +0.000 A 
ATOM      8  C   UNL     1      -0.520  10.446  18.288  0.00  0.00    +0.000 A 
ATOM      9  N   UNL     1      -1.181  11.257  19.093  0.00  0.00    +0.000 NA
ATOM     10  C   UNL     1      -0.908  11.088  20.391  0.00  0.00    +0.000 A 
ATOM     11  C   UNL     1      -1.698  11.891  21.180  0.00  0.00    +0.000 A 
ATOM     12  C   UNL     1      -1.738  11.734  22.540  0.00  0.00    +0.000 A 
ATOM     13 CL   UNL     1      -2.807  12.713  23.469  0.00  0.00    +0.000 Cl
ATOM     14  C   UNL     1      -0.939  10.750  23.119  0.00  0.00    +0.000 A 
ATOM     15  C   UNL     1      -0.060   9.954  22.318  0.00  0.00    +0.000 A 
ATOM     16  C   UNL     1       0.028  10.106  20.872  0.00  0.00    +0.000 A 
ENDBRANCH   4   6
BRANCH   1  17
ATOM     17  N   UNL     1       2.259   5.419  17.773  0.00  0.00    +0.000 N 
ATOM     18  H   UNL     1       1.286   5.608  17.549  0.00  0.00    +0.000 HD
BRANCH  17  20
ATOM     19  S   UNL     1       1.192   3.267  18.561  0.00  0.00    +0.000 S 
ATOM     20  C   UNL     1       2.404   4.058  17.699  0.00  0.00    +0.000 C 
BRANCH  20  21
ATOM     21  N   UNL     1       3.426   3.477  16.985  0.00  0.00    +0.000 N 
ATOM     22  H   UNL     1       3.329   2.476  16.858  0.00  0.00    +0.000 HD
BRANCH  21  23
ATOM     23  C   UNL     1       4.769   3.996  16.677  0.00  0.00    +0.000 A 
ATOM     24  C   UNL     1       5.304   4.107  15.382  0.00  0.00    +0.000 A 
ATOM     25  C   UNL     1       6.613   4.596  15.150  0.00  0.00    +0.000 A 
ATOM     26  C   UNL     1       7.421   4.968  16.211  0.00  0.00    +0.000 A 
ATOM     27  C   UNL     1       6.917   4.852  17.503  0.00  0.00    +0.000 A 
ATOM     28 CL   UNL     1       7.918   5.307  18.832  0.00  0.00    +0.000 Cl
ATOM     29  C   UNL     1       5.608   4.371  17.737  0.00  0.00    +0.000 A 
ENDBRANCH  21  23
ENDBRANCH  20  21
ENDBRANCH  17  20
ENDBRANCH   1  17
TORSDOF 5
ENDMDL
MODEL 8
REMARK VINA RESULT:      -7.7      3.043      3.438
REMARK  Name = 
REMARK  5 active torsions:
REMARK  status: ('A' for Active; 'I' for Inactive)
REMARK    1  A    between atoms: C_2  and  N_3
REMARK    2  A    between atoms: C_2  and  N_11
REMARK    3  A    between atoms: N_3  and  C_4
REMARK    4  A    between atoms: N_11  and  C_12
REMARK    5  A    between atoms: N_15  and  C_16
REMARK                            x       y       z     vdW  Elec       q    Type
REMARK                         _______ _______ _______ _____ _____    ______ ____
ROOT
ATOM      1  C   UNL     1       3.207   3.785  20.754  0.00  0.00    +0.000 C 
ATOM      2  C   UNL     1       1.731   3.749  21.232  0.00  0.00    +0.000 C 
ATOM      3  C   UNL     1       0.979   4.881  20.469  0.00  0.00    +0.000 C 
ATOM      4  N   UNL     1       1.960   5.944  20.410  0.00  0.00    +0.000 N 
ATOM      5  C   UNL     1       3.340   5.285  20.370  0.00  0.00    +0.000 C 
ENDROOT
BRANCH   4   6
ATOM      6  C   UNL     1       1.870   7.261  19.962  0.00  0.00    +0.000 A 
ATOM      7  C   UNL     1       2.680   7.496  18.860  0.00  0.00    +0.000 A 
ATOM      8  C   UNL     1       1.989   8.118  17.881  0.00  0.00    +0.000 A 
ATOM      9  N   UNL     1       1.583   9.347  18.139  0.00  0.00    +0.000 NA
ATOM     10  C   UNL     1       1.158   9.535  19.392  0.00  0.00    +0.000 A 
ATOM     11  C   UNL     1       0.659  10.804  19.569  0.00  0.00    +0.000 A 
ATOM     12  C   UNL     1      -0.018  11.151  20.708  0.00  0.00    +0.000 A 
ATOM     13 CL   UNL     1      -0.693  12.729  20.840  0.00  0.00    +0.000 Cl
ATOM     14  C   UNL     1      -0.175  10.190  21.706  0.00  0.00    +0.000 A 
ATOM     15  C   UNL     1       0.399   8.887  21.565  0.00  0.00    +0.000 A 
ATOM     16  C   UNL     1       1.145   8.488  20.380  0.00  0.00    +0.000 A 
ENDBRANCH   4   6
BRANCH   1  17
ATOM     17  N   UNL     1       3.421   2.778  19.665  0.00  0.00    +0.000 N 
ATOM     18  H   UNL     1       3.596   1.856  20.053  0.00  0.00    +0.000 HD
BRANCH  17  20
ATOM     19  S   UNL     1       2.520   2.003  17.435  0.00  0.00    +0.000 S 
ATOM     20  C   UNL     1       3.758   2.700  18.339  0.00  0.00    +0.000 C 
BRANCH  20  21
ATOM     21  N   UNL     1       4.966   3.161  17.871  0.00  0.00    +0.000 N 
ATOM     22  H   UNL     1       5.739   2.520  18.012  0.00  0.00    +0.000 HD
BRANCH  21  23
ATOM     23  C   UNL     1       5.376   4.530  17.519  0.00  0.00    +0.000 A 
ATOM     24  C   UNL     1       4.772   5.311  16.518  0.00  0.00    +0.000 A 
ATOM     25  C   UNL     1       5.225   6.617  16.210  0.00  0.00    +0.000 A 
ATOM     26  C   UNL     1       6.303   7.164  16.885  0.00  0.00    +0.000 A 
ATOM     27  C   UNL     1       6.925   6.403  17.870  0.00  0.00    +0.000 A 
ATOM     28 CL   UNL     1       8.274   7.072  18.713  0.00  0.00    +0.000 Cl
ATOM     29  C   UNL     1       6.471   5.101  18.184  0.00  0.00    +0.000 A 
ENDBRANCH  21  23
ENDBRANCH  20  21
ENDBRANCH  17  20
ENDBRANCH   1  17
TORSDOF 5
ENDMDL
MODEL 9
REMARK VINA RESULT:      -7.6      2.759      8.784
REMARK  Name = 
REMARK  5 active torsions:
REMARK  status: ('A' for Active; 'I' for Inactive)
REMARK    1  A    between atoms: C_2  and  N_3
REMARK    2  A    between atoms: C_2  and  N_11
REMARK    3  A    between atoms: N_3  and  C_4
REMARK    4  A    between atoms: N_11  and  C_12
REMARK    5  A    between atoms: N_15  and  C_16
REMARK                            x       y       z     vdW  Elec       q    Type
REMARK                         _______ _______ _______ _____ _____    ______ ____
ROOT
ATOM      1  C   UNL     1       2.087   5.882  19.525  0.00  0.00    +0.000 C 
ATOM      2  C   UNL     1       2.686   4.698  20.330  0.00  0.00    +0.000 C 
ATOM      3  C   UNL     1       4.212   4.666  20.023  0.00  0.00    +0.000 C 
ATOM      4  N   UNL     1       4.272   5.021  18.621  0.00  0.00    +0.000 N 
ATOM      5  C   UNL     1       3.087   5.946  18.337  0.00  0.00    +0.000 C 
ENDROOT
BRANCH   4   6
ATOM      6  C   UNL     1       5.336   5.054  17.720  0.00  0.00    +0.000 A 
ATOM      7  C   UNL     1       6.502   5.527  18.304  0.00  0.00    +0.000 A 
ATOM      8  C   UNL     1       7.540   4.708  18.034  0.00  0.00    +0.000 A 
ATOM      9  N   UNL     1       7.922   4.640  16.772  0.00  0.00    +0.000 NA
ATOM     10  C   UNL     1       6.917   4.653  15.891  0.00  0.00    +0.000 A 
ATOM     11  C   UNL     1       7.373   4.482  14.605  0.00  0.00    +0.000 A 
ATOM     12  C   UNL     1       6.507   4.255  13.568  0.00  0.00    +0.000 A 
ATOM     13 CL   UNL     1       7.139   3.965  11.993  0.00  0.00    +0.000 Cl
ATOM     14  C   UNL     1       5.140   4.222  13.838  0.00  0.00    +0.000 A 
ATOM     15  C   UNL     1       4.648   4.468  15.158  0.00  0.00    +0.000 A 
ATOM     16  C   UNL     1       5.534   4.736  16.283  0.00  0.00    +0.000 A 
ENDBRANCH   4   6
BRANCH   1  17
ATOM     17  N   UNL     1       1.981   7.096  20.396  0.00  0.00    +0.000 N 
ATOM     18  H   UNL     1       2.036   6.844  21.379  0.00  0.00    +0.000 HD
BRANCH  17  20
ATOM     19  S   UNL     1       1.213   8.965  21.915  0.00  0.00    +0.000 S 
ATOM     20  C   UNL     1       1.541   8.394  20.364  0.00  0.00    +0.000 C 
BRANCH  20  21
ATOM     21  N   UNL     1       1.416   9.087  19.183  0.00  0.00    +0.000 N 
ATOM     22  H   UNL     1       2.250   9.081  18.606  0.00  0.00    +0.000 HD
BRANCH  21  23
ATOM     23  C   UNL     1       0.417  10.092  18.786  0.00  0.00    +0.000 A 
ATOM     24  C   UNL     1       0.440  11.440  19.183  0.00  0.00    +0.000 A 
ATOM     25  C   UNL     1      -0.564  12.357  18.784  0.00  0.00    +0.000 A 
ATOM     26  C   UNL     1      -1.622  11.940  17.994  0.00  0.00    +0.000 A 
ATOM     27  C   UNL     1      -1.672  10.606  17.602  0.00  0.00    +0.000 A 
ATOM     28 CL   UNL     1      -2.989  10.074  16.622  0.00  0.00    +0.000 Cl
ATOM     29  C   UNL     1      -0.668   9.690  17.992  0.00  0.00    +0.000 A 
ENDBRANCH  21  23
ENDBRANCH  20  21
ENDBRANCH  17  20
ENDBRANCH   1  17
TORSDOF 5
ENDMDL
