MODEL 1
REMARK VINA RESULT:      -7.2      0.000      0.000
REMARK  Name = 
REMARK  8 active torsions:
REMARK  status: ('A' for Active; 'I' for Inactive)
REMARK    1  A    between atoms: C_1  and  O_2
REMARK    2  A    between atoms: O_2  and  C_3
REMARK    3  A    between atoms: C_3  and  C_5
REMARK    4  A    between atoms: C_6  and  C_7
REMARK    5  A    between atoms: C_7  and  O_9
REMARK    6  A    between atoms: O_9  and  C_10
REMARK    7  A    between atoms: C_21  and  C_22
REMARK    8  A    between atoms: C_22  and  C_24
REMARK                            x       y       z     vdW  Elec       q    Type
REMARK                         _______ _______ _______ _____ _____    ______ ____
ROOT
ATOM      1  C   UNL     1       3.434   4.314  19.351  0.00  0.00    +0.000 A 
ATOM      2  C   UNL     1       2.438   4.463  20.362  0.00  0.00    +0.000 A 
ATOM      3  C   UNL     1       1.947   5.747  20.236  0.00  0.00    +0.000 A 
ATOM      4  C   UNL     1       0.954   6.418  21.000  0.00  0.00    +0.000 A 
ATOM      5  C   UNL     1       0.640   7.691  20.758  0.00  0.00    +0.000 A 
ATOM      6  C   UNL     1       1.322   8.431  19.705  0.00  0.00    +0.000 A 
ATOM      7  C   UNL     1       0.949   9.765  19.484  0.00  0.00    +0.000 A 
ATOM      8  C   UNL     1       1.569  10.505  18.485  0.00  0.00    +0.000 A 
ATOM      9  C   UNL     1       2.597   9.930  17.753  0.00  0.00    +0.000 A 
ATOM     10  C   UNL     1       3.014   8.614  18.016  0.00  0.00    +0.000 A 
ATOM     11  C   UNL     1       2.341   7.821  18.943  0.00  0.00    +0.000 A 
ATOM     12  N   UNL     1       2.610   6.422  19.199  0.00  0.00    +0.000 N 
ATOM     13  C   UNL     1       3.491   5.499  18.592  0.00  0.00    +0.000 A 
ENDROOT
BRANCH   1  14
ATOM     14  C   UNL     1       4.294   3.137  19.213  0.00  0.00    +0.000 C 
ATOM     15  O   UNL     1       5.136   2.839  20.053  0.00  0.00    +0.000 OA
BRANCH  14  17
ATOM     16  C   UNL     1       3.762   1.008  18.417  0.00  0.00    +0.000 C 
ATOM     17  O   UNL     1       4.005   2.383  18.114  0.00  0.00    +0.000 OA
ENDBRANCH  14  17
ENDBRANCH   1  14
BRANCH   2  18
ATOM     18  C   UNL     1       2.022   3.483  21.365  0.00  0.00    +0.000 C 
ATOM     19  O   UNL     1       2.638   3.274  22.405  0.00  0.00    +0.000 OA
BRANCH  18  20
ATOM     20  O   UNL     1       0.839   2.883  21.052  0.00  0.00    +0.000 OA
ATOM     21  C   UNL     1       0.685   2.602  19.660  0.00  0.00    +0.000 C 
ENDBRANCH  18  20
ENDBRANCH   2  18
BRANCH  13  22
ATOM     22  C   UNL     1       4.460   5.687  17.521  0.00  0.00    +0.000 C 
ATOM     23  O   UNL     1       4.163   5.404  16.360  0.00  0.00    +0.000 OA
BRANCH  22  24
ATOM     24  C   UNL     1       5.826   6.256  17.728  0.00  0.00    +0.000 A 
ATOM     25  C   UNL     1       6.279   7.423  17.104  0.00  0.00    +0.000 A 
ATOM     26  C   UNL     1       7.510   7.978  17.479  0.00  0.00    +0.000 A 
ATOM     27  C   UNL     1       8.301   7.359  18.450  0.00  0.00    +0.000 A 
ATOM     28  C   UNL     1       7.875   6.177  19.047  0.00  0.00    +0.000 A 
ATOM     29  C   UNL     1       6.646   5.626  18.685  0.00  0.00    +0.000 A 
ENDBRANCH  22  24
ENDBRANCH  13  22
TORSDOF 6
ENDMDL
MODEL 2
REMARK VINA RESULT:      -7.2      6.536      9.385
REMARK  Name = 
REMARK  8 active torsions:
REMARK  status: ('A' for Active; 'I' for Inactive)
REMARK    1  A    between atoms: C_1  and  O_2
REMARK    2  A    between atoms: O_2  and  C_3
REMARK    3  A    between atoms: C_3  and  C_5
REMARK    4  A    between atoms: C_6  and  C_7
REMARK    5  A    between atoms: C_7  and  O_9
REMARK    6  A    between atoms: O_9  and  C_10
REMARK    7  A    between atoms: C_21  and  C_22
REMARK    8  A    between atoms: C_22  and  C_24
REMARK                            x       y       z     vdW  Elec       q    Type
REMARK                         _______ _______ _______ _____ _____    ______ ____
ROOT
ATOM      1  C   UNL     1      -2.065  12.659  21.504  0.00  0.00    +0.000 A 
ATOM      2  C   UNL     1      -3.475  12.874  21.505  0.00  0.00    +0.000 A 
ATOM      3  C   UNL     1      -3.934  12.447  20.275  0.00  0.00    +0.000 A 
ATOM      4  C   UNL     1      -5.252  12.453  19.746  0.00  0.00    +0.000 A 
ATOM      5  C   UNL     1      -5.500  12.039  18.503  0.00  0.00    +0.000 A 
ATOM      6  C   UNL     1      -4.412  11.579  17.650  0.00  0.00    +0.000 A 
ATOM      7  C   UNL     1      -4.726  11.145  16.353  0.00  0.00    +0.000 A 
ATOM      8  C   UNL     1      -3.720  10.692  15.508  0.00  0.00    +0.000 A 
ATOM      9  C   UNL     1      -2.402  10.730  15.940  0.00  0.00    +0.000 A 
ATOM     10  C   UNL     1      -2.081  11.224  17.216  0.00  0.00    +0.000 A 
ATOM     11  C   UNL     1      -3.080  11.589  18.115  0.00  0.00    +0.000 A 
ATOM     12  N   UNL     1      -2.864  11.992  19.489  0.00  0.00    +0.000 N 
ATOM     13  C   UNL     1      -1.700  12.052  20.287  0.00  0.00    +0.000 A 
ENDROOT
BRANCH   1  14
ATOM     14  C   UNL     1      -1.168  13.090  22.578  0.00  0.00    +0.000 C 
ATOM     15  O   UNL     1      -0.660  12.299  23.365  0.00  0.00    +0.000 OA
BRANCH  14  17
ATOM     16  C   UNL     1      -1.117  15.070  23.815  0.00  0.00    +0.000 C 
ATOM     17  O   UNL     1      -0.903  14.428  22.556  0.00  0.00    +0.000 OA
ENDBRANCH  14  17
ENDBRANCH   1  14
BRANCH   2  18
ATOM     18  C   UNL     1      -4.294  13.458  22.567  0.00  0.00    +0.000 C 
ATOM     19  O   UNL     1      -4.505  14.661  22.677  0.00  0.00    +0.000 OA
BRANCH  18  20
ATOM     20  O   UNL     1      -4.856  12.514  23.375  0.00  0.00    +0.000 OA
ATOM     21  C   UNL     1      -4.278  12.456  24.681  0.00  0.00    +0.000 C 
ENDBRANCH  18  20
ENDBRANCH   2  18
BRANCH  13  22
ATOM     22  C   UNL     1      -0.311  11.763  19.951  0.00  0.00    +0.000 C 
ATOM     23  O   UNL     1       0.451  12.676  19.629  0.00  0.00    +0.000 OA
BRANCH  22  24
ATOM     24  C   UNL     1       0.289  10.396  20.007  0.00  0.00    +0.000 A 
ATOM     25  C   UNL     1       1.026   9.833  18.960  0.00  0.00    +0.000 A 
ATOM     26  C   UNL     1       1.692   8.616  19.156  0.00  0.00    +0.000 A 
ATOM     27  C   UNL     1       1.604   7.947  20.379  0.00  0.00    +0.000 A 
ATOM     28  C   UNL     1       0.840   8.482  21.412  0.00  0.00    +0.000 A 
ATOM     29  C   UNL     1       0.183   9.698  21.226  0.00  0.00    +0.000 A 
ENDBRANCH  22  24
ENDBRANCH  13  22
TORSDOF 6
ENDMDL
MODEL 3
REMARK VINA RESULT:      -7.1      6.244      9.093
REMARK  Name = 
REMARK  8 active torsions:
REMARK  status: ('A' for Active; 'I' for Inactive)
REMARK    1  A    between atoms: C_1  and  O_2
REMARK    2  A    between atoms: O_2  and  C_3
REMARK    3  A    between atoms: C_3  and  C_5
REMARK    4  A    between atoms: C_6  and  C_7
REMARK    5  A    between atoms: C_7  and  O_9
REMARK    6  A    between atoms: O_9  and  C_10
REMARK    7  A    between atoms: C_21  and  C_22
REMARK    8  A    between atoms: C_22  and  C_24
REMARK                            x       y       z     vdW  Elec       q    Type
REMARK                         _______ _______ _______ _____ _____    ______ ____
ROOT
ATOM      1  C   UNL     1      -2.772  11.457  18.124  0.00  0.00    +0.000 A 
ATOM      2  C   UNL     1      -4.103  11.710  18.568  0.00  0.00    +0.000 A 
ATOM      3  C   UNL     1      -3.991  12.386  19.767  0.00  0.00    +0.000 A 
ATOM      4  C   UNL     1      -5.007  12.861  20.639  0.00  0.00    +0.000 A 
ATOM      5  C   UNL     1      -4.703  13.459  21.792  0.00  0.00    +0.000 A 
ATOM      6  C   UNL     1      -3.312  13.628  22.189  0.00  0.00    +0.000 A 
ATOM      7  C   UNL     1      -3.044  14.272  23.407  0.00  0.00    +0.000 A 
ATOM      8  C   UNL     1      -1.732  14.460  23.821  0.00  0.00    +0.000 A 
ATOM      9  C   UNL     1      -0.696  13.953  23.048  0.00  0.00    +0.000 A 
ATOM     10  C   UNL     1      -0.966  13.254  21.860  0.00  0.00    +0.000 A 
ATOM     11  C   UNL     1      -2.267  13.141  21.375  0.00  0.00    +0.000 A 
ATOM     12  N   UNL     1      -2.640  12.551  20.106  0.00  0.00    +0.000 N 
ATOM     13  C   UNL     1      -1.871  12.036  19.039  0.00  0.00    +0.000 A 
ENDROOT
BRANCH   1  14
ATOM     14  C   UNL     1      -2.438  10.651  16.948  0.00  0.00    +0.000 C 
ATOM     15  O   UNL     1      -2.056   9.490  17.037  0.00  0.00    +0.000 OA
BRANCH  14  17
ATOM     16  C   UNL     1      -3.266  10.459  14.773  0.00  0.00    +0.000 C 
ATOM     17  O   UNL     1      -2.671  11.295  15.768  0.00  0.00    +0.000 OA
ENDBRANCH  14  17
ENDBRANCH   1  14
BRANCH   2  18
ATOM     18  C   UNL     1      -5.357  11.316  17.924  0.00  0.00    +0.000 C 
ATOM     19  O   UNL     1      -6.060  10.392  18.318  0.00  0.00    +0.000 OA
BRANCH  18  20
ATOM     20  O   UNL     1      -5.691  12.132  16.884  0.00  0.00    +0.000 OA
ATOM     21  C   UNL     1      -6.745  13.048  17.187  0.00  0.00    +0.000 C 
ENDBRANCH  18  20
ENDBRANCH   2  18
BRANCH  13  22
ATOM     22  C   UNL     1      -0.427  11.894  18.900  0.00  0.00    +0.000 C 
ATOM     23  O   UNL     1       0.243  12.814  18.431  0.00  0.00    +0.000 OA
BRANCH  22  24
ATOM     24  C   UNL     1       0.333  10.684  19.336  0.00  0.00    +0.000 A 
ATOM     25  C   UNL     1       0.182  10.089  20.593  0.00  0.00    +0.000 A 
ATOM     26  C   UNL     1       0.808   8.865  20.861  0.00  0.00    +0.000 A 
ATOM     27  C   UNL     1       1.605   8.248  19.894  0.00  0.00    +0.000 A 
ATOM     28  C   UNL     1       1.793   8.854  18.656  0.00  0.00    +0.000 A 
ATOM     29  C   UNL     1       1.163  10.068  18.379  0.00  0.00    +0.000 A 
ENDBRANCH  22  24
ENDBRANCH  13  22
TORSDOF 6
ENDMDL
MODEL 4
REMARK VINA RESULT:      -7.0      7.416     10.434
REMARK  Name = 
REMARK  8 active torsions:
REMARK  status: ('A' for Active; 'I' for Inactive)
REMARK    1  A    between atoms: C_1  and  O_2
REMARK    2  A    between atoms: O_2  and  C_3
REMARK    3  A    between atoms: C_3  and  C_5
REMARK    4  A    between atoms: C_6  and  C_7
REMARK    5  A    between atoms: C_7  and  O_9
REMARK    6  A    between atoms: O_9  and  C_10
REMARK    7  A    between atoms: C_21  and  C_22
REMARK    8  A    between atoms: C_22  and  C_24
REMARK                            x       y       z     vdW  Elec       q    Type
REMARK                         _______ _______ _______ _____ _____    ______ ____
ROOT
ATOM      1  C   UNL     1      -3.822  13.038  21.681  0.00  0.00    +0.000 A 
ATOM      2  C   UNL     1      -5.156  13.024  21.179  0.00  0.00    +0.000 A 
ATOM      3  C   UNL     1      -5.089  12.480  19.912  0.00  0.00    +0.000 A 
ATOM      4  C   UNL     1      -6.124  12.253  18.965  0.00  0.00    +0.000 A 
ATOM      5  C   UNL     1      -5.858  11.754  17.758  0.00  0.00    +0.000 A 
ATOM      6  C   UNL     1      -4.488  11.441  17.376  0.00  0.00    +0.000 A 
ATOM      7  C   UNL     1      -4.261  10.909  16.097  0.00  0.00    +0.000 A 
ATOM      8  C   UNL     1      -2.971  10.590  15.694  0.00  0.00    +0.000 A 
ATOM      9  C   UNL     1      -1.908  10.856  16.546  0.00  0.00    +0.000 A 
ATOM     10  C   UNL     1      -2.128  11.446  17.802  0.00  0.00    +0.000 A 
ATOM     11  C   UNL     1      -3.420  11.683  18.266  0.00  0.00    +0.000 A 
ATOM     12  N   UNL     1      -3.760  12.170  19.587  0.00  0.00    +0.000 N 
ATOM     13  C   UNL     1      -2.971  12.448  20.726  0.00  0.00    +0.000 A 
ENDROOT
BRANCH   1  14
ATOM     14  C   UNL     1      -3.429  13.651  22.952  0.00  0.00    +0.000 C 
ATOM     15  O   UNL     1      -3.370  14.866  23.102  0.00  0.00    +0.000 OA
BRANCH  14  17
ATOM     16  C   UNL     1      -4.376  12.505  24.752  0.00  0.00    +0.000 C 
ATOM     17  O   UNL     1      -3.219  12.742  23.947  0.00  0.00    +0.000 OA
ENDBRANCH  14  17
ENDBRANCH   1  14
BRANCH   2  18
ATOM     18  C   UNL     1      -6.369  13.512  21.836  0.00  0.00    +0.000 C 
ATOM     19  O   UNL     1      -6.725  14.686  21.819  0.00  0.00    +0.000 OA
BRANCH  18  20
ATOM     20  O   UNL     1      -7.097  12.509  22.405  0.00  0.00    +0.000 OA
ATOM     21  C   UNL     1      -7.869  12.926  23.533  0.00  0.00    +0.000 C 
ENDBRANCH  18  20
ENDBRANCH   2  18
BRANCH  13  22
ATOM     22  C   UNL     1      -1.528  12.372  20.914  0.00  0.00    +0.000 C 
ATOM     23  O   UNL     1      -0.833  13.380  20.782  0.00  0.00    +0.000 OA
BRANCH  22  24
ATOM     24  C   UNL     1      -0.808  11.125  21.309  0.00  0.00    +0.000 A 
ATOM     25  C   UNL     1       0.003  10.392  20.436  0.00  0.00    +0.000 A 
ATOM     26  C   UNL     1       0.772   9.330  20.929  0.00  0.00    +0.000 A 
ATOM     27  C   UNL     1       0.715   8.979  22.280  0.00  0.00    +0.000 A 
ATOM     28  C   UNL     1      -0.119   9.678  23.147  0.00  0.00    +0.000 A 
ATOM     29  C   UNL     1      -0.880  10.743  22.664  0.00  0.00    +0.000 A 
ENDBRANCH  22  24
ENDBRANCH  13  22
TORSDOF 6
ENDMDL
MODEL 5
REMARK VINA RESULT:      -7.0      6.112      8.752
REMARK  Name = 
REMARK  8 active torsions:
REMARK  status: ('A' for Active; 'I' for Inactive)
REMARK    1  A    between atoms: C_1  and  O_2
REMARK    2  A    between atoms: O_2  and  C_3
REMARK    3  A    between atoms: C_3  and  C_5
REMARK    4  A    between atoms: C_6  and  C_7
REMARK    5  A    between atoms: C_7  and  O_9
REMARK    6  A    between atoms: O_9  and  C_10
REMARK    7  A    between atoms: C_21  and  C_22
REMARK    8  A    between atoms: C_22  and  C_24
REMARK                            x       y       z     vdW  Elec       q    Type
REMARK                         _______ _______ _______ _____ _____    ______ ____
ROOT
ATOM      1  C   UNL     1      -1.487  12.373  21.148  0.00  0.00    +0.000 A 
ATOM      2  C   UNL     1      -2.878  12.641  21.314  0.00  0.00    +0.000 A 
ATOM      3  C   UNL     1      -3.487  12.285  20.127  0.00  0.00    +0.000 A 
ATOM      4  C   UNL     1      -4.854  12.362  19.749  0.00  0.00    +0.000 A 
ATOM      5  C   UNL     1      -5.253  12.011  18.526  0.00  0.00    +0.000 A 
ATOM      6  C   UNL     1      -4.286  11.548  17.540  0.00  0.00    +0.000 A 
ATOM      7  C   UNL     1      -4.757  11.181  16.270  0.00  0.00    +0.000 A 
ATOM      8  C   UNL     1      -3.870  10.728  15.302  0.00  0.00    +0.000 A 
ATOM      9  C   UNL     1      -2.512  10.698  15.587  0.00  0.00    +0.000 A 
ATOM     10  C   UNL     1      -2.033  11.125  16.836  0.00  0.00    +0.000 A 
ATOM     11  C   UNL     1      -2.911  11.488  17.855  0.00  0.00    +0.000 A 
ATOM     12  N   UNL     1      -2.529  11.823  19.211  0.00  0.00    +0.000 N 
ATOM     13  C   UNL     1      -1.283  11.806  19.876  0.00  0.00    +0.000 A 
ENDROOT
BRANCH   1  14
ATOM     14  C   UNL     1      -0.461  12.725  22.132  0.00  0.00    +0.000 C 
ATOM     15  O   UNL     1       0.390  13.580  21.913  0.00  0.00    +0.000 OA
BRANCH  14  17
ATOM     16  C   UNL     1      -0.904  10.679  23.164  0.00  0.00    +0.000 C 
ATOM     17  O   UNL     1      -0.602  12.067  23.318  0.00  0.00    +0.000 OA
ENDBRANCH  14  17
ENDBRANCH   1  14
BRANCH   2  18
ATOM     18  C   UNL     1      -3.552  13.209  22.482  0.00  0.00    +0.000 C 
ATOM     19  O   UNL     1      -3.536  14.404  22.759  0.00  0.00    +0.000 OA
BRANCH  18  20
ATOM     20  O   UNL     1      -4.257  12.278  23.186  0.00  0.00    +0.000 OA
ATOM     21  C   UNL     1      -4.168  12.438  24.602  0.00  0.00    +0.000 C 
ENDBRANCH  18  20
ENDBRANCH   2  18
BRANCH  13  22
ATOM     22  C   UNL     1       0.047  11.480  19.377  0.00  0.00    +0.000 C 
ATOM     23  O   UNL     1       0.768  12.364  18.912  0.00  0.00    +0.000 OA
BRANCH  22  24
ATOM     24  C   UNL     1       0.638  10.109  19.424  0.00  0.00    +0.000 A 
ATOM     25  C   UNL     1       1.253   9.495  18.328  0.00  0.00    +0.000 A 
ATOM     26  C   UNL     1       1.927   8.279  18.501  0.00  0.00    +0.000 A 
ATOM     27  C   UNL     1       1.964   7.660  19.753  0.00  0.00    +0.000 A 
ATOM     28  C   UNL     1       1.321   8.245  20.839  0.00  0.00    +0.000 A 
ATOM     29  C   UNL     1       0.657   9.461  20.675  0.00  0.00    +0.000 A 
ENDBRANCH  22  24
ENDBRANCH  13  22
TORSDOF 6
ENDMDL
MODEL 6
REMARK VINA RESULT:      -7.0      6.527      9.276
REMARK  Name = 
REMARK  8 active torsions:
REMARK  status: ('A' for Active; 'I' for Inactive)
REMARK    1  A    between atoms: C_1  and  O_2
REMARK    2  A    between atoms: O_2  and  C_3
REMARK    3  A    between atoms: C_3  and  C_5
REMARK    4  A    between atoms: C_6  and  C_7
REMARK    5  A    between atoms: C_7  and  O_9
REMARK    6  A    between atoms: O_9  and  C_10
REMARK    7  A    between atoms: C_21  and  C_22
REMARK    8  A    between atoms: C_22  and  C_24
REMARK                            x       y       z     vdW  Elec       q    Type
REMARK                         _______ _______ _______ _____ _____    ______ ____
ROOT
ATOM      1  C   UNL     1      -3.524  11.436  18.347  0.00  0.00    +0.000 A 
ATOM      2  C   UNL     1      -4.786  11.709  18.953  0.00  0.00    +0.000 A 
ATOM      3  C   UNL     1      -4.518  12.421  20.105  0.00  0.00    +0.000 A 
ATOM      4  C   UNL     1      -5.411  12.927  21.088  0.00  0.00    +0.000 A 
ATOM      5  C   UNL     1      -4.958  13.558  22.172  0.00  0.00    +0.000 A 
ATOM      6  C   UNL     1      -3.527  13.731  22.380  0.00  0.00    +0.000 A 
ATOM      7  C   UNL     1      -3.102  14.410  23.532  0.00  0.00    +0.000 A 
ATOM      8  C   UNL     1      -1.747  14.603  23.766  0.00  0.00    +0.000 A 
ATOM      9  C   UNL     1      -0.821  14.068  22.881  0.00  0.00    +0.000 A 
ATOM     10  C   UNL     1      -1.245  13.335  21.760  0.00  0.00    +0.000 A 
ATOM     11  C   UNL     1      -2.598  13.214  21.452  0.00  0.00    +0.000 A 
ATOM     12  N   UNL     1      -3.133  12.588  20.261  0.00  0.00    +0.000 N 
ATOM     13  C   UNL     1      -2.511  12.036  19.119  0.00  0.00    +0.000 A 
ENDROOT
BRANCH   1  14
ATOM     14  C   UNL     1      -3.347  10.592  17.163  0.00  0.00    +0.000 C 
ATOM     15  O   UNL     1      -3.168   9.382  17.242  0.00  0.00    +0.000 OA
BRANCH  14  17
ATOM     16  C   UNL     1      -3.272  10.461  14.834  0.00  0.00    +0.000 C 
ATOM     17  O   UNL     1      -3.481  11.275  15.990  0.00  0.00    +0.000 OA
ENDBRANCH  14  17
ENDBRANCH   1  14
BRANCH   2  18
ATOM     18  C   UNL     1      -6.113  11.302  18.489  0.00  0.00    +0.000 C 
ATOM     19  O   UNL     1      -6.830  12.006  17.785  0.00  0.00    +0.000 OA
BRANCH  18  20
ATOM     20  O   UNL     1      -6.433  10.031  18.864  0.00  0.00    +0.000 OA
ATOM     21  C   UNL     1      -7.285   9.966  20.009  0.00  0.00    +0.000 C 
ENDBRANCH  18  20
ENDBRANCH   2  18
BRANCH  13  22
ATOM     22  C   UNL     1      -1.098  11.882  18.798  0.00  0.00    +0.000 C 
ATOM     23  O   UNL     1      -0.488  12.792  18.235  0.00  0.00    +0.000 OA
BRANCH  22  24
ATOM     24  C   UNL     1      -0.294  10.673  19.150  0.00  0.00    +0.000 A 
ATOM     25  C   UNL     1       0.626  10.078  18.281  0.00  0.00    +0.000 A 
ATOM     26  C   UNL     1       1.457   9.050  18.746  0.00  0.00    +0.000 A 
ATOM     27  C   UNL     1       1.353   8.596  20.063  0.00  0.00    +0.000 A 
ATOM     28  C   UNL     1       0.413   9.156  20.922  0.00  0.00    +0.000 A 
ATOM     29  C   UNL     1      -0.409  10.186  20.467  0.00  0.00    +0.000 A 
ENDBRANCH  22  24
ENDBRANCH  13  22
TORSDOF 6
ENDMDL
MODEL 7
REMARK VINA RESULT:      -7.0      6.887      9.835
REMARK  Name = 
REMARK  8 active torsions:
REMARK  status: ('A' for Active; 'I' for Inactive)
REMARK    1  A    between atoms: C_1  and  O_2
REMARK    2  A    between atoms: O_2  and  C_3
REMARK    3  A    between atoms: C_3  and  C_5
REMARK    4  A    between atoms: C_6  and  C_7
REMARK    5  A    between atoms: C_7  and  O_9
REMARK    6  A    between atoms: O_9  and  C_10
REMARK    7  A    between atoms: C_21  and  C_22
REMARK    8  A    between atoms: C_22  and  C_24
REMARK                            x       y       z     vdW  Elec       q    Type
REMARK                         _______ _______ _______ _____ _____    ______ ____
ROOT
ATOM      1  C   UNL     1      -3.257  11.665  18.815  0.00  0.00    +0.000 A 
ATOM      2  C   UNL     1      -4.646  11.957  18.958  0.00  0.00    +0.000 A 
ATOM      3  C   UNL     1      -4.774  12.675  20.130  0.00  0.00    +0.000 A 
ATOM      4  C   UNL     1      -5.940  13.199  20.750  0.00  0.00    +0.000 A 
ATOM      5  C   UNL     1      -5.873  13.833  21.921  0.00  0.00    +0.000 A 
ATOM      6  C   UNL     1      -4.595  13.993  22.600  0.00  0.00    +0.000 A 
ATOM      7  C   UNL     1      -4.576  14.676  23.826  0.00  0.00    +0.000 A 
ATOM      8  C   UNL     1      -3.377  14.857  24.504  0.00  0.00    +0.000 A 
ATOM      9  C   UNL     1      -2.214  14.304  23.986  0.00  0.00    +0.000 A 
ATOM     10  C   UNL     1      -2.243  13.567  22.791  0.00  0.00    +0.000 A 
ATOM     11  C   UNL     1      -3.413  13.458  22.044  0.00  0.00    +0.000 A 
ATOM     12  N   UNL     1      -3.522  12.828  20.744  0.00  0.00    +0.000 N 
ATOM     13  C   UNL     1      -2.557  12.261  19.883  0.00  0.00    +0.000 A 
ENDROOT
BRANCH   1  14
ATOM     14  C   UNL     1      -2.700  10.811  17.764  0.00  0.00    +0.000 C 
ATOM     15  O   UNL     1      -2.571   9.600  17.905  0.00  0.00    +0.000 OA
BRANCH  14  17
ATOM     16  C   UNL     1      -2.888  10.813  15.437  0.00  0.00    +0.000 C 
ATOM     17  O   UNL     1      -2.424  11.485  16.611  0.00  0.00    +0.000 OA
ENDBRANCH  14  17
ENDBRANCH   1  14
BRANCH   2  18
ATOM     18  C   UNL     1      -5.742  11.561  18.073  0.00  0.00    +0.000 C 
ATOM     19  O   UNL     1      -6.544  10.673  18.343  0.00  0.00    +0.000 OA
BRANCH  18  20
ATOM     20  O   UNL     1      -5.819  12.335  16.953  0.00  0.00    +0.000 OA
ATOM     21  C   UNL     1      -6.789  13.379  17.040  0.00  0.00    +0.000 C 
ENDBRANCH  18  20
ENDBRANCH   2  18
BRANCH  13  22
ATOM     22  C   UNL     1      -1.120  12.089  20.059  0.00  0.00    +0.000 C 
ATOM     23  O   UNL     1      -0.345  12.988  19.732  0.00  0.00    +0.000 OA
BRANCH  22  24
ATOM     24  C   UNL     1      -0.499  10.875  20.667  0.00  0.00    +0.000 A 
ATOM     25  C   UNL     1       0.300   9.976  19.952  0.00  0.00    +0.000 A 
ATOM     26  C   UNL     1       0.978   8.956  20.632  0.00  0.00    +0.000 A 
ATOM     27  C   UNL     1       0.841   8.812  22.015  0.00  0.00    +0.000 A 
ATOM     28  C   UNL     1       0.017   9.678  22.727  0.00  0.00    +0.000 A 
ATOM     29  C   UNL     1      -0.653  10.701  22.057  0.00  0.00    +0.000 A 
ENDBRANCH  22  24
ENDBRANCH  13  22
TORSDOF 6
ENDMDL
MODEL 8
REMARK VINA RESULT:      -7.0      6.333      9.772
REMARK  Name = 
REMARK  8 active torsions:
REMARK  status: ('A' for Active; 'I' for Inactive)
REMARK    1  A    between atoms: C_1  and  O_2
REMARK    2  A    between atoms: O_2  and  C_3
REMARK    3  A    between atoms: C_3  and  C_5
REMARK    4  A    between atoms: C_6  and  C_7
REMARK    5  A    between atoms: C_7  and  O_9
REMARK    6  A    between atoms: O_9  and  C_10
REMARK    7  A    between atoms: C_21  and  C_22
REMARK    8  A    between atoms: C_22  and  C_24
REMARK                            x       y       z     vdW  Elec       q    Type
REMARK                         _______ _______ _______ _____ _____    ______ ____
ROOT
ATOM      1  C   UNL     1      -2.570  12.718  21.030  0.00  0.00    +0.000 A 
ATOM      2  C   UNL     1      -2.399  12.225  22.357  0.00  0.00    +0.000 A 
ATOM      3  C   UNL     1      -1.433  11.242  22.286  0.00  0.00    +0.000 A 
ATOM      4  C   UNL     1      -0.897  10.419  23.313  0.00  0.00    +0.000 A 
ATOM      5  C   UNL     1       0.009   9.479  23.042  0.00  0.00    +0.000 A 
ATOM      6  C   UNL     1       0.463   9.266  21.675  0.00  0.00    +0.000 A 
ATOM      7  C   UNL     1       1.424   8.270  21.443  0.00  0.00    +0.000 A 
ATOM      8  C   UNL     1       1.890   8.037  20.156  0.00  0.00    +0.000 A 
ATOM      9  C   UNL     1       1.352   8.758  19.099  0.00  0.00    +0.000 A 
ATOM     10  C   UNL     1       0.345   9.711  19.322  0.00  0.00    +0.000 A 
ATOM     11  C   UNL     1      -0.066  10.031  20.614  0.00  0.00    +0.000 A 
ATOM     12  N   UNL     1      -1.003  11.079  20.960  0.00  0.00    +0.000 N 
ATOM     13  C   UNL     1      -1.660  12.058  20.181  0.00  0.00    +0.000 A 
ENDROOT
BRANCH   1  14
ATOM     14  C   UNL     1      -3.593  13.690  20.640  0.00  0.00    +0.000 C 
ATOM     15  O   UNL     1      -3.351  14.886  20.526  0.00  0.00    +0.000 OA
BRANCH  14  17
ATOM     16  C   UNL     1      -5.914  13.881  20.808  0.00  0.00    +0.000 C 
ATOM     17  O   UNL     1      -4.797  13.118  20.347  0.00  0.00    +0.000 OA
ENDBRANCH  14  17
ENDBRANCH   1  14
BRANCH   2  18
ATOM     18  C   UNL     1      -3.112  12.636  23.567  0.00  0.00    +0.000 C 
ATOM     19  O   UNL     1      -3.757  11.865  24.269  0.00  0.00    +0.000 OA
BRANCH  18  20
ATOM     20  O   UNL     1      -2.920  13.952  23.868  0.00  0.00    +0.000 OA
ATOM     21  C   UNL     1      -1.558  14.290  24.134  0.00  0.00    +0.000 C 
ENDBRANCH  18  20
ENDBRANCH   2  18
BRANCH  13  22
ATOM     22  C   UNL     1      -1.633  12.292  18.743  0.00  0.00    +0.000 C 
ATOM     23  O   UNL     1      -0.864  13.128  18.266  0.00  0.00    +0.000 OA
BRANCH  22  24
ATOM     24  C   UNL     1      -2.471  11.538  17.763  0.00  0.00    +0.000 A 
ATOM     25  C   UNL     1      -3.834  11.780  17.564  0.00  0.00    +0.000 A 
ATOM     26  C   UNL     1      -4.507  11.145  16.513  0.00  0.00    +0.000 A 
ATOM     27  C   UNL     1      -3.834  10.249  15.678  0.00  0.00    +0.000 A 
ATOM     28  C   UNL     1      -2.488   9.972  15.894  0.00  0.00    +0.000 A 
ATOM     29  C   UNL     1      -1.810  10.610  16.933  0.00  0.00    +0.000 A 
ENDBRANCH  22  24
ENDBRANCH  13  22
TORSDOF 6
ENDMDL
MODEL 9
REMARK VINA RESULT:      -6.9      8.743     12.356
REMARK  Name = 
REMARK  8 active torsions:
REMARK  status: ('A' for Active; 'I' for Inactive)
REMARK    1  A    between atoms: C_1  and  O_2
REMARK    2  A    between atoms: O_2  and  C_3
REMARK    3  A    between atoms: C_3  and  C_5
REMARK    4  A    between atoms: C_6  and  C_7
REMARK    5  A    between atoms: C_7  and  O_9
REMARK    6  A    between atoms: O_9  and  C_10
REMARK    7  A    between atoms: C_21  and  C_22
REMARK    8  A    between atoms: C_22  and  C_24
REMARK                            x       y       z     vdW  Elec       q    Type
REMARK                         _______ _______ _______ _____ _____    ______ ____
ROOT
ATOM      1  C   UNL     1      -5.226  13.124  21.072  0.00  0.00    +0.000 A 
ATOM      2  C   UNL     1      -3.915  12.775  21.513  0.00  0.00    +0.000 A 
ATOM      3  C   UNL     1      -3.273  12.222  20.424  0.00  0.00    +0.000 A 
ATOM      4  C   UNL     1      -1.958  11.693  20.318  0.00  0.00    +0.000 A 
ATOM      5  C   UNL     1      -1.522  11.150  19.181  0.00  0.00    +0.000 A 
ATOM      6  C   UNL     1      -2.396  11.076  18.017  0.00  0.00    +0.000 A 
ATOM      7  C   UNL     1      -1.887  10.504  16.841  0.00  0.00    +0.000 A 
ATOM      8  C   UNL     1      -2.684  10.419  15.707  0.00  0.00    +0.000 A 
ATOM      9  C   UNL     1      -4.001  10.852  15.768  0.00  0.00    +0.000 A 
ATOM     10  C   UNL     1      -4.530  11.367  16.963  0.00  0.00    +0.000 A 
ATOM     11  C   UNL     1      -3.723  11.554  18.083  0.00  0.00    +0.000 A 
ATOM     12  N   UNL     1      -4.135  12.187  19.318  0.00  0.00    +0.000 N 
ATOM     13  C   UNL     1      -5.337  12.823  19.701  0.00  0.00    +0.000 A 
ENDROOT
BRANCH   1  14
ATOM     14  C   UNL     1      -6.281  13.630  21.952  0.00  0.00    +0.000 C 
ATOM     15  O   UNL     1      -6.465  14.829  22.132  0.00  0.00    +0.000 OA
BRANCH  14  17
ATOM     16  C   UNL     1      -7.083  12.628  23.903  0.00  0.00    +0.000 C 
ATOM     17  O   UNL     1      -7.068  12.645  22.473  0.00  0.00    +0.000 OA
ENDBRANCH  14  17
ENDBRANCH   1  14
BRANCH   2  18
ATOM     18  C   UNL     1      -3.347  12.930  22.853  0.00  0.00    +0.000 C 
ATOM     19  O   UNL     1      -3.424  12.072  23.726  0.00  0.00    +0.000 OA
BRANCH  18  20
ATOM     20  O   UNL     1      -2.661  14.099  22.999  0.00  0.00    +0.000 OA
ATOM     21  C   UNL     1      -1.316  13.926  23.448  0.00  0.00    +0.000 C 
ENDBRANCH  18  20
ENDBRANCH   2  18
BRANCH  13  22
ATOM     22  C   UNL     1      -6.584  13.002  18.967  0.00  0.00    +0.000 C 
ATOM     23  O   UNL     1      -7.467  12.147  19.028  0.00  0.00    +0.000 OA
BRANCH  22  24
ATOM     24  C   UNL     1      -6.896  14.210  18.145  0.00  0.00    +0.000 A 
ATOM     25  C   UNL     1      -6.651  15.520  18.573  0.00  0.00    +0.000 A 
ATOM     26  C   UNL     1      -6.818  16.585  17.679  0.00  0.00    +0.000 A 
ATOM     27  C   UNL     1      -7.256  16.353  16.372  0.00  0.00    +0.000 A 
ATOM     28  C   UNL     1      -7.539  15.058  15.952  0.00  0.00    +0.000 A 
ATOM     29  C   UNL     1      -7.365  13.992  16.834  0.00  0.00    +0.000 A 
ENDBRANCH  22  24
ENDBRANCH  13  22
TORSDOF 6
ENDMDL
