MODEL 1
REMARK VINA RESULT:      -8.0      0.000      0.000
REMARK  Name = 
REMARK  3 active torsions:
REMARK  status: ('A' for Active; 'I' for Inactive)
REMARK    1  A    between atoms: C_2  and  C_15
REMARK    2  A    between atoms: C_6  and  C_7
REMARK    3  A    between atoms: C_18  and  N_19
REMARK                            x       y       z     vdW  Elec       q    Type
REMARK                         _______ _______ _______ _____ _____    ______ ____
ROOT
ATOM      1  O   UNL     1       2.145   8.622  19.202  0.00  0.00    +0.000 OA
ATOM      2  C   UNL     1       1.632   8.231  20.242  0.00  0.00    +0.000 C 
ATOM      3  N   UNL     1       1.719   6.981  20.810  0.00  0.00    +0.000 N 
ATOM      4  C   UNL     1       2.467   5.989  20.243  0.00  0.00    +0.000 A 
ATOM      5  N   UNL     1       3.348   6.077  19.286  0.00  0.00    +0.000 NA
ATOM      6  C   UNL     1       3.813   4.810  18.966  0.00  0.00    +0.000 A 
ATOM      7  C   UNL     1       3.262   3.785  19.715  0.00  0.00    +0.000 A 
ATOM      8  S   UNL     1       2.182   4.435  20.883  0.00  0.00    +0.000 S 
ATOM      9  H   UNL     1       1.116   6.702  21.568  0.00  0.00    +0.000 HD
ENDROOT
BRANCH   6  10
ATOM     10  C   UNL     1       4.799   4.611  17.910  0.00  0.00    +0.000 A 
ATOM     11  C   UNL     1       4.379   4.279  16.624  0.00  0.00    +0.000 A 
ATOM     12  C   UNL     1       5.337   4.089  15.632  0.00  0.00    +0.000 A 
ATOM     13  C   UNL     1       6.681   4.235  15.953  0.00  0.00    +0.000 A 
ATOM     14  C   UNL     1       7.012   4.568  17.258  0.00  0.00    +0.000 A 
ATOM     15  N   UNL     1       6.106   4.765  18.243  0.00  0.00    +0.000 NA
ENDBRANCH   6  10
BRANCH   2  16
ATOM     16  C   UNL     1       0.738   9.169  20.975  0.00  0.00    +0.000 A 
ATOM     17  C   UNL     1       0.549   8.978  22.351  0.00  0.00    +0.000 A 
ATOM     18  C   UNL     1      -0.257   9.859  23.078  0.00  0.00    +0.000 A 
ATOM     19  C   UNL     1      -0.881  10.926  22.416  0.00  0.00    +0.000 A 
ATOM     20  C   UNL     1      -0.716  11.106  21.035  0.00  0.00    +0.000 A 
ATOM     21  C   UNL     1       0.090  10.222  20.314  0.00  0.00    +0.000 A 
BRANCH  19  22
ATOM     22  N   UNL     1      -1.713  11.870  23.172  0.00  0.00    +0.000 N 
ATOM     23  O   UNL     1      -1.210  12.959  23.486  0.00  0.00    +0.000 OA
ATOM     24  O   UNL     1      -2.872  11.526  23.444  0.00  0.00    +0.000 OA
ENDBRANCH  19  22
ENDBRANCH   2  16
TORSDOF 3
ENDMDL
MODEL 2
REMARK VINA RESULT:      -7.9      0.904      1.407
REMARK  Name = 
REMARK  3 active torsions:
REMARK  status: ('A' for Active; 'I' for Inactive)
REMARK    1  A    between atoms: C_2  and  C_15
REMARK    2  A    between atoms: C_6  and  C_7
REMARK    3  A    between atoms: C_18  and  N_19
REMARK                            x       y       z     vdW  Elec       q    Type
REMARK                         _______ _______ _______ _____ _____    ______ ____
ROOT
ATOM      1  O   UNL     1       1.666   9.047  19.055  0.00  0.00    +0.000 OA
ATOM      2  C   UNL     1       1.325   8.647  20.160  0.00  0.00    +0.000 C 
ATOM      3  N   UNL     1       1.555   7.411  20.719  0.00  0.00    +0.000 N 
ATOM      4  C   UNL     1       2.266   6.450  20.060  0.00  0.00    +0.000 A 
ATOM      5  N   UNL     1       2.998   6.567  18.988  0.00  0.00    +0.000 NA
ATOM      6  C   UNL     1       3.478   5.321  18.615  0.00  0.00    +0.000 A 
ATOM      7  C   UNL     1       3.091   4.281  19.442  0.00  0.00    +0.000 A 
ATOM      8  S   UNL     1       2.154   4.892  20.745  0.00  0.00    +0.000 S 
ATOM      9  H   UNL     1       1.080   7.113  21.557  0.00  0.00    +0.000 HD
ENDROOT
BRANCH   6  10
ATOM     10  C   UNL     1       4.315   5.156  17.431  0.00  0.00    +0.000 A 
ATOM     11  C   UNL     1       4.772   3.888  17.077  0.00  0.00    +0.000 A 
ATOM     12  C   UNL     1       5.572   3.754  15.947  0.00  0.00    +0.000 A 
ATOM     13  C   UNL     1       5.893   4.886  15.207  0.00  0.00    +0.000 A 
ATOM     14  C   UNL     1       5.395   6.109  15.629  0.00  0.00    +0.000 A 
ATOM     15  N   UNL     1       4.611   6.273  16.719  0.00  0.00    +0.000 NA
ENDBRANCH   6  10
BRANCH   2  16
ATOM     16  C   UNL     1       0.496   9.550  21.005  0.00  0.00    +0.000 A 
ATOM     17  C   UNL     1      -0.008  10.727  20.434  0.00  0.00    +0.000 A 
ATOM     18  C   UNL     1      -0.818  11.582  21.186  0.00  0.00    +0.000 A 
ATOM     19  C   UNL     1      -1.111  11.256  22.519  0.00  0.00    +0.000 A 
ATOM     20  C   UNL     1      -0.587  10.094  23.102  0.00  0.00    +0.000 A 
ATOM     21  C   UNL     1       0.222   9.244  22.345  0.00  0.00    +0.000 A 
BRANCH  19  22
ATOM     22  N   UNL     1      -1.977  12.136  23.313  0.00  0.00    +0.000 N 
ATOM     23  O   UNL     1      -1.542  13.260  23.608  0.00  0.00    +0.000 OA
ATOM     24  O   UNL     1      -3.094  11.708  23.634  0.00  0.00    +0.000 OA
ENDBRANCH  19  22
ENDBRANCH   2  16
TORSDOF 3
ENDMDL
MODEL 3
REMARK VINA RESULT:      -7.9      0.844      1.396
REMARK  Name = 
REMARK  3 active torsions:
REMARK  status: ('A' for Active; 'I' for Inactive)
REMARK    1  A    between atoms: C_2  and  C_15
REMARK    2  A    between atoms: C_6  and  C_7
REMARK    3  A    between atoms: C_18  and  N_19
REMARK                            x       y       z     vdW  Elec       q    Type
REMARK                         _______ _______ _______ _____ _____    ______ ____
ROOT
ATOM      1  O   UNL     1       1.731   8.950  18.999  0.00  0.00    +0.000 OA
ATOM      2  C   UNL     1       1.414   8.553  20.113  0.00  0.00    +0.000 C 
ATOM      3  N   UNL     1       1.662   7.322  20.674  0.00  0.00    +0.000 N 
ATOM      4  C   UNL     1       2.366   6.361  20.006  0.00  0.00    +0.000 A 
ATOM      5  N   UNL     1       3.076   6.477  18.919  0.00  0.00    +0.000 NA
ATOM      6  C   UNL     1       3.556   5.231  18.543  0.00  0.00    +0.000 A 
ATOM      7  C   UNL     1       3.192   4.194  19.383  0.00  0.00    +0.000 A 
ATOM      8  S   UNL     1       2.277   4.807  20.702  0.00  0.00    +0.000 S 
ATOM      9  H   UNL     1       1.205   7.026  21.523  0.00  0.00    +0.000 HD
ENDROOT
BRANCH   6  10
ATOM     10  C   UNL     1       4.370   5.065  17.344  0.00  0.00    +0.000 A 
ATOM     11  C   UNL     1       4.680   6.172  16.558  0.00  0.00    +0.000 A 
ATOM     12  C   UNL     1       5.454   5.990  15.416  0.00  0.00    +0.000 A 
ATOM     13  C   UNL     1       5.893   4.711  15.094  0.00  0.00    +0.000 A 
ATOM     14  C   UNL     1       5.539   3.665  15.932  0.00  0.00    +0.000 A 
ATOM     15  N   UNL     1       4.794   3.809  17.051  0.00  0.00    +0.000 NA
ENDBRANCH   6  10
BRANCH   2  16
ATOM     16  C   UNL     1       0.596   9.456  20.969  0.00  0.00    +0.000 A 
ATOM     17  C   UNL     1       0.103  10.644  20.411  0.00  0.00    +0.000 A 
ATOM     18  C   UNL     1      -0.697  11.499  21.175  0.00  0.00    +0.000 A 
ATOM     19  C   UNL     1      -0.989  11.163  22.505  0.00  0.00    +0.000 A 
ATOM     20  C   UNL     1      -0.475   9.990  23.075  0.00  0.00    +0.000 A 
ATOM     21  C   UNL     1       0.323   9.139  22.307  0.00  0.00    +0.000 A 
BRANCH  19  22
ATOM     22  N   UNL     1      -1.844  12.043  23.311  0.00  0.00    +0.000 N 
ATOM     23  O   UNL     1      -1.363  13.119  23.696  0.00  0.00    +0.000 OA
ATOM     24  O   UNL     1      -2.998  11.663  23.550  0.00  0.00    +0.000 OA
ENDBRANCH  19  22
ENDBRANCH   2  16
TORSDOF 3
ENDMDL
MODEL 4
REMARK VINA RESULT:      -7.8      0.889      1.163
REMARK  Name = 
REMARK  3 active torsions:
REMARK  status: ('A' for Active; 'I' for Inactive)
REMARK    1  A    between atoms: C_2  and  C_15
REMARK    2  A    between atoms: C_6  and  C_7
REMARK    3  A    between atoms: C_18  and  N_19
REMARK                            x       y       z     vdW  Elec       q    Type
REMARK                         _______ _______ _______ _____ _____    ______ ____
ROOT
ATOM      1  O   UNL     1       1.751   8.870  18.765  0.00  0.00    +0.000 OA
ATOM      2  C   UNL     1       1.450   8.491  19.889  0.00  0.00    +0.000 C 
ATOM      3  N   UNL     1       1.739   7.281  20.478  0.00  0.00    +0.000 N 
ATOM      4  C   UNL     1       2.469   6.327  19.830  0.00  0.00    +0.000 A 
ATOM      5  N   UNL     1       3.171   6.439  18.737  0.00  0.00    +0.000 NA
ATOM      6  C   UNL     1       3.688   5.200  18.388  0.00  0.00    +0.000 A 
ATOM      7  C   UNL     1       3.359   4.171  19.254  0.00  0.00    +0.000 A 
ATOM      8  S   UNL     1       2.430   4.787  20.562  0.00  0.00    +0.000 S 
ATOM      9  H   UNL     1       1.294   6.991  21.335  0.00  0.00    +0.000 HD
ENDROOT
BRANCH   6  10
ATOM     10  C   UNL     1       4.502   5.030  17.191  0.00  0.00    +0.000 A 
ATOM     11  C   UNL     1       4.975   3.765  16.848  0.00  0.00    +0.000 A 
ATOM     12  C   UNL     1       5.754   3.626  15.703  0.00  0.00    +0.000 A 
ATOM     13  C   UNL     1       6.038   4.750  14.938  0.00  0.00    +0.000 A 
ATOM     14  C   UNL     1       5.527   5.972  15.351  0.00  0.00    +0.000 A 
ATOM     15  N   UNL     1       4.763   6.140  16.454  0.00  0.00    +0.000 NA
ENDBRANCH   6  10
BRANCH   2  16
ATOM     16  C   UNL     1       0.608   9.388  20.727  0.00  0.00    +0.000 A 
ATOM     17  C   UNL     1       0.465   9.092  22.090  0.00  0.00    +0.000 A 
ATOM     18  C   UNL     1      -0.291   9.931  22.915  0.00  0.00    +0.000 A 
ATOM     19  C   UNL     1      -0.911  11.062  22.362  0.00  0.00    +0.000 A 
ATOM     20  C   UNL     1      -0.792  11.346  20.995  0.00  0.00    +0.000 A 
ATOM     21  C   UNL     1      -0.036  10.504  20.176  0.00  0.00    +0.000 A 
BRANCH  19  22
ATOM     22  N   UNL     1      -1.690  11.961  23.222  0.00  0.00    +0.000 N 
ATOM     23  O   UNL     1      -2.847  11.622  23.514  0.00  0.00    +0.000 OA
ATOM     24  O   UNL     1      -1.142  13.001  23.613  0.00  0.00    +0.000 OA
ENDBRANCH  19  22
ENDBRANCH   2  16
TORSDOF 3
ENDMDL
MODEL 5
REMARK VINA RESULT:      -7.6      0.599      1.568
REMARK  Name = 
REMARK  3 active torsions:
REMARK  status: ('A' for Active; 'I' for Inactive)
REMARK    1  A    between atoms: C_2  and  C_15
REMARK    2  A    between atoms: C_6  and  C_7
REMARK    3  A    between atoms: C_18  and  N_19
REMARK                            x       y       z     vdW  Elec       q    Type
REMARK                         _______ _______ _______ _____ _____    ______ ____
ROOT
ATOM      1  O   UNL     1       2.200   8.607  19.280  0.00  0.00    +0.000 OA
ATOM      2  C   UNL     1       1.706   8.218  20.331  0.00  0.00    +0.000 C 
ATOM      3  N   UNL     1       1.782   6.961  20.886  0.00  0.00    +0.000 N 
ATOM      4  C   UNL     1       2.494   5.959  20.292  0.00  0.00    +0.000 A 
ATOM      5  N   UNL     1       3.351   6.037  19.312  0.00  0.00    +0.000 NA
ATOM      6  C   UNL     1       3.782   4.764  18.970  0.00  0.00    +0.000 A 
ATOM      7  C   UNL     1       3.229   3.744  19.725  0.00  0.00    +0.000 A 
ATOM      8  S   UNL     1       2.194   4.406  20.926  0.00  0.00    +0.000 S 
ATOM      9  H   UNL     1       1.193   6.688  21.657  0.00  0.00    +0.000 HD
ENDROOT
BRANCH   6  10
ATOM     10  C   UNL     1       4.735   4.554  17.886  0.00  0.00    +0.000 A 
ATOM     11  C   UNL     1       6.099   4.697  18.126  0.00  0.00    +0.000 A 
ATOM     12  C   UNL     1       6.991   4.496  17.077  0.00  0.00    +0.000 A 
ATOM     13  C   UNL     1       6.495   4.162  15.823  0.00  0.00    +0.000 A 
ATOM     14  C   UNL     1       5.122   4.038  15.671  0.00  0.00    +0.000 A 
ATOM     15  N   UNL     1       4.230   4.221  16.670  0.00  0.00    +0.000 NA
ENDBRANCH   6  10
BRANCH   2  16
ATOM     16  C   UNL     1       0.851   9.168  21.094  0.00  0.00    +0.000 A 
ATOM     17  C   UNL     1       0.300  10.266  20.419  0.00  0.00    +0.000 A 
ATOM     18  C   UNL     1      -0.534  11.160  21.096  0.00  0.00    +0.000 A 
ATOM     19  C   UNL     1      -0.804  10.954  22.457  0.00  0.00    +0.000 A 
ATOM     20  C   UNL     1      -0.234   9.872  23.143  0.00  0.00    +0.000 A 
ATOM     21  C   UNL     1       0.599   8.982  22.460  0.00  0.00    +0.000 A 
BRANCH  19  22
ATOM     22  N   UNL     1      -1.695  11.874  23.173  0.00  0.00    +0.000 N 
ATOM     23  O   UNL     1      -2.851  11.491  23.410  0.00  0.00    +0.000 OA
ATOM     24  O   UNL     1      -1.237  12.975  23.507  0.00  0.00    +0.000 OA
ENDBRANCH  19  22
ENDBRANCH   2  16
TORSDOF 3
ENDMDL
MODEL 6
REMARK VINA RESULT:      -7.5      0.612      1.262
REMARK  Name = 
REMARK  3 active torsions:
REMARK  status: ('A' for Active; 'I' for Inactive)
REMARK    1  A    between atoms: C_2  and  C_15
REMARK    2  A    between atoms: C_6  and  C_7
REMARK    3  A    between atoms: C_18  and  N_19
REMARK                            x       y       z     vdW  Elec       q    Type
REMARK                         _______ _______ _______ _____ _____    ______ ____
ROOT
ATOM      1  O   UNL     1       2.153   8.653  18.743  0.00  0.00    +0.000 OA
ATOM      2  C   UNL     1       1.699   8.311  19.827  0.00  0.00    +0.000 C 
ATOM      3  N   UNL     1       1.878   7.112  20.477  0.00  0.00    +0.000 N 
ATOM      4  C   UNL     1       2.663   6.125  19.954  0.00  0.00    +0.000 A 
ATOM      5  N   UNL     1       3.503   6.192  18.960  0.00  0.00    +0.000 NA
ATOM      6  C   UNL     1       4.030   4.933  18.712  0.00  0.00    +0.000 A 
ATOM      7  C   UNL     1       3.566   3.936  19.552  0.00  0.00    +0.000 A 
ATOM      8  S   UNL     1       2.491   4.607  20.712  0.00  0.00    +0.000 S 
ATOM      9  H   UNL     1       1.318   6.855  21.276  0.00  0.00    +0.000 HD
ENDROOT
BRANCH   6  10
ATOM     10  C   UNL     1       4.989   4.713  17.635  0.00  0.00    +0.000 A 
ATOM     11  C   UNL     1       4.534   4.454  16.344  0.00  0.00    +0.000 A 
ATOM     12  C   UNL     1       5.466   4.243  15.333  0.00  0.00    +0.000 A 
ATOM     13  C   UNL     1       6.820   4.294  15.639  0.00  0.00    +0.000 A 
ATOM     14  C   UNL     1       7.187   4.558  16.950  0.00  0.00    +0.000 A 
ATOM     15  N   UNL     1       6.307   4.774  17.954  0.00  0.00    +0.000 NA
ENDBRANCH   6  10
BRANCH   2  16
ATOM     16  C   UNL     1       0.777   9.249  20.526  0.00  0.00    +0.000 A 
ATOM     17  C   UNL     1       0.220  10.309  19.797  0.00  0.00    +0.000 A 
ATOM     18  C   UNL     1      -0.675  11.189  20.411  0.00  0.00    +0.000 A 
ATOM     19  C   UNL     1      -1.000  11.007  21.764  0.00  0.00    +0.000 A 
ATOM     20  C   UNL     1      -0.424   9.965  22.503  0.00  0.00    +0.000 A 
ATOM     21  C   UNL     1       0.470   9.089  21.883  0.00  0.00    +0.000 A 
BRANCH  19  22
ATOM     22  N   UNL     1      -1.954  11.913  22.415  0.00  0.00    +0.000 N 
ATOM     23  O   UNL     1      -2.410  11.575  23.517  0.00  0.00    +0.000 OA
ATOM     24  O   UNL     1      -2.240  12.966  21.828  0.00  0.00    +0.000 OA
ENDBRANCH  19  22
ENDBRANCH   2  16
TORSDOF 3
ENDMDL
MODEL 7
REMARK VINA RESULT:      -7.5      0.692      1.074
REMARK  Name = 
REMARK  3 active torsions:
REMARK  status: ('A' for Active; 'I' for Inactive)
REMARK    1  A    between atoms: C_2  and  C_15
REMARK    2  A    between atoms: C_6  and  C_7
REMARK    3  A    between atoms: C_18  and  N_19
REMARK                            x       y       z     vdW  Elec       q    Type
REMARK                         _______ _______ _______ _____ _____    ______ ____
ROOT
ATOM      1  O   UNL     1       2.201   8.615  18.871  0.00  0.00    +0.000 OA
ATOM      2  C   UNL     1       1.699   8.270  19.933  0.00  0.00    +0.000 C 
ATOM      3  N   UNL     1       1.816   7.055  20.568  0.00  0.00    +0.000 N 
ATOM      4  C   UNL     1       2.586   6.051  20.053  0.00  0.00    +0.000 A 
ATOM      5  N   UNL     1       3.462   6.106  19.089  0.00  0.00    +0.000 NA
ATOM      6  C   UNL     1       3.955   4.835  18.837  0.00  0.00    +0.000 A 
ATOM      7  C   UNL     1       3.429   3.840  19.642  0.00  0.00    +0.000 A 
ATOM      8  S   UNL     1       2.338   4.527  20.777  0.00  0.00    +0.000 S 
ATOM      9  H   UNL     1       1.221   6.803  21.342  0.00  0.00    +0.000 HD
ENDROOT
BRANCH   6  10
ATOM     10  C   UNL     1       4.943   4.601  17.789  0.00  0.00    +0.000 A 
ATOM     11  C   UNL     1       6.297   4.785  18.060  0.00  0.00    +0.000 A 
ATOM     12  C   UNL     1       7.222   4.560  17.045  0.00  0.00    +0.000 A 
ATOM     13  C   UNL     1       6.769   4.163  15.793  0.00  0.00    +0.000 A 
ATOM     14  C   UNL     1       5.404   4.002  15.609  0.00  0.00    +0.000 A 
ATOM     15  N   UNL     1       4.480   4.207  16.575  0.00  0.00    +0.000 NA
ENDBRANCH   6  10
BRANCH   2  16
ATOM     16  C   UNL     1       0.786   9.226  20.617  0.00  0.00    +0.000 A 
ATOM     17  C   UNL     1       0.418   8.968  21.945  0.00  0.00    +0.000 A 
ATOM     18  C   UNL     1      -0.411   9.861  22.630  0.00  0.00    +0.000 A 
ATOM     19  C   UNL     1      -0.878  11.008  21.972  0.00  0.00    +0.000 A 
ATOM     20  C   UNL     1      -0.535  11.257  20.636  0.00  0.00    +0.000 A 
ATOM     21  C   UNL     1       0.294  10.360  19.957  0.00  0.00    +0.000 A 
BRANCH  19  22
ATOM     22  N   UNL     1      -1.733  11.964  22.687  0.00  0.00    +0.000 N 
ATOM     23  O   UNL     1      -1.591  13.169  22.431  0.00  0.00    +0.000 OA
ATOM     24  O   UNL     1      -2.553  11.509  23.497  0.00  0.00    +0.000 OA
ENDBRANCH  19  22
ENDBRANCH   2  16
TORSDOF 3
ENDMDL
MODEL 8
REMARK VINA RESULT:      -7.4      2.049      2.728
REMARK  Name = 
REMARK  3 active torsions:
REMARK  status: ('A' for Active; 'I' for Inactive)
REMARK    1  A    between atoms: C_2  and  C_15
REMARK    2  A    between atoms: C_6  and  C_7
REMARK    3  A    between atoms: C_18  and  N_19
REMARK                            x       y       z     vdW  Elec       q    Type
REMARK                         _______ _______ _______ _____ _____    ______ ____
ROOT
ATOM      1  O   UNL     1       2.986   8.129  17.107  0.00  0.00    +0.000 OA
ATOM      2  C   UNL     1       2.732   7.624  18.193  0.00  0.00    +0.000 C 
ATOM      3  N   UNL     1       3.060   6.364  18.635  0.00  0.00    +0.000 N 
ATOM      4  C   UNL     1       3.782   5.500  17.862  0.00  0.00    +0.000 A 
ATOM      5  N   UNL     1       4.442   5.744  16.765  0.00  0.00    +0.000 NA
ATOM      6  C   UNL     1       4.965   4.560  16.265  0.00  0.00    +0.000 A 
ATOM      7  C   UNL     1       4.684   3.438  17.025  0.00  0.00    +0.000 A 
ATOM      8  S   UNL     1       3.794   3.890  18.423  0.00  0.00    +0.000 S 
ATOM      9  H   UNL     1       2.651   5.974  19.470  0.00  0.00    +0.000 HD
ENDROOT
BRANCH   6  10
ATOM     10  C   UNL     1       5.738   4.538  15.029  0.00  0.00    +0.000 A 
ATOM     11  C   UNL     1       5.330   3.729  13.971  0.00  0.00    +0.000 A 
ATOM     12  C   UNL     1       6.084   3.719  12.802  0.00  0.00    +0.000 A 
ATOM     13  C   UNL     1       7.222   4.513  12.725  0.00  0.00    +0.000 A 
ATOM     14  C   UNL     1       7.557   5.289  13.824  0.00  0.00    +0.000 A 
ATOM     15  N   UNL     1       6.843   5.325  14.972  0.00  0.00    +0.000 NA
ENDBRANCH   6  10
BRANCH   2  16
ATOM     16  C   UNL     1       1.906   8.409  19.152  0.00  0.00    +0.000 A 
ATOM     17  C   UNL     1       1.718   7.901  20.445  0.00  0.00    +0.000 A 
ATOM     18  C   UNL     1       0.978   8.626  21.383  0.00  0.00    +0.000 A 
ATOM     19  C   UNL     1       0.417   9.857  21.013  0.00  0.00    +0.000 A 
ATOM     20  C   UNL     1       0.580  10.356  19.713  0.00  0.00    +0.000 A 
ATOM     21  C   UNL     1       1.321   9.626  18.781  0.00  0.00    +0.000 A 
BRANCH  19  22
ATOM     22  N   UNL     1      -0.346  10.637  21.996  0.00  0.00    +0.000 N 
ATOM     23  O   UNL     1      -1.147  11.481  21.566  0.00  0.00    +0.000 OA
ATOM     24  O   UNL     1      -0.152  10.400  23.196  0.00  0.00    +0.000 OA
ENDBRANCH  19  22
ENDBRANCH   2  16
TORSDOF 3
ENDMDL
MODEL 9
REMARK VINA RESULT:      -7.2      2.397      3.364
REMARK  Name = 
REMARK  3 active torsions:
REMARK  status: ('A' for Active; 'I' for Inactive)
REMARK    1  A    between atoms: C_2  and  C_15
REMARK    2  A    between atoms: C_6  and  C_7
REMARK    3  A    between atoms: C_18  and  N_19
REMARK                            x       y       z     vdW  Elec       q    Type
REMARK                         _______ _______ _______ _____ _____    ______ ____
ROOT
ATOM      1  O   UNL     1       3.142   7.962  16.683  0.00  0.00    +0.000 OA
ATOM      2  C   UNL     1       3.047   7.527  17.824  0.00  0.00    +0.000 C 
ATOM      3  N   UNL     1       3.564   6.355  18.326  0.00  0.00    +0.000 N 
ATOM      4  C   UNL     1       4.316   5.516  17.554  0.00  0.00    +0.000 A 
ATOM      5  N   UNL     1       4.843   5.737  16.383  0.00  0.00    +0.000 NA
ATOM      6  C   UNL     1       5.461   4.583  15.926  0.00  0.00    +0.000 A 
ATOM      7  C   UNL     1       5.386   3.506  16.791  0.00  0.00    +0.000 A 
ATOM      8  S   UNL     1       4.573   3.972  18.231  0.00  0.00    +0.000 S 
ATOM      9  H   UNL     1       3.281   5.995  19.224  0.00  0.00    +0.000 HD
ENDROOT
BRANCH   6  10
ATOM     10  C   UNL     1       6.120   4.542  14.625  0.00  0.00    +0.000 A 
ATOM     11  C   UNL     1       5.608   3.732  13.614  0.00  0.00    +0.000 A 
ATOM     12  C   UNL     1       6.254   3.705  12.383  0.00  0.00    +0.000 A 
ATOM     13  C   UNL     1       7.391   4.482  12.198  0.00  0.00    +0.000 A 
ATOM     14  C   UNL     1       7.833   5.261  13.257  0.00  0.00    +0.000 A 
ATOM     15  N   UNL     1       7.224   5.315  14.464  0.00  0.00    +0.000 NA
ENDBRANCH   6  10
BRANCH   2  16
ATOM     16  C   UNL     1       2.220   8.291  18.797  0.00  0.00    +0.000 A 
ATOM     17  C   UNL     1       1.710   9.538  18.408  0.00  0.00    +0.000 A 
ATOM     18  C   UNL     1       0.901  10.269  19.284  0.00  0.00    +0.000 A 
ATOM     19  C   UNL     1       0.616   9.748  20.554  0.00  0.00    +0.000 A 
ATOM     20  C   UNL     1       1.146   8.514  20.956  0.00  0.00    +0.000 A 
ATOM     21  C   UNL     1       1.953   7.789  20.077  0.00  0.00    +0.000 A 
BRANCH  19  22
ATOM     22  N   UNL     1      -0.249  10.497  21.474  0.00  0.00    +0.000 N 
ATOM     23  O   UNL     1       0.025  10.458  22.683  0.00  0.00    +0.000 OA
ATOM     24  O   UNL     1      -1.194  11.132  20.987  0.00  0.00    +0.000 OA
ENDBRANCH  19  22
ENDBRANCH   2  16
TORSDOF 3
ENDMDL
