MODEL 1
REMARK VINA RESULT:      -8.6      0.000      0.000
REMARK  Name = 
REMARK  11 active torsions:
REMARK  status: ('A' for Active; 'I' for Inactive)
REMARK    1  A    between atoms: C_1  and  C_2
REMARK    2  A    between atoms: C_8  and  C_9
REMARK    3  A    between atoms: C_9  and  O_10
REMARK    4  A    between atoms: O_10  and  C_11
REMARK    5  A    between atoms: C_14  and  S_15
REMARK    6  A    between atoms: S_15  and  N_18
REMARK    7  A    between atoms: C_20  and  O_21
REMARK    8  A    between atoms: C_23  and  C_24
REMARK    9  A    between atoms: C_23  and  C_25
REMARK   10  A    between atoms: C_26  and  C_27
REMARK   11  A    between atoms: N_29  and  O_30
REMARK                            x       y       z     vdW  Elec       q    Type
REMARK                         _______ _______ _______ _____ _____    ______ ____
ROOT
ATOM      1  S   UNL     1       0.953   8.831  20.986  0.00  0.00    +0.000 S 
ATOM      2  O   UNL     1      -0.451   8.510  21.126  0.00  0.00    +0.000 OA
ATOM      3  O   UNL     1       1.763   9.180  22.133  0.00  0.00    +0.000 OA
ENDROOT
BRANCH   1   4
ATOM      4  N   UNL     1       1.062  10.156  19.887  0.00  0.00    +0.000 NA
ATOM      5  C   UNL     1       0.137  10.095  18.727  0.00  0.00    +0.000 C 
ATOM      6  C   UNL     1      -1.304  10.475  19.092  0.00  0.00    +0.000 C 
ATOM      7  C   UNL     1      -1.465  11.716  19.987  0.00  0.00    +0.000 C 
ATOM      8  C   UNL     1      -0.367  12.011  21.049  0.00  0.00    +0.000 C 
ATOM      9  C   UNL     1      -0.665  11.429  22.454  0.00  0.00    +0.000 C 
ATOM     10  C   UNL     1      -0.445  13.547  21.353  0.00  0.00    +0.000 C 
ATOM     11  C   UNL     1       1.043  11.570  20.521  0.00  0.00    +0.000 C 
BRANCH  11  12
ATOM     12  C   UNL     1       1.544  12.573  19.441  0.00  0.00    +0.000 C 
ATOM     13  O   UNL     1       1.502  13.802  19.563  0.00  0.00    +0.000 OA
ATOM     14  N   UNL     1       2.024  12.018  18.279  0.00  0.00    +0.000 N 
ATOM     15  H   UNL     1       1.633  11.151  17.925  0.00  0.00    +0.000 HD
BRANCH  14  16
ATOM     16  O   UNL     1       2.398  12.974  17.295  0.00  0.00    +0.000 OA
ATOM     17  H   UNL     1       1.630  12.960  16.679  0.00  0.00    +0.000 HD
ENDBRANCH  14  16
ENDBRANCH  11  12
BRANCH   6  18
ATOM     18  O   UNL     1      -2.036  10.698  17.875  0.00  0.00    +0.000 OA
ATOM     19  H   UNL     1      -2.443   9.856  17.609  0.00  0.00    +0.000 HD
ENDBRANCH   6  18
ENDBRANCH   1   4
BRANCH   1  23
ATOM     20  C   UNL     1       2.490   5.028  18.897  0.00  0.00    +0.000 A 
ATOM     21  C   UNL     1       1.904   4.946  20.170  0.00  0.00    +0.000 A 
ATOM     22  C   UNL     1       1.490   6.101  20.863  0.00  0.00    +0.000 A 
ATOM     23  C   UNL     1       1.679   7.354  20.284  0.00  0.00    +0.000 A 
ATOM     24  C   UNL     1       2.287   7.445  19.019  0.00  0.00    +0.000 A 
ATOM     25  C   UNL     1       2.698   6.289  18.338  0.00  0.00    +0.000 A 
BRANCH  20  26
ATOM     26  O   UNL     1       2.914   3.960  18.143  0.00  0.00    +0.000 OA
BRANCH  26  27
ATOM     27  C   UNL     1       4.246   3.501  18.400  0.00  0.00    +0.000 C 
BRANCH  27  35
ATOM     28  C   UNL     1       6.394   5.458  19.239  0.00  0.00    +0.000 C 
ATOM     29  C   UNL     1       6.265   4.986  17.818  0.00  0.00    +0.000 A 
ATOM     30  C   UNL     1       7.202   5.450  16.872  0.00  0.00    +0.000 A 
ATOM     31  C   UNL     1       7.159   5.003  15.554  0.00  0.00    +0.000 A 
ATOM     32  C   UNL     1       6.179   4.101  15.169  0.00  0.00    +0.000 A 
ATOM     33  F   UNL     1       6.160   3.652  13.907  0.00  0.00    +0.000 F 
ATOM     34  C   UNL     1       5.224   3.650  16.080  0.00  0.00    +0.000 A 
ATOM     35  C   UNL     1       5.253   4.084  17.417  0.00  0.00    +0.000 A 
ENDBRANCH  27  35
ENDBRANCH  26  27
ENDBRANCH  20  26
ENDBRANCH   1  23
TORSDOF 8
ENDMDL
MODEL 2
REMARK VINA RESULT:      -8.5      4.164      9.742
REMARK  Name = 
REMARK  11 active torsions:
REMARK  status: ('A' for Active; 'I' for Inactive)
REMARK    1  A    between atoms: C_1  and  C_2
REMARK    2  A    between atoms: C_8  and  C_9
REMARK    3  A    between atoms: C_9  and  O_10
REMARK    4  A    between atoms: O_10  and  C_11
REMARK    5  A    between atoms: C_14  and  S_15
REMARK    6  A    between atoms: S_15  and  N_18
REMARK    7  A    between atoms: C_20  and  O_21
REMARK    8  A    between atoms: C_23  and  C_24
REMARK    9  A    between atoms: C_23  and  C_25
REMARK   10  A    between atoms: C_26  and  C_27
REMARK   11  A    between atoms: N_29  and  O_30
REMARK                            x       y       z     vdW  Elec       q    Type
REMARK                         _______ _______ _______ _____ _____    ______ ____
ROOT
ATOM      1  S   UNL     1       2.900   6.853  18.111  0.00  0.00    +0.000 S 
ATOM      2  O   UNL     1       1.834   6.014  17.607  0.00  0.00    +0.000 OA
ATOM      3  O   UNL     1       3.677   7.694  17.226  0.00  0.00    +0.000 OA
ENDROOT
BRANCH   1   4
ATOM      4  N   UNL     1       4.021   5.820  18.917  0.00  0.00    +0.000 NA
ATOM      5  C   UNL     1       3.529   4.447  19.198  0.00  0.00    +0.000 C 
ATOM      6  C   UNL     1       3.539   3.544  17.958  0.00  0.00    +0.000 C 
ATOM      7  C   UNL     1       4.805   3.615  17.086  0.00  0.00    +0.000 C 
ATOM      8  C   UNL     1       5.553   4.974  16.975  0.00  0.00    +0.000 C 
ATOM      9  C   UNL     1       5.129   5.839  15.760  0.00  0.00    +0.000 C 
ATOM     10  C   UNL     1       7.032   4.637  16.583  0.00  0.00    +0.000 C 
ATOM     11  C   UNL     1       5.452   5.771  18.322  0.00  0.00    +0.000 C 
BRANCH  11  12
ATOM     12  C   UNL     1       6.380   5.126  19.392  0.00  0.00    +0.000 C 
ATOM     13  O   UNL     1       6.103   4.101  20.023  0.00  0.00    +0.000 OA
ATOM     14  N   UNL     1       7.558   5.788  19.647  0.00  0.00    +0.000 N 
ATOM     15  H   UNL     1       7.602   6.800  19.579  0.00  0.00    +0.000 HD
BRANCH  14  16
ATOM     16  O   UNL     1       8.335   5.203  20.683  0.00  0.00    +0.000 OA
ATOM     17  H   UNL     1       7.726   5.239  21.456  0.00  0.00    +0.000 HD
ENDBRANCH  14  16
ENDBRANCH  11  12
BRANCH   6  18
ATOM     18  O   UNL     1       3.362   2.184  18.386  0.00  0.00    +0.000 OA
ATOM     19  H   UNL     1       3.957   2.025  19.140  0.00  0.00    +0.000 HD
ENDBRANCH   6  18
ENDBRANCH   1   4
BRANCH   1  23
ATOM     20  C   UNL     1       0.463   9.425  21.051  0.00  0.00    +0.000 A 
ATOM     21  C   UNL     1       0.746   9.903  19.762  0.00  0.00    +0.000 A 
ATOM     22  C   UNL     1       1.550   9.169  18.866  0.00  0.00    +0.000 A 
ATOM     23  C   UNL     1       2.090   7.950  19.269  0.00  0.00    +0.000 A 
ATOM     24  C   UNL     1       1.831   7.476  20.568  0.00  0.00    +0.000 A 
ATOM     25  C   UNL     1       1.031   8.215  21.453  0.00  0.00    +0.000 A 
BRANCH  20  26
ATOM     26  O   UNL     1      -0.315  10.063  21.986  0.00  0.00    +0.000 OA
BRANCH  26  27
ATOM     27  C   UNL     1      -0.367  11.491  21.890  0.00  0.00    +0.000 C 
BRANCH  27  35
ATOM     28  C   UNL     1      -2.033  12.556  19.602  0.00  0.00    +0.000 C 
ATOM     29  C   UNL     1      -2.560  12.508  21.009  0.00  0.00    +0.000 A 
ATOM     30  C   UNL     1      -3.882  12.940  21.243  0.00  0.00    +0.000 A 
ATOM     31  C   UNL     1      -4.435  12.869  22.519  0.00  0.00    +0.000 A 
ATOM     32  C   UNL     1      -3.675  12.375  23.567  0.00  0.00    +0.000 A 
ATOM     33  F   UNL     1      -4.221  12.280  24.787  0.00  0.00    +0.000 F 
ATOM     34  C   UNL     1      -2.356  11.967  23.366  0.00  0.00    +0.000 A 
ATOM     35  C   UNL     1      -1.780  12.027  22.085  0.00  0.00    +0.000 A 
ENDBRANCH  27  35
ENDBRANCH  26  27
ENDBRANCH  20  26
ENDBRANCH   1  23
TORSDOF 8
ENDMDL
MODEL 3
REMARK VINA RESULT:      -8.4      1.486      1.958
REMARK  Name = 
REMARK  11 active torsions:
REMARK  status: ('A' for Active; 'I' for Inactive)
REMARK    1  A    between atoms: C_1  and  C_2
REMARK    2  A    between atoms: C_8  and  C_9
REMARK    3  A    between atoms: C_9  and  O_10
REMARK    4  A    between atoms: O_10  and  C_11
REMARK    5  A    between atoms: C_14  and  S_15
REMARK    6  A    between atoms: S_15  and  N_18
REMARK    7  A    between atoms: C_20  and  O_21
REMARK    8  A    between atoms: C_23  and  C_24
REMARK    9  A    between atoms: C_23  and  C_25
REMARK   10  A    between atoms: C_26  and  C_27
REMARK   11  A    between atoms: N_29  and  O_30
REMARK                            x       y       z     vdW  Elec       q    Type
REMARK                         _______ _______ _______ _____ _____    ______ ____
ROOT
ATOM      1  S   UNL     1       0.978   8.943  21.071  0.00  0.00    +0.000 S 
ATOM      2  O   UNL     1      -0.423   8.603  21.196  0.00  0.00    +0.000 OA
ATOM      3  O   UNL     1       1.806   9.165  22.237  0.00  0.00    +0.000 OA
ENDROOT
BRANCH   1   4
ATOM      4  N   UNL     1       1.068  10.382  20.124  0.00  0.00    +0.000 NA
ATOM      5  C   UNL     1       0.179  10.415  18.935  0.00  0.00    +0.000 C 
ATOM      6  C   UNL     1      -1.284  10.702  19.292  0.00  0.00    +0.000 C 
ATOM      7  C   UNL     1      -1.518  11.833  20.309  0.00  0.00    +0.000 C 
ATOM      8  C   UNL     1      -0.463  12.050  21.431  0.00  0.00    +0.000 C 
ATOM      9  C   UNL     1      -0.778  11.310  22.756  0.00  0.00    +0.000 C 
ATOM     10  C   UNL     1      -0.607  13.540  21.895  0.00  0.00    +0.000 C 
ATOM     11  C   UNL     1       0.978  11.718  20.905  0.00  0.00    +0.000 C 
BRANCH  11  12
ATOM     12  C   UNL     1       1.471  12.848  19.955  0.00  0.00    +0.000 C 
ATOM     13  O   UNL     1       0.977  13.087  18.848  0.00  0.00    +0.000 OA
ATOM     14  N   UNL     1       2.546  13.582  20.397  0.00  0.00    +0.000 N 
ATOM     15  H   UNL     1       3.261  13.147  20.972  0.00  0.00    +0.000 HD
BRANCH  14  16
ATOM     16  O   UNL     1       3.006  14.550  19.464  0.00  0.00    +0.000 OA
ATOM     17  H   UNL     1       3.964  14.619  19.680  0.00  0.00    +0.000 HD
ENDBRANCH  14  16
ENDBRANCH  11  12
BRANCH   6  18
ATOM     18  O   UNL     1      -1.990  11.031  18.083  0.00  0.00    +0.000 OA
ATOM     19  H   UNL     1      -1.446  11.660  17.578  0.00  0.00    +0.000 HD
ENDBRANCH   6  18
ENDBRANCH   1   4
BRANCH   1  23
ATOM     20  C   UNL     1       2.471   5.380  18.568  0.00  0.00    +0.000 A 
ATOM     21  C   UNL     1       1.984   5.173  19.868  0.00  0.00    +0.000 A 
ATOM     22  C   UNL     1       1.587   6.253  20.683  0.00  0.00    +0.000 A 
ATOM     23  C   UNL     1       1.694   7.555  20.199  0.00  0.00    +0.000 A 
ATOM     24  C   UNL     1       2.206   7.770  18.906  0.00  0.00    +0.000 A 
ATOM     25  C   UNL     1       2.599   6.689  18.103  0.00  0.00    +0.000 A 
BRANCH  20  26
ATOM     26  O   UNL     1       2.871   4.393  17.699  0.00  0.00    +0.000 OA
BRANCH  26  27
ATOM     27  C   UNL     1       4.013   3.627  18.102  0.00  0.00    +0.000 C 
BRANCH  27  35
ATOM     28  C   UNL     1       5.128   4.549  15.447  0.00  0.00    +0.000 C 
ATOM     29  C   UNL     1       5.813   4.868  16.747  0.00  0.00    +0.000 A 
ATOM     30  C   UNL     1       6.985   5.651  16.710  0.00  0.00    +0.000 A 
ATOM     31  C   UNL     1       7.630   6.017  17.889  0.00  0.00    +0.000 A 
ATOM     32  C   UNL     1       7.116   5.601  19.107  0.00  0.00    +0.000 A 
ATOM     33  F   UNL     1       7.723   5.981  20.239  0.00  0.00    +0.000 F 
ATOM     34  C   UNL     1       5.974   4.802  19.168  0.00  0.00    +0.000 A 
ATOM     35  C   UNL     1       5.306   4.425  17.990  0.00  0.00    +0.000 A 
ENDBRANCH  27  35
ENDBRANCH  26  27
ENDBRANCH  20  26
ENDBRANCH   1  23
TORSDOF 8
ENDMDL
MODEL 4
REMARK VINA RESULT:      -8.4      1.067      1.151
REMARK  Name = 
REMARK  11 active torsions:
REMARK  status: ('A' for Active; 'I' for Inactive)
REMARK    1  A    between atoms: C_1  and  C_2
REMARK    2  A    between atoms: C_8  and  C_9
REMARK    3  A    between atoms: C_9  and  O_10
REMARK    4  A    between atoms: O_10  and  C_11
REMARK    5  A    between atoms: C_14  and  S_15
REMARK    6  A    between atoms: S_15  and  N_18
REMARK    7  A    between atoms: C_20  and  O_21
REMARK    8  A    between atoms: C_23  and  C_24
REMARK    9  A    between atoms: C_23  and  C_25
REMARK   10  A    between atoms: C_26  and  C_27
REMARK   11  A    between atoms: N_29  and  O_30
REMARK                            x       y       z     vdW  Elec       q    Type
REMARK                         _______ _______ _______ _____ _____    ______ ____
ROOT
ATOM      1  S   UNL     1       0.694   9.999  20.706  0.00  0.00    +0.000 S 
ATOM      2  O   UNL     1      -0.716   9.671  20.719  0.00  0.00    +0.000 OA
ATOM      3  O   UNL     1       1.390  10.370  21.920  0.00  0.00    +0.000 OA
ENDROOT
BRANCH   1   4
ATOM      4  N   UNL     1       0.900  11.307  19.602  0.00  0.00    +0.000 NA
ATOM      5  C   UNL     1      -0.079  11.355  18.486  0.00  0.00    +0.000 C 
ATOM      6  C   UNL     1      -1.450  11.892  18.917  0.00  0.00    +0.000 C 
ATOM      7  C   UNL     1      -1.428  13.141  19.817  0.00  0.00    +0.000 C 
ATOM      8  C   UNL     1      -0.256  13.307  20.826  0.00  0.00    +0.000 C 
ATOM      9  C   UNL     1      -0.552  12.757  22.244  0.00  0.00    +0.000 C 
ATOM     10  C   UNL     1      -0.146  14.840  21.131  0.00  0.00    +0.000 C 
ATOM     11  C   UNL     1       1.070  12.712  20.234  0.00  0.00    +0.000 C 
BRANCH  11  12
ATOM     12  C   UNL     1       1.629  13.656  19.130  0.00  0.00    +0.000 C 
ATOM     13  O   UNL     1       0.963  14.525  18.558  0.00  0.00    +0.000 OA
ATOM     14  N   UNL     1       2.942  13.456  18.773  0.00  0.00    +0.000 N 
ATOM     15  H   UNL     1       3.344  12.524  18.800  0.00  0.00    +0.000 HD
BRANCH  14  16
ATOM     16  O   UNL     1       3.384  14.290  17.711  0.00  0.00    +0.000 OA
ATOM     17  H   UNL     1       2.847  15.105  17.839  0.00  0.00    +0.000 HD
ENDBRANCH  14  16
ENDBRANCH  11  12
BRANCH   6  18
ATOM     18  O   UNL     1      -2.207  12.202  17.736  0.00  0.00    +0.000 OA
ATOM     19  H   UNL     1      -3.078  11.774  17.815  0.00  0.00    +0.000 HD
ENDBRANCH   6  18
ENDBRANCH   1   4
BRANCH   1  23
ATOM     20  C   UNL     1       2.382   6.111  18.910  0.00  0.00    +0.000 A 
ATOM     21  C   UNL     1       1.957   6.144  20.248  0.00  0.00    +0.000 A 
ATOM     22  C   UNL     1       1.503   7.338  20.844  0.00  0.00    +0.000 A 
ATOM     23  C   UNL     1       1.489   8.516  20.101  0.00  0.00    +0.000 A 
ATOM     24  C   UNL     1       1.936   8.494  18.767  0.00  0.00    +0.000 A 
ATOM     25  C   UNL     1       2.388   7.301  18.183  0.00  0.00    +0.000 A 
BRANCH  20  26
ATOM     26  O   UNL     1       2.829   4.997  18.242  0.00  0.00    +0.000 OA
BRANCH  26  27
ATOM     27  C   UNL     1       4.107   4.492  18.650  0.00  0.00    +0.000 C 
BRANCH  27  35
ATOM     28  C   UNL     1       6.912   5.486  19.186  0.00  0.00    +0.000 C 
ATOM     29  C   UNL     1       6.467   5.076  17.810  0.00  0.00    +0.000 A 
ATOM     30  C   UNL     1       7.409   5.126  16.761  0.00  0.00    +0.000 A 
ATOM     31  C   UNL     1       7.062   4.709  15.478  0.00  0.00    +0.000 A 
ATOM     32  C   UNL     1       5.779   4.247  15.232  0.00  0.00    +0.000 A 
ATOM     33  F   UNL     1       5.460   3.818  14.004  0.00  0.00    +0.000 F 
ATOM     34  C   UNL     1       4.823   4.213  16.247  0.00  0.00    +0.000 A 
ATOM     35  C   UNL     1       5.153   4.626  17.550  0.00  0.00    +0.000 A 
ENDBRANCH  27  35
ENDBRANCH  26  27
ENDBRANCH  20  26
ENDBRANCH   1  23
TORSDOF 8
ENDMDL
MODEL 5
REMARK VINA RESULT:      -8.3      4.081      9.718
REMARK  Name = 
REMARK  11 active torsions:
REMARK  status: ('A' for Active; 'I' for Inactive)
REMARK    1  A    between atoms: C_1  and  C_2
REMARK    2  A    between atoms: C_8  and  C_9
REMARK    3  A    between atoms: C_9  and  O_10
REMARK    4  A    between atoms: O_10  and  C_11
REMARK    5  A    between atoms: C_14  and  S_15
REMARK    6  A    between atoms: S_15  and  N_18
REMARK    7  A    between atoms: C_20  and  O_21
REMARK    8  A    between atoms: C_23  and  C_24
REMARK    9  A    between atoms: C_23  and  C_25
REMARK   10  A    between atoms: C_26  and  C_27
REMARK   11  A    between atoms: N_29  and  O_30
REMARK                            x       y       z     vdW  Elec       q    Type
REMARK                         _______ _______ _______ _____ _____    ______ ____
ROOT
ATOM      1  S   UNL     1       2.871   6.983  18.131  0.00  0.00    +0.000 S 
ATOM      2  O   UNL     1       1.874   6.172  17.466  0.00  0.00    +0.000 OA
ATOM      3  O   UNL     1       3.666   7.947  17.400  0.00  0.00    +0.000 OA
ENDROOT
BRANCH   1   4
ATOM      4  N   UNL     1       3.982   5.902  18.886  0.00  0.00    +0.000 NA
ATOM      5  C   UNL     1       3.470   4.528  19.121  0.00  0.00    +0.000 C 
ATOM      6  C   UNL     1       3.451   3.672  17.849  0.00  0.00    +0.000 C 
ATOM      7  C   UNL     1       4.709   3.754  16.966  0.00  0.00    +0.000 C 
ATOM      8  C   UNL     1       5.479   5.103  16.897  0.00  0.00    +0.000 C 
ATOM      9  C   UNL     1       5.058   6.019  15.720  0.00  0.00    +0.000 C 
ATOM     10  C   UNL     1       6.949   4.756  16.477  0.00  0.00    +0.000 C 
ATOM     11  C   UNL     1       5.406   5.851  18.274  0.00  0.00    +0.000 C 
BRANCH  11  12
ATOM     12  C   UNL     1       6.334   5.152  19.310  0.00  0.00    +0.000 C 
ATOM     13  O   UNL     1       6.094   4.056  19.826  0.00  0.00    +0.000 OA
ATOM     14  N   UNL     1       7.465   5.845  19.672  0.00  0.00    +0.000 N 
ATOM     15  H   UNL     1       7.455   6.859  19.705  0.00  0.00    +0.000 HD
BRANCH  14  16
ATOM     16  O   UNL     1       8.240   5.200  20.674  0.00  0.00    +0.000 OA
ATOM     17  H   UNL     1       8.601   4.418  20.197  0.00  0.00    +0.000 HD
ENDBRANCH  14  16
ENDBRANCH  11  12
BRANCH   6  18
ATOM     18  O   UNL     1       3.255   2.300  18.229  0.00  0.00    +0.000 OA
ATOM     19  H   UNL     1       4.128   1.911  18.416  0.00  0.00    +0.000 HD
ENDBRANCH   6  18
ENDBRANCH   1   4
BRANCH   1  23
ATOM     20  C   UNL     1       0.842   9.628  21.306  0.00  0.00    +0.000 A 
ATOM     21  C   UNL     1       1.284   8.338  21.640  0.00  0.00    +0.000 A 
ATOM     22  C   UNL     1       1.844   7.480  20.671  0.00  0.00    +0.000 A 
ATOM     23  C   UNL     1       1.947   7.910  19.350  0.00  0.00    +0.000 A 
ATOM     24  C   UNL     1       1.484   9.193  19.004  0.00  0.00    +0.000 A 
ATOM     25  C   UNL     1       0.927  10.038  19.975  0.00  0.00    +0.000 A 
BRANCH  20  26
ATOM     26  O   UNL     1       0.295  10.536  22.180  0.00  0.00    +0.000 OA
BRANCH  26  27
ATOM     27  C   UNL     1      -0.136  11.777  21.608  0.00  0.00    +0.000 C 
BRANCH  27  35
ATOM     28  C   UNL     1       0.247  14.712  22.225  0.00  0.00    +0.000 C 
ATOM     29  C   UNL     1      -0.889  13.922  22.812  0.00  0.00    +0.000 A 
ATOM     30  C   UNL     1      -1.813  14.593  23.640  0.00  0.00    +0.000 A 
ATOM     31  C   UNL     1      -2.911  13.919  24.167  0.00  0.00    +0.000 A 
ATOM     32  C   UNL     1      -3.092  12.575  23.879  0.00  0.00    +0.000 A 
ATOM     33  F   UNL     1      -4.166  11.939  24.364  0.00  0.00    +0.000 F 
ATOM     34  C   UNL     1      -2.177  11.883  23.086  0.00  0.00    +0.000 A 
ATOM     35  C   UNL     1      -1.063  12.546  22.540  0.00  0.00    +0.000 A 
ENDBRANCH  27  35
ENDBRANCH  26  27
ENDBRANCH  20  26
ENDBRANCH   1  23
TORSDOF 8
ENDMDL
MODEL 6
REMARK VINA RESULT:      -8.3      1.663      2.245
REMARK  Name = 
REMARK  11 active torsions:
REMARK  status: ('A' for Active; 'I' for Inactive)
REMARK    1  A    between atoms: C_1  and  C_2
REMARK    2  A    between atoms: C_8  and  C_9
REMARK    3  A    between atoms: C_9  and  O_10
REMARK    4  A    between atoms: O_10  and  C_11
REMARK    5  A    between atoms: C_14  and  S_15
REMARK    6  A    between atoms: S_15  and  N_18
REMARK    7  A    between atoms: C_20  and  O_21
REMARK    8  A    between atoms: C_23  and  C_24
REMARK    9  A    between atoms: C_23  and  C_25
REMARK   10  A    between atoms: C_26  and  C_27
REMARK   11  A    between atoms: N_29  and  O_30
REMARK                            x       y       z     vdW  Elec       q    Type
REMARK                         _______ _______ _______ _____ _____    ______ ____
ROOT
ATOM      1  S   UNL     1       0.846   9.126  21.111  0.00  0.00    +0.000 S 
ATOM      2  O   UNL     1      -0.568   8.846  21.240  0.00  0.00    +0.000 OA
ATOM      3  O   UNL     1       1.678   9.344  22.275  0.00  0.00    +0.000 OA
ENDROOT
BRANCH   1   4
ATOM      4  N   UNL     1       0.997  10.535  20.129  0.00  0.00    +0.000 NA
ATOM      5  C   UNL     1       0.108  10.577  18.940  0.00  0.00    +0.000 C 
ATOM      6  C   UNL     1      -1.342  10.937  19.290  0.00  0.00    +0.000 C 
ATOM      7  C   UNL     1      -1.524  12.102  20.279  0.00  0.00    +0.000 C 
ATOM      8  C   UNL     1      -0.459  12.300  21.395  0.00  0.00    +0.000 C 
ATOM      9  C   UNL     1      -0.803  11.608  22.738  0.00  0.00    +0.000 C 
ATOM     10  C   UNL     1      -0.537  13.807  21.822  0.00  0.00    +0.000 C 
ATOM     11  C   UNL     1       0.965  11.893  20.876  0.00  0.00    +0.000 C 
BRANCH  11  12
ATOM     12  C   UNL     1       1.505  12.977  19.898  0.00  0.00    +0.000 C 
ATOM     13  O   UNL     1       1.002  13.231  18.799  0.00  0.00    +0.000 OA
ATOM     14  N   UNL     1       2.633  13.649  20.305  0.00  0.00    +0.000 N 
ATOM     15  H   UNL     1       3.333  13.179  20.870  0.00  0.00    +0.000 HD
BRANCH  14  16
ATOM     16  O   UNL     1       3.131  14.573  19.347  0.00  0.00    +0.000 OA
ATOM     17  H   UNL     1       3.100  14.054  18.510  0.00  0.00    +0.000 HD
ENDBRANCH  14  16
ENDBRANCH  11  12
BRANCH   6  18
ATOM     18  O   UNL     1      -2.034  11.265  18.074  0.00  0.00    +0.000 OA
ATOM     19  H   UNL     1      -1.391  11.236  17.344  0.00  0.00    +0.000 HD
ENDBRANCH   6  18
ENDBRANCH   1   4
BRANCH   1  23
ATOM     20  C   UNL     1       2.889   5.451  19.237  0.00  0.00    +0.000 A 
ATOM     21  C   UNL     1       2.860   6.672  18.545  0.00  0.00    +0.000 A 
ATOM     22  C   UNL     1       2.180   7.793  19.062  0.00  0.00    +0.000 A 
ATOM     23  C   UNL     1       1.508   7.689  20.278  0.00  0.00    +0.000 A 
ATOM     24  C   UNL     1       1.512   6.461  20.965  0.00  0.00    +0.000 A 
ATOM     25  C   UNL     1       2.191   5.350  20.441  0.00  0.00    +0.000 A 
BRANCH  20  26
ATOM     26  O   UNL     1       3.532   4.311  18.819  0.00  0.00    +0.000 OA
BRANCH  26  27
ATOM     27  C   UNL     1       4.304   4.431  17.618  0.00  0.00    +0.000 C 
BRANCH  27  35
ATOM     28  C   UNL     1       5.247   6.583  15.714  0.00  0.00    +0.000 C 
ATOM     29  C   UNL     1       6.017   6.233  16.957  0.00  0.00    +0.000 A 
ATOM     30  C   UNL     1       7.188   6.964  17.245  0.00  0.00    +0.000 A 
ATOM     31  C   UNL     1       7.910   6.714  18.409  0.00  0.00    +0.000 A 
ATOM     32  C   UNL     1       7.476   5.732  19.286  0.00  0.00    +0.000 A 
ATOM     33  F   UNL     1       8.157   5.516  20.419  0.00  0.00    +0.000 F 
ATOM     34  C   UNL     1       6.336   4.977  19.009  0.00  0.00    +0.000 A 
ATOM     35  C   UNL     1       5.590   5.217  17.842  0.00  0.00    +0.000 A 
ENDBRANCH  27  35
ENDBRANCH  26  27
ENDBRANCH  20  26
ENDBRANCH   1  23
TORSDOF 8
ENDMDL
MODEL 7
REMARK VINA RESULT:      -8.2      4.226      9.698
REMARK  Name = 
REMARK  11 active torsions:
REMARK  status: ('A' for Active; 'I' for Inactive)
REMARK    1  A    between atoms: C_1  and  C_2
REMARK    2  A    between atoms: C_8  and  C_9
REMARK    3  A    between atoms: C_9  and  O_10
REMARK    4  A    between atoms: O_10  and  C_11
REMARK    5  A    between atoms: C_14  and  S_15
REMARK    6  A    between atoms: S_15  and  N_18
REMARK    7  A    between atoms: C_20  and  O_21
REMARK    8  A    between atoms: C_23  and  C_24
REMARK    9  A    between atoms: C_23  and  C_25
REMARK   10  A    between atoms: C_26  and  C_27
REMARK   11  A    between atoms: N_29  and  O_30
REMARK                            x       y       z     vdW  Elec       q    Type
REMARK                         _______ _______ _______ _____ _____    ______ ____
ROOT
ATOM      1  S   UNL     1       3.280   6.885  17.803  0.00  0.00    +0.000 S 
ATOM      2  O   UNL     1       2.491   5.681  17.645  0.00  0.00    +0.000 OA
ATOM      3  O   UNL     1       3.620   7.716  16.668  0.00  0.00    +0.000 OA
ENDROOT
BRANCH   1   4
ATOM      4  N   UNL     1       4.770   6.421  18.536  0.00  0.00    +0.000 NA
ATOM      5  C   UNL     1       4.703   5.216  19.403  0.00  0.00    +0.000 C 
ATOM      6  C   UNL     1       4.651   3.908  18.604  0.00  0.00    +0.000 C 
ATOM      7  C   UNL     1       5.632   3.804  17.422  0.00  0.00    +0.000 C 
ATOM      8  C   UNL     1       5.982   5.098  16.634  0.00  0.00    +0.000 C 
ATOM      9  C   UNL     1       5.098   5.345  15.385  0.00  0.00    +0.000 C 
ATOM     10  C   UNL     1       7.371   4.843  15.955  0.00  0.00    +0.000 C 
ATOM     11  C   UNL     1       5.998   6.340  17.593  0.00  0.00    +0.000 C 
BRANCH  11  12
ATOM     12  C   UNL     1       7.272   6.306  18.486  0.00  0.00    +0.000 C 
ATOM     13  O   UNL     1       8.195   7.123  18.408  0.00  0.00    +0.000 OA
ATOM     14  N   UNL     1       7.353   5.268  19.383  0.00  0.00    +0.000 N 
ATOM     15  H   UNL     1       6.950   4.363  19.157  0.00  0.00    +0.000 HD
BRANCH  14  16
ATOM     16  O   UNL     1       8.567   5.237  20.121  0.00  0.00    +0.000 OA
ATOM     17  H   UNL     1       9.246   5.390  19.425  0.00  0.00    +0.000 HD
ENDBRANCH  14  16
ENDBRANCH  11  12
BRANCH   6  18
ATOM     18  O   UNL     1       4.912   2.817  19.503  0.00  0.00    +0.000 OA
ATOM     19  H   UNL     1       4.734   1.986  19.028  0.00  0.00    +0.000 HD
ENDBRANCH   6  18
ENDBRANCH   1   4
BRANCH   1  23
ATOM     20  C   UNL     1       0.473   9.219  20.607  0.00  0.00    +0.000 A 
ATOM     21  C   UNL     1       0.718   9.686  19.305  0.00  0.00    +0.000 A 
ATOM     22  C   UNL     1       1.628   9.031  18.450  0.00  0.00    +0.000 A 
ATOM     23  C   UNL     1       2.313   7.907  18.906  0.00  0.00    +0.000 A 
ATOM     24  C   UNL     1       2.089   7.449  20.218  0.00  0.00    +0.000 A 
ATOM     25  C   UNL     1       1.183   8.108  21.062  0.00  0.00    +0.000 A 
BRANCH  20  26
ATOM     26  O   UNL     1      -0.401   9.783  21.505  0.00  0.00    +0.000 OA
BRANCH  26  27
ATOM     27  C   UNL     1      -0.220  11.181  21.763  0.00  0.00    +0.000 C 
BRANCH  27  35
ATOM     28  C   UNL     1      -1.645  12.818  19.657  0.00  0.00    +0.000 C 
ATOM     29  C   UNL     1      -2.212  12.639  21.037  0.00  0.00    +0.000 A 
ATOM     30  C   UNL     1      -3.460  13.226  21.328  0.00  0.00    +0.000 A 
ATOM     31  C   UNL     1      -4.053  13.047  22.576  0.00  0.00    +0.000 A 
ATOM     32  C   UNL     1      -3.405  12.292  23.540  0.00  0.00    +0.000 A 
ATOM     33  F   UNL     1      -3.993  12.098  24.728  0.00  0.00    +0.000 F 
ATOM     34  C   UNL     1      -2.156  11.725  23.285  0.00  0.00    +0.000 A 
ATOM     35  C   UNL     1      -1.542  11.889  22.031  0.00  0.00    +0.000 A 
ENDBRANCH  27  35
ENDBRANCH  26  27
ENDBRANCH  20  26
ENDBRANCH   1  23
TORSDOF 8
ENDMDL
MODEL 8
REMARK VINA RESULT:      -8.2      3.644      9.335
REMARK  Name = 
REMARK  11 active torsions:
REMARK  status: ('A' for Active; 'I' for Inactive)
REMARK    1  A    between atoms: C_1  and  C_2
REMARK    2  A    between atoms: C_8  and  C_9
REMARK    3  A    between atoms: C_9  and  O_10
REMARK    4  A    between atoms: O_10  and  C_11
REMARK    5  A    between atoms: C_14  and  S_15
REMARK    6  A    between atoms: S_15  and  N_18
REMARK    7  A    between atoms: C_20  and  O_21
REMARK    8  A    between atoms: C_23  and  C_24
REMARK    9  A    between atoms: C_23  and  C_25
REMARK   10  A    between atoms: C_26  and  C_27
REMARK   11  A    between atoms: N_29  and  O_30
REMARK                            x       y       z     vdW  Elec       q    Type
REMARK                         _______ _______ _______ _____ _____    ______ ____
ROOT
ATOM      1  S   UNL     1       2.994   5.844  18.459  0.00  0.00    +0.000 S 
ATOM      2  O   UNL     1       2.047   5.468  17.431  0.00  0.00    +0.000 OA
ATOM      3  O   UNL     1       4.375   6.135  18.139  0.00  0.00    +0.000 OA
ENDROOT
BRANCH   1   4
ATOM      4  N   UNL     1       3.017   4.567  19.618  0.00  0.00    +0.000 NA
ATOM      5  C   UNL     1       1.684   4.109  20.084  0.00  0.00    +0.000 C 
ATOM      6  C   UNL     1       0.970   3.214  19.064  0.00  0.00    +0.000 C 
ATOM      7  C   UNL     1       1.836   2.126  18.404  0.00  0.00    +0.000 C 
ATOM      8  C   UNL     1       3.338   2.432  18.145  0.00  0.00    +0.000 C 
ATOM      9  C   UNL     1       3.642   2.993  16.732  0.00  0.00    +0.000 C 
ATOM     10  C   UNL     1       4.066   1.046  18.063  0.00  0.00    +0.000 C 
ATOM     11  C   UNL     1       3.917   3.352  19.276  0.00  0.00    +0.000 C 
BRANCH  11  12
ATOM     12  C   UNL     1       4.109   2.530  20.584  0.00  0.00    +0.000 C 
ATOM     13  O   UNL     1       3.312   2.533  21.527  0.00  0.00    +0.000 OA
ATOM     14  N   UNL     1       5.268   1.795  20.670  0.00  0.00    +0.000 N 
ATOM     15  H   UNL     1       6.120   2.129  20.231  0.00  0.00    +0.000 HD
BRANCH  14  16
ATOM     16  O   UNL     1       5.434   1.124  21.911  0.00  0.00    +0.000 OA
ATOM     17  H   UNL     1       4.695   0.473  21.904  0.00  0.00    +0.000 HD
ENDBRANCH  14  16
ENDBRANCH  11  12
BRANCH   6  18
ATOM     18  O   UNL     1      -0.137   2.572  19.720  0.00  0.00    +0.000 OA
ATOM     19  H   UNL     1      -0.185   1.654  19.402  0.00  0.00    +0.000 HD
ENDBRANCH   6  18
ENDBRANCH   1   4
BRANCH   1  23
ATOM     20  C   UNL     1       0.846   9.510  20.231  0.00  0.00    +0.000 A 
ATOM     21  C   UNL     1       1.392   9.568  18.938  0.00  0.00    +0.000 A 
ATOM     22  C   UNL     1       2.117   8.486  18.398  0.00  0.00    +0.000 A 
ATOM     23  C   UNL     1       2.312   7.339  19.164  0.00  0.00    +0.000 A 
ATOM     24  C   UNL     1       1.789   7.284  20.469  0.00  0.00    +0.000 A 
ATOM     25  C   UNL     1       1.070   8.367  20.998  0.00  0.00    +0.000 A 
BRANCH  20  26
ATOM     26  O   UNL     1       0.119  10.506  20.836  0.00  0.00    +0.000 OA
BRANCH  26  27
ATOM     27  C   UNL     1      -0.215  11.629  20.010  0.00  0.00    +0.000 C 
BRANCH  27  35
ATOM     28  C   UNL     1      -2.424  13.356  21.142  0.00  0.00    +0.000 C 
ATOM     29  C   UNL     1      -2.675  12.382  20.026  0.00  0.00    +0.000 A 
ATOM     30  C   UNL     1      -3.973  12.312  19.479  0.00  0.00    +0.000 A 
ATOM     31  C   UNL     1      -4.246  11.463  18.409  0.00  0.00    +0.000 A 
ATOM     32  C   UNL     1      -3.233  10.676  17.885  0.00  0.00    +0.000 A 
ATOM     33  F   UNL     1      -3.494   9.883  16.837  0.00  0.00    +0.000 F 
ATOM     34  C   UNL     1      -1.948  10.706  18.427  0.00  0.00    +0.000 A 
ATOM     35  C   UNL     1      -1.650  11.560  19.503  0.00  0.00    +0.000 A 
ENDBRANCH  27  35
ENDBRANCH  26  27
ENDBRANCH  20  26
ENDBRANCH   1  23
TORSDOF 8
ENDMDL
MODEL 9
REMARK VINA RESULT:      -8.2      1.829      2.324
REMARK  Name = 
REMARK  11 active torsions:
REMARK  status: ('A' for Active; 'I' for Inactive)
REMARK    1  A    between atoms: C_1  and  C_2
REMARK    2  A    between atoms: C_8  and  C_9
REMARK    3  A    between atoms: C_9  and  O_10
REMARK    4  A    between atoms: O_10  and  C_11
REMARK    5  A    between atoms: C_14  and  S_15
REMARK    6  A    between atoms: S_15  and  N_18
REMARK    7  A    between atoms: C_20  and  O_21
REMARK    8  A    between atoms: C_23  and  C_24
REMARK    9  A    between atoms: C_23  and  C_25
REMARK   10  A    between atoms: C_26  and  C_27
REMARK   11  A    between atoms: N_29  and  O_30
REMARK                            x       y       z     vdW  Elec       q    Type
REMARK                         _______ _______ _______ _____ _____    ______ ____
ROOT
ATOM      1  S   UNL     1       0.779   9.963  20.773  0.00  0.00    +0.000 S 
ATOM      2  O   UNL     1      -0.632   9.794  20.503  0.00  0.00    +0.000 OA
ATOM      3  O   UNL     1       1.289   9.978  22.127  0.00  0.00    +0.000 OA
ENDROOT
BRANCH   1   4
ATOM      4  N   UNL     1       1.258  11.455  20.052  0.00  0.00    +0.000 NA
ATOM      5  C   UNL     1       0.651  11.742  18.727  0.00  0.00    +0.000 C 
ATOM      6  C   UNL     1      -0.803  12.220  18.828  0.00  0.00    +0.000 C 
ATOM      7  C   UNL     1      -1.091  13.270  19.916  0.00  0.00    +0.000 C 
ATOM      8  C   UNL     1      -0.276  13.208  21.238  0.00  0.00    +0.000 C 
ATOM      9  C   UNL     1      -0.959  12.402  22.373  0.00  0.00    +0.000 C 
ATOM     10  C   UNL     1      -0.314  14.651  21.851  0.00  0.00    +0.000 C 
ATOM     11  C   UNL     1       1.185  12.707  20.963  0.00  0.00    +0.000 C 
BRANCH  11  12
ATOM     12  C   UNL     1       2.013  13.832  20.278  0.00  0.00    +0.000 C 
ATOM     13  O   UNL     1       1.559  14.611  19.433  0.00  0.00    +0.000 OA
ATOM     14  N   UNL     1       3.338  13.911  20.636  0.00  0.00    +0.000 N 
ATOM     15  H   UNL     1       3.854  13.071  20.878  0.00  0.00    +0.000 HD
BRANCH  14  16
ATOM     16  O   UNL     1       4.069  14.903  19.929  0.00  0.00    +0.000 OA
ATOM     17  H   UNL     1       3.716  15.741  20.307  0.00  0.00    +0.000 HD
ENDBRANCH  14  16
ENDBRANCH  11  12
BRANCH   6  18
ATOM     18  O   UNL     1      -1.188  12.770  17.557  0.00  0.00    +0.000 OA
ATOM     19  H   UNL     1      -2.076  13.157  17.652  0.00  0.00    +0.000 HD
ENDBRANCH   6  18
ENDBRANCH   1   4
BRANCH   1  23
ATOM     20  C   UNL     1       2.405   6.334  18.454  0.00  0.00    +0.000 A 
ATOM     21  C   UNL     1       2.097   6.219  19.819  0.00  0.00    +0.000 A 
ATOM     22  C   UNL     1       1.666   7.331  20.570  0.00  0.00    +0.000 A 
ATOM     23  C   UNL     1       1.557   8.576  19.955  0.00  0.00    +0.000 A 
ATOM     24  C   UNL     1       1.887   8.703  18.593  0.00  0.00    +0.000 A 
ATOM     25  C   UNL     1       2.317   7.591  17.854  0.00  0.00    +0.000 A 
BRANCH  20  26
ATOM     26  O   UNL     1       2.821   5.308  17.640  0.00  0.00    +0.000 OA
BRANCH  26  27
ATOM     27  C   UNL     1       3.596   4.282  18.272  0.00  0.00    +0.000 C 
BRANCH  27  35
ATOM     28  C   UNL     1       5.140   3.944  15.694  0.00  0.00    +0.000 C 
ATOM     29  C   UNL     1       5.805   4.407  16.959  0.00  0.00    +0.000 A 
ATOM     30  C   UNL     1       7.178   4.724  16.915  0.00  0.00    +0.000 A 
ATOM     31  C   UNL     1       7.831   5.207  18.046  0.00  0.00    +0.000 A 
ATOM     32  C   UNL     1       7.123   5.368  19.227  0.00  0.00    +0.000 A 
ATOM     33  F   UNL     1       7.748   5.861  20.305  0.00  0.00    +0.000 F 
ATOM     34  C   UNL     1       5.771   5.035  19.303  0.00  0.00    +0.000 A 
ATOM     35  C   UNL     1       5.092   4.551  18.171  0.00  0.00    +0.000 A 
ENDBRANCH  27  35
ENDBRANCH  26  27
ENDBRANCH  20  26
ENDBRANCH   1  23
TORSDOF 8
ENDMDL
