MODEL 1
REMARK VINA RESULT:      -7.3      0.000      0.000
REMARK  Name = 
REMARK  5 active torsions:
REMARK  status: ('A' for Active; 'I' for Inactive)
REMARK    1  A    between atoms: C_1  and  C_2
REMARK    2  A    between atoms: C_6  and  C_7
REMARK    3  A    between atoms: C_7  and  C_9
REMARK    4  A    between atoms: C_15  and  N_16
REMARK    5  A    between atoms: C_18  and  C_19
REMARK                            x       y       z     vdW  Elec       q    Type
REMARK                         _______ _______ _______ _____ _____    ______ ____
ROOT
ATOM      1  C   UNL     1       1.476   9.150  18.506  0.00  0.00    +0.000 C 
ATOM      2  C   UNL     1       2.384   7.950  18.478  0.00  0.00    +0.000 A 
ATOM      3  N   UNL     1       3.290   7.938  17.481  0.00  0.00    +0.000 NA
ATOM      4  C   UNL     1       4.137   6.889  17.482  0.00  0.00    +0.000 A 
ATOM      5  S   UNL     1       5.316   6.770  16.263  0.00  0.00    +0.000 S 
ATOM      6  C   UNL     1       5.939   5.306  16.895  0.00  0.00    +0.000 A 
ATOM      7  C   UNL     1       5.300   4.976  18.082  0.00  0.00    +0.000 A 
ATOM      8  C   UNL     1       4.174   5.837  18.394  0.00  0.00    +0.000 A 
ATOM      9  C   UNL     1       3.178   5.845  19.423  0.00  0.00    +0.000 A 
ATOM     10  C   UNL     1       3.017   4.772  20.472  0.00  0.00    +0.000 C 
ATOM     11  C   UNL     1       2.274   6.939  19.438  0.00  0.00    +0.000 A 
ATOM     12 CL   UNL     1       1.031   7.029  20.647  0.00  0.00    +0.000 Cl
ENDROOT
BRANCH   7  13
ATOM     13  N   UNL     1       5.685   3.948  18.880  0.00  0.00    +0.000 N 
ATOM     14  H   UNL     1       5.239   3.034  18.844  0.00  0.00    +0.000 HD
ATOM     15  H   UNL     1       5.945   4.145  19.844  0.00  0.00    +0.000 HD
ENDBRANCH   7  13
BRANCH   6  16
ATOM     16  C   UNL     1       6.998   4.632  16.140  0.00  0.00    +0.000 C 
ATOM     17  O   UNL     1       7.985   4.107  16.653  0.00  0.00    +0.000 OA
BRANCH  16  18
ATOM     18  C   UNL     1       6.895   4.538  14.660  0.00  0.00    +0.000 A 
ATOM     19  C   UNL     1       7.694   5.346  13.847  0.00  0.00    +0.000 A 
ATOM     20  C   UNL     1       7.706   5.131  12.470  0.00  0.00    +0.000 A 
ATOM     21  C   UNL     1       6.916   4.116  11.953  0.00  0.00    +0.000 A 
ATOM     22  N   UNL     1       6.087   3.360  12.704  0.00  0.00    +0.000 NA
ATOM     23  C   UNL     1       6.068   3.613  14.035  0.00  0.00    +0.000 A 
ENDBRANCH  16  18
ENDBRANCH   6  16
TORSDOF 3
ENDMDL
MODEL 2
REMARK VINA RESULT:      -7.1      0.625      1.077
REMARK  Name = 
REMARK  5 active torsions:
REMARK  status: ('A' for Active; 'I' for Inactive)
REMARK    1  A    between atoms: C_1  and  C_2
REMARK    2  A    between atoms: C_6  and  C_7
REMARK    3  A    between atoms: C_7  and  C_9
REMARK    4  A    between atoms: C_15  and  N_16
REMARK    5  A    between atoms: C_18  and  C_19
REMARK                            x       y       z     vdW  Elec       q    Type
REMARK                         _______ _______ _______ _____ _____    ______ ____
ROOT
ATOM      1  C   UNL     1       1.471   9.054  18.719  0.00  0.00    +0.000 C 
ATOM      2  C   UNL     1       2.377   7.853  18.675  0.00  0.00    +0.000 A 
ATOM      3  N   UNL     1       3.306   7.869  17.699  0.00  0.00    +0.000 NA
ATOM      4  C   UNL     1       4.149   6.818  17.687  0.00  0.00    +0.000 A 
ATOM      5  S   UNL     1       5.356   6.732  16.493  0.00  0.00    +0.000 S 
ATOM      6  C   UNL     1       5.961   5.248  17.094  0.00  0.00    +0.000 A 
ATOM      7  C   UNL     1       5.295   4.884  18.256  0.00  0.00    +0.000 A 
ATOM      8  C   UNL     1       4.163   5.739  18.567  0.00  0.00    +0.000 A 
ATOM      9  C   UNL     1       3.144   5.719  19.574  0.00  0.00    +0.000 A 
ATOM     10  C   UNL     1       2.958   4.615  20.586  0.00  0.00    +0.000 C 
ATOM     11  C   UNL     1       2.243   6.815  19.601  0.00  0.00    +0.000 A 
ATOM     12 CL   UNL     1       0.973   6.872  20.784  0.00  0.00    +0.000 Cl
ENDROOT
BRANCH   7  13
ATOM     13  N   UNL     1       5.659   3.831  19.031  0.00  0.00    +0.000 N 
ATOM     14  H   UNL     1       5.009   3.372  19.665  0.00  0.00    +0.000 HD
ATOM     15  H   UNL     1       6.584   3.830  19.455  0.00  0.00    +0.000 HD
ENDBRANCH   7  13
BRANCH   6  16
ATOM     16  C   UNL     1       7.036   4.594  16.343  0.00  0.00    +0.000 C 
ATOM     17  O   UNL     1       8.079   4.182  16.848  0.00  0.00    +0.000 OA
BRANCH  16  18
ATOM     18  C   UNL     1       6.880   4.378  14.880  0.00  0.00    +0.000 A 
ATOM     19  C   UNL     1       5.824   3.603  14.392  0.00  0.00    +0.000 A 
ATOM     20  C   UNL     1       5.597   3.546  13.019  0.00  0.00    +0.000 A 
ATOM     21  C   UNL     1       6.435   4.263  12.180  0.00  0.00    +0.000 A 
ATOM     22  N   UNL     1       7.500   4.970  12.615  0.00  0.00    +0.000 NA
ATOM     23  C   UNL     1       7.720   4.980  13.952  0.00  0.00    +0.000 A 
ENDBRANCH  16  18
ENDBRANCH   6  16
TORSDOF 3
ENDMDL
MODEL 3
REMARK VINA RESULT:      -7.0      3.660      5.094
REMARK  Name = 
REMARK  5 active torsions:
REMARK  status: ('A' for Active; 'I' for Inactive)
REMARK    1  A    between atoms: C_1  and  C_2
REMARK    2  A    between atoms: C_6  and  C_7
REMARK    3  A    between atoms: C_7  and  C_9
REMARK    4  A    between atoms: C_15  and  N_16
REMARK    5  A    between atoms: C_18  and  C_19
REMARK                            x       y       z     vdW  Elec       q    Type
REMARK                         _______ _______ _______ _____ _____    ______ ____
ROOT
ATOM      1  C   UNL     1      -0.136  12.928  19.242  0.00  0.00    +0.000 C 
ATOM      2  C   UNL     1       0.254  11.511  19.567  0.00  0.00    +0.000 A 
ATOM      3  N   UNL     1       0.931  10.865  18.598  0.00  0.00    +0.000 NA
ATOM      4  C   UNL     1       1.324   9.612  18.905  0.00  0.00    +0.000 A 
ATOM      5  S   UNL     1       2.180   8.702  17.752  0.00  0.00    +0.000 S 
ATOM      6  C   UNL     1       2.310   7.350  18.795  0.00  0.00    +0.000 A 
ATOM      7  C   UNL     1       1.783   7.646  20.044  0.00  0.00    +0.000 A 
ATOM      8  C   UNL     1       1.111   8.931  20.101  0.00  0.00    +0.000 A 
ATOM      9  C   UNL     1       0.355   9.619  21.105  0.00  0.00    +0.000 A 
ATOM     10  C   UNL     1      -0.027   9.036  22.443  0.00  0.00    +0.000 C 
ATOM     11  C   UNL     1      -0.071  10.938  20.800  0.00  0.00    +0.000 A 
ATOM     12 CL   UNL     1      -0.997  11.846  21.956  0.00  0.00    +0.000 Cl
ENDROOT
BRANCH   7  13
ATOM     13  N   UNL     1       1.880   6.817  21.115  0.00  0.00    +0.000 N 
ATOM     14  H   UNL     1       1.714   7.135  22.067  0.00  0.00    +0.000 HD
ATOM     15  H   UNL     1       2.619   6.118  21.129  0.00  0.00    +0.000 HD
ENDBRANCH   7  13
BRANCH   6  16
ATOM     16  C   UNL     1       2.922   6.132  18.261  0.00  0.00    +0.000 C 
ATOM     17  O   UNL     1       2.290   5.211  17.745  0.00  0.00    +0.000 OA
BRANCH  16  18
ATOM     18  C   UNL     1       4.399   5.973  18.308  0.00  0.00    +0.000 A 
ATOM     19  C   UNL     1       5.202   6.576  17.336  0.00  0.00    +0.000 A 
ATOM     20  C   UNL     1       6.588   6.556  17.485  0.00  0.00    +0.000 A 
ATOM     21  C   UNL     1       7.123   5.931  18.601  0.00  0.00    +0.000 A 
ATOM     22  N   UNL     1       6.377   5.287  19.525  0.00  0.00    +0.000 NA
ATOM     23  C   UNL     1       5.036   5.290  19.336  0.00  0.00    +0.000 A 
ENDBRANCH  16  18
ENDBRANCH   6  16
TORSDOF 3
ENDMDL
MODEL 4
REMARK VINA RESULT:      -7.0      3.080      4.340
REMARK  Name = 
REMARK  5 active torsions:
REMARK  status: ('A' for Active; 'I' for Inactive)
REMARK    1  A    between atoms: C_1  and  C_2
REMARK    2  A    between atoms: C_6  and  C_7
REMARK    3  A    between atoms: C_7  and  C_9
REMARK    4  A    between atoms: C_15  and  N_16
REMARK    5  A    between atoms: C_18  and  C_19
REMARK                            x       y       z     vdW  Elec       q    Type
REMARK                         _______ _______ _______ _____ _____    ______ ____
ROOT
ATOM      1  C   UNL     1       1.045  12.341  18.695  0.00  0.00    +0.000 C 
ATOM      2  C   UNL     1       1.227  10.892  19.058  0.00  0.00    +0.000 A 
ATOM      3  N   UNL     1       1.938  10.163  18.175  0.00  0.00    +0.000 NA
ATOM      4  C   UNL     1       2.144   8.877  18.522  0.00  0.00    +0.000 A 
ATOM      5  S   UNL     1       3.023   7.864  17.477  0.00  0.00    +0.000 S 
ATOM      6  C   UNL     1       2.869   6.516  18.521  0.00  0.00    +0.000 A 
ATOM      7  C   UNL     1       2.231   6.881  19.698  0.00  0.00    +0.000 A 
ATOM      8  C   UNL     1       1.710   8.236  19.679  0.00  0.00    +0.000 A 
ATOM      9  C   UNL     1       0.921   9.015  20.587  0.00  0.00    +0.000 A 
ATOM     10  C   UNL     1       0.315   8.492  21.866  0.00  0.00    +0.000 C 
ATOM     11  C   UNL     1       0.690  10.371  20.239  0.00  0.00    +0.000 A 
ATOM     12 CL   UNL     1      -0.259  11.390  21.277  0.00  0.00    +0.000 Cl
ENDROOT
BRANCH   7  13
ATOM     13  N   UNL     1       2.101   6.056  20.769  0.00  0.00    +0.000 N 
ATOM     14  H   UNL     1       1.276   5.479  20.914  0.00  0.00    +0.000 HD
ATOM     15  H   UNL     1       2.444   6.369  21.674  0.00  0.00    +0.000 HD
ENDBRANCH   7  13
BRANCH   6  16
ATOM     16  C   UNL     1       3.397   5.230  18.060  0.00  0.00    +0.000 C 
ATOM     17  O   UNL     1       2.701   4.311  17.631  0.00  0.00    +0.000 OA
BRANCH  16  18
ATOM     18  C   UNL     1       4.865   4.993  18.075  0.00  0.00    +0.000 A 
ATOM     19  C   UNL     1       5.528   4.613  16.905  0.00  0.00    +0.000 A 
ATOM     20  C   UNL     1       6.920   4.555  16.896  0.00  0.00    +0.000 A 
ATOM     21  C   UNL     1       7.602   4.878  18.059  0.00  0.00    +0.000 A 
ATOM     22  N   UNL     1       6.989   5.189  19.221  0.00  0.00    +0.000 NA
ATOM     23  C   UNL     1       5.634   5.202  19.212  0.00  0.00    +0.000 A 
ENDBRANCH  16  18
ENDBRANCH   6  16
TORSDOF 3
ENDMDL
MODEL 5
REMARK VINA RESULT:      -6.9      4.739      6.161
REMARK  Name = 
REMARK  5 active torsions:
REMARK  status: ('A' for Active; 'I' for Inactive)
REMARK    1  A    between atoms: C_1  and  C_2
REMARK    2  A    between atoms: C_6  and  C_7
REMARK    3  A    between atoms: C_7  and  C_9
REMARK    4  A    between atoms: C_15  and  N_16
REMARK    5  A    between atoms: C_18  and  C_19
REMARK                            x       y       z     vdW  Elec       q    Type
REMARK                         _______ _______ _______ _____ _____    ______ ____
ROOT
ATOM      1  C   UNL     1      -0.811  12.784  18.273  0.00  0.00    +0.000 C 
ATOM      2  C   UNL     1      -0.298  11.540  18.947  0.00  0.00    +0.000 A 
ATOM      3  N   UNL     1       0.494  10.760  18.185  0.00  0.00    +0.000 NA
ATOM      4  C   UNL     1       0.996   9.671  18.801  0.00  0.00    +0.000 A 
ATOM      5  S   UNL     1       2.001   8.611  17.931  0.00  0.00    +0.000 S 
ATOM      6  C   UNL     1       2.212   7.574  19.278  0.00  0.00    +0.000 A 
ATOM      7  C   UNL     1       1.589   8.101  20.401  0.00  0.00    +0.000 A 
ATOM      8  C   UNL     1       0.788   9.278  20.121  0.00  0.00    +0.000 A 
ATOM      9  C   UNL     1      -0.088  10.099  20.904  0.00  0.00    +0.000 A 
ATOM     10  C   UNL     1      -0.481   9.817  22.333  0.00  0.00    +0.000 C 
ATOM     11  C   UNL     1      -0.629  11.249  20.273  0.00  0.00    +0.000 A 
ATOM     12 CL   UNL     1      -1.704  12.298  21.144  0.00  0.00    +0.000 Cl
ENDROOT
BRANCH   7  13
ATOM     13  N   UNL     1       1.712   7.571  21.644  0.00  0.00    +0.000 N 
ATOM     14  H   UNL     1       1.876   6.578  21.799  0.00  0.00    +0.000 HD
ATOM     15  H   UNL     1       1.115   7.922  22.389  0.00  0.00    +0.000 HD
ENDBRANCH   7  13
BRANCH   6  16
ATOM     16  C   UNL     1       2.973   6.339  19.076  0.00  0.00    +0.000 C 
ATOM     17  O   UNL     1       4.191   6.298  18.910  0.00  0.00    +0.000 OA
BRANCH  16  18
ATOM     18  C   UNL     1       2.264   5.032  19.089  0.00  0.00    +0.000 A 
ATOM     19  C   UNL     1       1.870   4.458  20.300  0.00  0.00    +0.000 A 
ATOM     20  C   UNL     1       1.066   3.320  20.288  0.00  0.00    +0.000 A 
ATOM     21  C   UNL     1       0.685   2.794  19.063  0.00  0.00    +0.000 A 
ATOM     22  N   UNL     1       1.099   3.288  17.877  0.00  0.00    +0.000 NA
ATOM     23  C   UNL     1       1.910   4.373  17.918  0.00  0.00    +0.000 A 
ENDBRANCH  16  18
ENDBRANCH   6  16
TORSDOF 3
ENDMDL
MODEL 6
REMARK VINA RESULT:      -6.9      4.428      5.656
REMARK  Name = 
REMARK  5 active torsions:
REMARK  status: ('A' for Active; 'I' for Inactive)
REMARK    1  A    between atoms: C_1  and  C_2
REMARK    2  A    between atoms: C_6  and  C_7
REMARK    3  A    between atoms: C_7  and  C_9
REMARK    4  A    between atoms: C_15  and  N_16
REMARK    5  A    between atoms: C_18  and  C_19
REMARK                            x       y       z     vdW  Elec       q    Type
REMARK                         _______ _______ _______ _____ _____    ______ ____
ROOT
ATOM      1  C   UNL     1      -0.364  12.796  18.938  0.00  0.00    +0.000 C 
ATOM      2  C   UNL     1       0.088  11.414  19.327  0.00  0.00    +0.000 A 
ATOM      3  N   UNL     1       0.905  10.807  18.444  0.00  0.00    +0.000 NA
ATOM      4  C   UNL     1       1.351   9.590  18.812  0.00  0.00    +0.000 A 
ATOM      5  S   UNL     1       2.381   8.730  17.768  0.00  0.00    +0.000 S 
ATOM      6  C   UNL     1       2.498   7.403  18.844  0.00  0.00    +0.000 A 
ATOM      7  C   UNL     1       1.826   7.674  20.028  0.00  0.00    +0.000 A 
ATOM      8  C   UNL     1       1.064   8.908  19.992  0.00  0.00    +0.000 A 
ATOM      9  C   UNL     1       0.162   9.552  20.902  0.00  0.00    +0.000 A 
ATOM     10  C   UNL     1      -0.313   8.958  22.204  0.00  0.00    +0.000 C 
ATOM     11  C   UNL     1      -0.321  10.833  20.531  0.00  0.00    +0.000 A 
ATOM     12 CL   UNL     1      -1.422  11.685  21.569  0.00  0.00    +0.000 Cl
ENDROOT
BRANCH   7  13
ATOM     13  N   UNL     1       1.871   6.866  21.117  0.00  0.00    +0.000 N 
ATOM     14  H   UNL     1       1.944   5.853  21.042  0.00  0.00    +0.000 HD
ATOM     15  H   UNL     1       1.287   7.091  21.920  0.00  0.00    +0.000 HD
ENDBRANCH   7  13
BRANCH   6  16
ATOM     16  C   UNL     1       3.245   6.225  18.397  0.00  0.00    +0.000 C 
ATOM     17  O   UNL     1       4.295   6.274  17.757  0.00  0.00    +0.000 OA
BRANCH  16  18
ATOM     18  C   UNL     1       2.745   4.867  18.739  0.00  0.00    +0.000 A 
ATOM     19  C   UNL     1       1.576   4.380  18.149  0.00  0.00    +0.000 A 
ATOM     20  C   UNL     1       1.210   3.050  18.353  0.00  0.00    +0.000 A 
ATOM     21  C   UNL     1       2.026   2.255  19.142  0.00  0.00    +0.000 A 
ATOM     22  N   UNL     1       3.127   2.712  19.776  0.00  0.00    +0.000 NA
ATOM     23  C   UNL     1       3.440   4.018  19.590  0.00  0.00    +0.000 A 
ENDBRANCH  16  18
ENDBRANCH   6  16
TORSDOF 3
ENDMDL
MODEL 7
REMARK VINA RESULT:      -6.8      2.225      3.259
REMARK  Name = 
REMARK  5 active torsions:
REMARK  status: ('A' for Active; 'I' for Inactive)
REMARK    1  A    between atoms: C_1  and  C_2
REMARK    2  A    between atoms: C_6  and  C_7
REMARK    3  A    between atoms: C_7  and  C_9
REMARK    4  A    between atoms: C_15  and  N_16
REMARK    5  A    between atoms: C_18  and  C_19
REMARK                            x       y       z     vdW  Elec       q    Type
REMARK                         _______ _______ _______ _____ _____    ______ ____
ROOT
ATOM      1  C   UNL     1       1.252  11.425  18.105  0.00  0.00    +0.000 C 
ATOM      2  C   UNL     1       1.525  10.033  18.609  0.00  0.00    +0.000 A 
ATOM      3  N   UNL     1       2.334   9.289  17.830  0.00  0.00    +0.000 NA
ATOM      4  C   UNL     1       2.619   8.059  18.303  0.00  0.00    +0.000 A 
ATOM      5  S   UNL     1       3.625   7.031  17.396  0.00  0.00    +0.000 S 
ATOM      6  C   UNL     1       3.522   5.774  18.554  0.00  0.00    +0.000 A 
ATOM      7  C   UNL     1       2.799   6.190  19.663  0.00  0.00    +0.000 A 
ATOM      8  C   UNL     1       2.177   7.491  19.495  0.00  0.00    +0.000 A 
ATOM      9  C   UNL     1       1.286   8.282  20.292  0.00  0.00    +0.000 A 
ATOM     10  C   UNL     1       0.658   7.828  21.586  0.00  0.00    +0.000 C 
ATOM     11  C   UNL     1       0.970   9.579  19.809  0.00  0.00    +0.000 A 
ATOM     12 CL   UNL     1      -0.105  10.605  20.706  0.00  0.00    +0.000 Cl
ENDROOT
BRANCH   7  13
ATOM     13  N   UNL     1       2.678   5.456  20.798  0.00  0.00    +0.000 N 
ATOM     14  H   UNL     1       1.797   5.370  21.300  0.00  0.00    +0.000 HD
ATOM     15  H   UNL     1       3.439   5.469  21.474  0.00  0.00    +0.000 HD
ENDBRANCH   7  13
BRANCH   6  16
ATOM     16  C   UNL     1       4.169   4.499  18.237  0.00  0.00    +0.000 C 
ATOM     17  O   UNL     1       3.890   3.430  18.777  0.00  0.00    +0.000 OA
BRANCH  16  18
ATOM     18  C   UNL     1       5.219   4.453  17.185  0.00  0.00    +0.000 A 
ATOM     19  C   UNL     1       4.883   4.120  15.870  0.00  0.00    +0.000 A 
ATOM     20  C   UNL     1       5.843   4.241  14.867  0.00  0.00    +0.000 A 
ATOM     21  C   UNL     1       7.108   4.688  15.215  0.00  0.00    +0.000 A 
ATOM     22  N   UNL     1       7.482   4.958  16.484  0.00  0.00    +0.000 NA
ATOM     23  C   UNL     1       6.540   4.797  17.445  0.00  0.00    +0.000 A 
ENDBRANCH  16  18
ENDBRANCH   6  16
TORSDOF 3
ENDMDL
MODEL 8
REMARK VINA RESULT:      -6.7      2.926      4.200
REMARK  Name = 
REMARK  5 active torsions:
REMARK  status: ('A' for Active; 'I' for Inactive)
REMARK    1  A    between atoms: C_1  and  C_2
REMARK    2  A    between atoms: C_6  and  C_7
REMARK    3  A    between atoms: C_7  and  C_9
REMARK    4  A    between atoms: C_15  and  N_16
REMARK    5  A    between atoms: C_18  and  C_19
REMARK                            x       y       z     vdW  Elec       q    Type
REMARK                         _______ _______ _______ _____ _____    ______ ____
ROOT
ATOM      1  C   UNL     1       0.970  12.355  18.596  0.00  0.00    +0.000 C 
ATOM      2  C   UNL     1       1.156  10.921  19.010  0.00  0.00    +0.000 A 
ATOM      3  N   UNL     1       1.870  10.163  18.155  0.00  0.00    +0.000 NA
ATOM      4  C   UNL     1       2.080   8.891  18.548  0.00  0.00    +0.000 A 
ATOM      5  S   UNL     1       2.963   7.844  17.540  0.00  0.00    +0.000 S 
ATOM      6  C   UNL     1       2.813   6.534  18.632  0.00  0.00    +0.000 A 
ATOM      7  C   UNL     1       2.172   6.939  19.795  0.00  0.00    +0.000 A 
ATOM      8  C   UNL     1       1.647   8.290  19.727  0.00  0.00    +0.000 A 
ATOM      9  C   UNL     1       0.855   9.099  20.606  0.00  0.00    +0.000 A 
ATOM     10  C   UNL     1       0.250   8.620  21.902  0.00  0.00    +0.000 C 
ATOM     11  C   UNL     1       0.620  10.441  20.209  0.00  0.00    +0.000 A 
ATOM     12 CL   UNL     1      -0.333  11.493  21.210  0.00  0.00    +0.000 Cl
ENDROOT
BRANCH   7  13
ATOM     13  N   UNL     1       2.044   6.152  20.894  0.00  0.00    +0.000 N 
ATOM     14  H   UNL     1       2.847   5.832  21.431  0.00  0.00    +0.000 HD
ATOM     15  H   UNL     1       1.339   5.419  20.893  0.00  0.00    +0.000 HD
ENDBRANCH   7  13
BRANCH   6  16
ATOM     16  C   UNL     1       3.345   5.234  18.217  0.00  0.00    +0.000 C 
ATOM     17  O   UNL     1       2.675   4.205  18.141  0.00  0.00    +0.000 OA
BRANCH  16  18
ATOM     18  C   UNL     1       4.777   5.118  17.834  0.00  0.00    +0.000 A 
ATOM     19  C   UNL     1       5.778   5.460  18.747  0.00  0.00    +0.000 A 
ATOM     20  C   UNL     1       7.110   5.191  18.434  0.00  0.00    +0.000 A 
ATOM     21  C   UNL     1       7.393   4.592  17.216  0.00  0.00    +0.000 A 
ATOM     22  N   UNL     1       6.455   4.306  16.288  0.00  0.00    +0.000 NA
ATOM     23  C   UNL     1       5.173   4.610  16.603  0.00  0.00    +0.000 A 
ENDBRANCH  16  18
ENDBRANCH   6  16
TORSDOF 3
ENDMDL
MODEL 9
REMARK VINA RESULT:      -6.7      3.445      4.869
REMARK  Name = 
REMARK  5 active torsions:
REMARK  status: ('A' for Active; 'I' for Inactive)
REMARK    1  A    between atoms: C_1  and  C_2
REMARK    2  A    between atoms: C_6  and  C_7
REMARK    3  A    between atoms: C_7  and  C_9
REMARK    4  A    between atoms: C_15  and  N_16
REMARK    5  A    between atoms: C_18  and  C_19
REMARK                            x       y       z     vdW  Elec       q    Type
REMARK                         _______ _______ _______ _____ _____    ______ ____
ROOT
ATOM      1  C   UNL     1      -0.193  12.817  19.085  0.00  0.00    +0.000 C 
ATOM      2  C   UNL     1       0.229  11.413  19.423  0.00  0.00    +0.000 A 
ATOM      3  N   UNL     1       0.962  10.790  18.479  0.00  0.00    +0.000 NA
ATOM      4  C   UNL     1       1.383   9.551  18.799  0.00  0.00    +0.000 A 
ATOM      5  S   UNL     1       2.308   8.670  17.677  0.00  0.00    +0.000 S 
ATOM      6  C   UNL     1       2.444   7.322  18.723  0.00  0.00    +0.000 A 
ATOM      7  C   UNL     1       1.863   7.598  19.952  0.00  0.00    +0.000 A 
ATOM      8  C   UNL     1       1.148   8.861  19.986  0.00  0.00    +0.000 A 
ATOM      9  C   UNL     1       0.335   9.522  20.962  0.00  0.00    +0.000 A 
ATOM     10  C   UNL     1      -0.076   8.925  22.285  0.00  0.00    +0.000 C 
ATOM     11  C   UNL     1      -0.122  10.827  20.643  0.00  0.00    +0.000 A 
ATOM     12 CL   UNL     1      -1.117  11.703  21.765  0.00  0.00    +0.000 Cl
ENDROOT
BRANCH   7  13
ATOM     13  N   UNL     1       1.947   6.770  21.025  0.00  0.00    +0.000 N 
ATOM     14  H   UNL     1       2.334   5.831  20.959  0.00  0.00    +0.000 HD
ATOM     15  H   UNL     1       1.186   6.762  21.700  0.00  0.00    +0.000 HD
ENDBRANCH   7  13
BRANCH   6  16
ATOM     16  C   UNL     1       3.113   6.124  18.210  0.00  0.00    +0.000 C 
ATOM     17  O   UNL     1       2.528   5.097  17.872  0.00  0.00    +0.000 OA
BRANCH  16  18
ATOM     18  C   UNL     1       4.592   6.122  18.053  0.00  0.00    +0.000 A 
ATOM     19  C   UNL     1       5.398   5.480  18.996  0.00  0.00    +0.000 A 
ATOM     20  C   UNL     1       6.764   5.346  18.750  0.00  0.00    +0.000 A 
ATOM     21  C   UNL     1       7.276   5.862  17.569  0.00  0.00    +0.000 A 
ATOM     22  N   UNL     1       6.535   6.541  16.668  0.00  0.00    +0.000 NA
ATOM     23  C   UNL     1       5.217   6.689  16.949  0.00  0.00    +0.000 A 
ENDBRANCH  16  18
ENDBRANCH   6  16
TORSDOF 3
ENDMDL
