MODEL 1
REMARK VINA RESULT:      -6.9      0.000      0.000
REMARK  Name = 
REMARK  8 active torsions:
REMARK  status: ('A' for Active; 'I' for Inactive)
REMARK    1  A    between atoms: C_1  and  C_2
REMARK    2  A    between atoms: C_2  and  C_3
REMARK    3  A    between atoms: C_3  and  C_4
REMARK    4  A    between atoms: C_4  and  N_5
REMARK    5  A    between atoms: C_8  and  C_9
REMARK    6  A    between atoms: C_12  and  C_13
REMARK    7  A    between atoms: C_25  and  C_26
REMARK    8  A    between atoms: C_26  and  C_27
REMARK                            x       y       z     vdW  Elec       q    Type
REMARK                         _______ _______ _______ _____ _____    ______ ____
ROOT
ATOM      1  N   UNL     1       2.002   6.544  19.754  0.00  0.00    +0.000 N 
ATOM      2  C   UNL     1       1.612   7.724  20.354  0.00  0.00    +0.000 A 
ATOM      3  C   UNL     1       1.105   7.949  21.624  0.00  0.00    +0.000 A 
ATOM      4  C   UNL     1       0.614   9.216  21.980  0.00  0.00    +0.000 A 
ATOM      5  C   UNL     1      -0.016   9.402  23.330  0.00  0.00    +0.000 C 
ATOM      6  N   UNL     1       0.638  10.311  21.174  0.00  0.00    +0.000 NA
ATOM      7  C   UNL     1       1.203  10.099  19.955  0.00  0.00    +0.000 A 
ATOM      8  C   UNL     1       1.441  10.928  18.802  0.00  0.00    +0.000 A 
ATOM      9  N   UNL     1       2.059  10.222  17.821  0.00  0.00    +0.000 NA
ATOM     10  N   UNL     1       2.123   8.983  18.324  0.00  0.00    +0.000 N 
ATOM     11  C   UNL     1       1.667   8.869  19.592  0.00  0.00    +0.000 A 
ATOM     12  C   UNL     1       2.632   7.807  17.635  0.00  0.00    +0.000 C 
ATOM     13  C   UNL     1       3.056   6.728  18.689  0.00  0.00    +0.000 C 
ENDROOT
BRANCH   8  14
ATOM     14  C   UNL     1       1.098  12.349  18.678  0.00  0.00    +0.000 A 
ATOM     15  C   UNL     1       2.156  13.284  18.646  0.00  0.00    +0.000 A 
ATOM     16  C   UNL     1       1.917  14.660  18.603  0.00  0.00    +0.000 A 
ATOM     17  C   UNL     1       0.610  15.124  18.576  0.00  0.00    +0.000 A 
ATOM     18 CL   UNL     1       0.308  16.818  18.544  0.00  0.00    +0.000 Cl
ATOM     19  C   UNL     1      -0.454  14.228  18.587  0.00  0.00    +0.000 A 
ATOM     20  C   UNL     1      -0.218  12.846  18.643  0.00  0.00    +0.000 A 
ATOM     21 CL   UNL     1      -1.629  11.845  18.732  0.00  0.00    +0.000 Cl
ENDBRANCH   8  14
BRANCH  13  22
ATOM     22  C   UNL     1       3.511   5.417  18.028  0.00  0.00    +0.000 C 
ATOM     23  C   UNL     1       4.822   4.877  18.589  0.00  0.00    +0.000 C 
ENDBRANCH  13  22
BRANCH   1  24
ATOM     24  C   UNL     1       1.414   5.252  20.119  0.00  0.00    +0.000 C 
BRANCH  24  25
ATOM     25  C   UNL     1       2.195   4.496  21.211  0.00  0.00    +0.000 C 
BRANCH  25  27
ATOM     26  C   UNL     1       1.495   2.491  19.873  0.00  0.00    +0.000 C 
ATOM     27  C   UNL     1       1.820   3.018  21.263  0.00  0.00    +0.000 C 
ENDBRANCH  25  27
ENDBRANCH  24  25
ENDBRANCH   1  24
TORSDOF 5
ENDMDL
MODEL 2
REMARK VINA RESULT:      -6.7      3.736      7.846
REMARK  Name = 
REMARK  8 active torsions:
REMARK  status: ('A' for Active; 'I' for Inactive)
REMARK    1  A    between atoms: C_1  and  C_2
REMARK    2  A    between atoms: C_2  and  C_3
REMARK    3  A    between atoms: C_3  and  C_4
REMARK    4  A    between atoms: C_4  and  N_5
REMARK    5  A    between atoms: C_8  and  C_9
REMARK    6  A    between atoms: C_12  and  C_13
REMARK    7  A    between atoms: C_25  and  C_26
REMARK    8  A    between atoms: C_26  and  C_27
REMARK                            x       y       z     vdW  Elec       q    Type
REMARK                         _______ _______ _______ _____ _____    ______ ____
ROOT
ATOM      1  N   UNL     1      -2.612  13.401  20.714  0.00  0.00    +0.000 N 
ATOM      2  C   UNL     1      -2.328  12.425  19.781  0.00  0.00    +0.000 A 
ATOM      3  C   UNL     1      -3.095  11.953  18.727  0.00  0.00    +0.000 A 
ATOM      4  C   UNL     1      -2.680  10.831  17.992  0.00  0.00    +0.000 A 
ATOM      5  C   UNL     1      -3.579  10.287  16.920  0.00  0.00    +0.000 C 
ATOM      6  N   UNL     1      -1.514  10.161  18.192  0.00  0.00    +0.000 NA
ATOM      7  C   UNL     1      -0.733  10.674  19.181  0.00  0.00    +0.000 A 
ATOM      8  C   UNL     1       0.544  10.314  19.739  0.00  0.00    +0.000 A 
ATOM      9  N   UNL     1       0.897  11.174  20.728  0.00  0.00    +0.000 NA
ATOM     10  N   UNL     1      -0.165  11.984  20.828  0.00  0.00    +0.000 N 
ATOM     11  C   UNL     1      -1.133  11.753  19.913  0.00  0.00    +0.000 A 
ATOM     12  C   UNL     1      -0.338  13.049  21.804  0.00  0.00    +0.000 C 
ATOM     13  C   UNL     1      -1.384  14.084  21.265  0.00  0.00    +0.000 C 
ENDROOT
BRANCH   8  14
ATOM     14  C   UNL     1       1.388   9.194  19.307  0.00  0.00    +0.000 A 
ATOM     15  C   UNL     1       1.946   9.247  18.011  0.00  0.00    +0.000 A 
ATOM     16  C   UNL     1       2.701   8.192  17.494  0.00  0.00    +0.000 A 
ATOM     17  C   UNL     1       2.923   7.067  18.274  0.00  0.00    +0.000 A 
ATOM     18 CL   UNL     1       3.833   5.754  17.636  0.00  0.00    +0.000 Cl
ATOM     19  C   UNL     1       2.403   6.990  19.562  0.00  0.00    +0.000 A 
ATOM     20  C   UNL     1       1.633   8.044  20.080  0.00  0.00    +0.000 A 
ATOM     21 CL   UNL     1       0.979   7.789  21.664  0.00  0.00    +0.000 Cl
ENDBRANCH   8  14
BRANCH  13  22
ATOM     22  C   UNL     1      -1.691  15.186  22.292  0.00  0.00    +0.000 C 
ATOM     23  C   UNL     1      -1.303  14.812  23.719  0.00  0.00    +0.000 C 
ENDBRANCH  13  22
BRANCH   1  24
ATOM     24  C   UNL     1      -3.984  13.708  21.129  0.00  0.00    +0.000 C 
BRANCH  24  25
ATOM     25  C   UNL     1      -4.582  12.684  22.113  0.00  0.00    +0.000 C 
BRANCH  25  27
ATOM     26  C   UNL     1      -4.170  12.501  24.582  0.00  0.00    +0.000 C 
ATOM     27  C   UNL     1      -4.854  13.300  23.483  0.00  0.00    +0.000 C 
ENDBRANCH  25  27
ENDBRANCH  24  25
ENDBRANCH   1  24
TORSDOF 5
ENDMDL
MODEL 3
REMARK VINA RESULT:      -6.7      2.718      4.177
REMARK  Name = 
REMARK  8 active torsions:
REMARK  status: ('A' for Active; 'I' for Inactive)
REMARK    1  A    between atoms: C_1  and  C_2
REMARK    2  A    between atoms: C_2  and  C_3
REMARK    3  A    between atoms: C_3  and  C_4
REMARK    4  A    between atoms: C_4  and  N_5
REMARK    5  A    between atoms: C_8  and  C_9
REMARK    6  A    between atoms: C_12  and  C_13
REMARK    7  A    between atoms: C_25  and  C_26
REMARK    8  A    between atoms: C_26  and  C_27
REMARK                            x       y       z     vdW  Elec       q    Type
REMARK                         _______ _______ _______ _____ _____    ______ ____
ROOT
ATOM      1  N   UNL     1       4.174   4.880  17.611  0.00  0.00    +0.000 N 
ATOM      2  C   UNL     1       3.510   5.121  18.796  0.00  0.00    +0.000 A 
ATOM      3  C   UNL     1       3.234   4.265  19.851  0.00  0.00    +0.000 A 
ATOM      4  C   UNL     1       2.395   4.674  20.899  0.00  0.00    +0.000 A 
ATOM      5  C   UNL     1       2.040   3.691  21.976  0.00  0.00    +0.000 C 
ATOM      6  N   UNL     1       1.842   5.912  21.011  0.00  0.00    +0.000 NA
ATOM      7  C   UNL     1       2.175   6.769  20.009  0.00  0.00    +0.000 A 
ATOM      8  C   UNL     1       1.841   8.137  19.706  0.00  0.00    +0.000 A 
ATOM      9  N   UNL     1       2.456   8.541  18.566  0.00  0.00    +0.000 NA
ATOM     10  N   UNL     1       3.080   7.435  18.141  0.00  0.00    +0.000 N 
ATOM     11  C   UNL     1       2.975   6.377  18.977  0.00  0.00    +0.000 A 
ATOM     12  C   UNL     1       3.831   7.301  16.903  0.00  0.00    +0.000 C 
ATOM     13  C   UNL     1       4.836   6.105  17.030  0.00  0.00    +0.000 C 
ENDROOT
BRANCH   8  14
ATOM     14  C   UNL     1       0.978   9.010  20.510  0.00  0.00    +0.000 A 
ATOM     15  C   UNL     1       1.078   8.926  21.916  0.00  0.00    +0.000 A 
ATOM     16  C   UNL     1       0.244   9.669  22.755  0.00  0.00    +0.000 A 
ATOM     17  C   UNL     1      -0.697  10.522  22.199  0.00  0.00    +0.000 A 
ATOM     18 CL   UNL     1      -1.742  11.423  23.227  0.00  0.00    +0.000 Cl
ATOM     19  C   UNL     1      -0.808  10.642  20.817  0.00  0.00    +0.000 A 
ATOM     20  C   UNL     1       0.020   9.888  19.972  0.00  0.00    +0.000 A 
ATOM     21 CL   UNL     1      -0.275  10.070  18.273  0.00  0.00    +0.000 Cl
ENDBRANCH   8  14
BRANCH  13  22
ATOM     22  C   UNL     1       5.595   5.842  15.719  0.00  0.00    +0.000 C 
ATOM     23  C   UNL     1       7.016   5.332  15.932  0.00  0.00    +0.000 C 
ENDBRANCH  13  22
BRANCH   1  24
ATOM     24  C   UNL     1       4.197   3.554  16.986  0.00  0.00    +0.000 C 
BRANCH  24  25
ATOM     25  C   UNL     1       2.801   2.929  16.794  0.00  0.00    +0.000 C 
BRANCH  25  27
ATOM     26  C   UNL     1       1.179   2.064  18.502  0.00  0.00    +0.000 C 
ATOM     27  C   UNL     1       2.519   1.835  17.820  0.00  0.00    +0.000 C 
ENDBRANCH  25  27
ENDBRANCH  24  25
ENDBRANCH   1  24
TORSDOF 5
ENDMDL
MODEL 4
REMARK VINA RESULT:      -6.5      4.331      8.135
REMARK  Name = 
REMARK  8 active torsions:
REMARK  status: ('A' for Active; 'I' for Inactive)
REMARK    1  A    between atoms: C_1  and  C_2
REMARK    2  A    between atoms: C_2  and  C_3
REMARK    3  A    between atoms: C_3  and  C_4
REMARK    4  A    between atoms: C_4  and  N_5
REMARK    5  A    between atoms: C_8  and  C_9
REMARK    6  A    between atoms: C_12  and  C_13
REMARK    7  A    between atoms: C_25  and  C_26
REMARK    8  A    between atoms: C_26  and  C_27
REMARK                            x       y       z     vdW  Elec       q    Type
REMARK                         _______ _______ _______ _____ _____    ______ ____
ROOT
ATOM      1  N   UNL     1      -4.047  12.641  19.428  0.00  0.00    +0.000 N 
ATOM      2  C   UNL     1      -3.322  11.841  18.569  0.00  0.00    +0.000 A 
ATOM      3  C   UNL     1      -3.629  11.400  17.292  0.00  0.00    +0.000 A 
ATOM      4  C   UNL     1      -2.816  10.451  16.652  0.00  0.00    +0.000 A 
ATOM      5  C   UNL     1      -3.229   9.922  15.309  0.00  0.00    +0.000 C 
ATOM      6  N   UNL     1      -1.668   9.937  17.170  0.00  0.00    +0.000 NA
ATOM      7  C   UNL     1      -1.335  10.429  18.394  0.00  0.00    +0.000 A 
ATOM      8  C   UNL     1      -0.250  10.191  19.310  0.00  0.00    +0.000 A 
ATOM      9  N   UNL     1      -0.378  10.962  20.419  0.00  0.00    +0.000 NA
ATOM     10  N   UNL     1      -1.545  11.590  20.227  0.00  0.00    +0.000 N 
ATOM     11  C   UNL     1      -2.126  11.338  19.033  0.00  0.00    +0.000 A 
ATOM     12  C   UNL     1      -2.196  12.488  21.168  0.00  0.00    +0.000 C 
ATOM     13  C   UNL     1      -3.191  13.420  20.397  0.00  0.00    +0.000 C 
ENDROOT
BRANCH   8  14
ATOM     14  C   UNL     1       0.871   9.268  19.094  0.00  0.00    +0.000 A 
ATOM     15  C   UNL     1       1.573   9.354  17.872  0.00  0.00    +0.000 A 
ATOM     16  C   UNL     1       2.605   8.467  17.557  0.00  0.00    +0.000 A 
ATOM     17  C   UNL     1       2.962   7.485  18.469  0.00  0.00    +0.000 A 
ATOM     18 CL   UNL     1       4.218   6.376  18.077  0.00  0.00    +0.000 Cl
ATOM     19  C   UNL     1       2.303   7.386  19.690  0.00  0.00    +0.000 A 
ATOM     20  C   UNL     1       1.258   8.267  20.004  0.00  0.00    +0.000 A 
ATOM     21 CL   UNL     1       0.468   7.986  21.521  0.00  0.00    +0.000 Cl
ENDBRANCH   8  14
BRANCH  13  22
ATOM     22  C   UNL     1      -3.991  14.328  21.345  0.00  0.00    +0.000 C 
ATOM     23  C   UNL     1      -4.114  13.769  22.759  0.00  0.00    +0.000 C 
ENDBRANCH  13  22
BRANCH   1  24
ATOM     24  C   UNL     1      -5.512  12.691  19.395  0.00  0.00    +0.000 C 
BRANCH  24  25
ATOM     25  C   UNL     1      -6.193  11.532  20.149  0.00  0.00    +0.000 C 
BRANCH  25  27
ATOM     26  C   UNL     1      -7.571  12.355  22.079  0.00  0.00    +0.000 C 
ATOM     27  C   UNL     1      -7.594  11.905  20.626  0.00  0.00    +0.000 C 
ENDBRANCH  25  27
ENDBRANCH  24  25
ENDBRANCH   1  24
TORSDOF 5
ENDMDL
MODEL 5
REMARK VINA RESULT:      -6.5      1.107      1.455
REMARK  Name = 
REMARK  8 active torsions:
REMARK  status: ('A' for Active; 'I' for Inactive)
REMARK    1  A    between atoms: C_1  and  C_2
REMARK    2  A    between atoms: C_2  and  C_3
REMARK    3  A    between atoms: C_3  and  C_4
REMARK    4  A    between atoms: C_4  and  N_5
REMARK    5  A    between atoms: C_8  and  C_9
REMARK    6  A    between atoms: C_12  and  C_13
REMARK    7  A    between atoms: C_25  and  C_26
REMARK    8  A    between atoms: C_26  and  C_27
REMARK                            x       y       z     vdW  Elec       q    Type
REMARK                         _______ _______ _______ _____ _____    ______ ____
ROOT
ATOM      1  N   UNL     1       1.925   6.836  19.750  0.00  0.00    +0.000 N 
ATOM      2  C   UNL     1       1.528   7.976  20.418  0.00  0.00    +0.000 A 
ATOM      3  C   UNL     1       1.063   8.130  21.714  0.00  0.00    +0.000 A 
ATOM      4  C   UNL     1       0.555   9.366  22.146  0.00  0.00    +0.000 A 
ATOM      5  C   UNL     1      -0.029   9.474  23.524  0.00  0.00    +0.000 C 
ATOM      6  N   UNL     1       0.522  10.497  21.391  0.00  0.00    +0.000 NA
ATOM      7  C   UNL     1       1.046  10.356  20.144  0.00  0.00    +0.000 A 
ATOM      8  C   UNL     1       1.221  11.242  19.022  0.00  0.00    +0.000 A 
ATOM      9  N   UNL     1       1.819  10.598  17.989  0.00  0.00    +0.000 NA
ATOM     10  N   UNL     1       1.933   9.339  18.431  0.00  0.00    +0.000 N 
ATOM     11  C   UNL     1       1.527   9.156  19.708  0.00  0.00    +0.000 A 
ATOM     12  C   UNL     1       2.445   8.209  17.671  0.00  0.00    +0.000 C 
ATOM     13  C   UNL     1       2.934   7.096  18.658  0.00  0.00    +0.000 C 
ENDROOT
BRANCH   8  14
ATOM     14  C   UNL     1       0.839  12.658  18.977  0.00  0.00    +0.000 A 
ATOM     15  C   UNL     1      -0.520  12.984  19.182  0.00  0.00    +0.000 A 
ATOM     16  C   UNL     1      -0.981  14.299  19.084  0.00  0.00    +0.000 A 
ATOM     17  C   UNL     1      -0.083  15.315  18.794  0.00  0.00    +0.000 A 
ATOM     18 CL   UNL     1      -0.648  16.935  18.651  0.00  0.00    +0.000 Cl
ATOM     19  C   UNL     1       1.265  15.031  18.606  0.00  0.00    +0.000 A 
ATOM     20  C   UNL     1       1.729  13.709  18.691  0.00  0.00    +0.000 A 
ATOM     21 CL   UNL     1       3.415  13.481  18.357  0.00  0.00    +0.000 Cl
ENDBRANCH   8  14
BRANCH  13  22
ATOM     22  C   UNL     1       3.396   5.828  17.921  0.00  0.00    +0.000 C 
ATOM     23  C   UNL     1       4.744   5.302  18.404  0.00  0.00    +0.000 C 
ENDBRANCH  13  22
BRANCH   1  24
ATOM     24  C   UNL     1       1.383   5.513  20.075  0.00  0.00    +0.000 C 
BRANCH  24  25
ATOM     25  C   UNL     1       2.221   4.730  21.104  0.00  0.00    +0.000 C 
BRANCH  25  27
ATOM     26  C   UNL     1       0.958   2.902  19.938  0.00  0.00    +0.000 C 
ATOM     27  C   UNL     1       1.916   3.236  21.072  0.00  0.00    +0.000 C 
ENDBRANCH  25  27
ENDBRANCH  24  25
ENDBRANCH   1  24
TORSDOF 5
ENDMDL
MODEL 6
REMARK VINA RESULT:      -6.4      3.809      7.856
REMARK  Name = 
REMARK  8 active torsions:
REMARK  status: ('A' for Active; 'I' for Inactive)
REMARK    1  A    between atoms: C_1  and  C_2
REMARK    2  A    between atoms: C_2  and  C_3
REMARK    3  A    between atoms: C_3  and  C_4
REMARK    4  A    between atoms: C_4  and  N_5
REMARK    5  A    between atoms: C_8  and  C_9
REMARK    6  A    between atoms: C_12  and  C_13
REMARK    7  A    between atoms: C_25  and  C_26
REMARK    8  A    between atoms: C_26  and  C_27
REMARK                            x       y       z     vdW  Elec       q    Type
REMARK                         _______ _______ _______ _____ _____    ______ ____
ROOT
ATOM      1  N   UNL     1      -2.593  13.291  20.514  0.00  0.00    +0.000 N 
ATOM      2  C   UNL     1      -2.272  12.326  19.582  0.00  0.00    +0.000 A 
ATOM      3  C   UNL     1      -2.993  11.873  18.487  0.00  0.00    +0.000 A 
ATOM      4  C   UNL     1      -2.551  10.758  17.757  0.00  0.00    +0.000 A 
ATOM      5  C   UNL     1      -3.403  10.235  16.637  0.00  0.00    +0.000 C 
ATOM      6  N   UNL     1      -1.399  10.079  18.000  0.00  0.00    +0.000 NA
ATOM      7  C   UNL     1      -0.661  10.573  19.030  0.00  0.00    +0.000 A 
ATOM      8  C   UNL     1       0.587  10.198  19.642  0.00  0.00    +0.000 A 
ATOM      9  N   UNL     1       0.899  11.042  20.657  0.00  0.00    +0.000 NA
ATOM     10  N   UNL     1      -0.162  11.857  20.720  0.00  0.00    +0.000 N 
ATOM     11  C   UNL     1      -1.088  11.645  19.758  0.00  0.00    +0.000 A 
ATOM     12  C   UNL     1      -0.374  12.910  21.701  0.00  0.00    +0.000 C 
ATOM     13  C   UNL     1      -1.388  13.959  21.130  0.00  0.00    +0.000 C 
ENDROOT
BRANCH   8  14
ATOM     14  C   UNL     1       1.443   9.079  19.233  0.00  0.00    +0.000 A 
ATOM     15  C   UNL     1       2.030   9.129  17.949  0.00  0.00    +0.000 A 
ATOM     16  C   UNL     1       2.799   8.073  17.453  0.00  0.00    +0.000 A 
ATOM     17  C   UNL     1       3.007   6.952  18.243  0.00  0.00    +0.000 A 
ATOM     18 CL   UNL     1       3.936   5.640  17.630  0.00  0.00    +0.000 Cl
ATOM     19  C   UNL     1       2.459   6.880  19.519  0.00  0.00    +0.000 A 
ATOM     20  C   UNL     1       1.676   7.933  20.015  0.00  0.00    +0.000 A 
ATOM     21 CL   UNL     1       0.987   7.683  21.586  0.00  0.00    +0.000 Cl
ENDBRANCH   8  14
BRANCH  13  22
ATOM     22  C   UNL     1      -1.735  15.049  22.157  0.00  0.00    +0.000 C 
ATOM     23  C   UNL     1      -1.423  14.650  23.596  0.00  0.00    +0.000 C 
ENDBRANCH  13  22
BRANCH   1  24
ATOM     24  C   UNL     1      -3.981  13.601  20.870  0.00  0.00    +0.000 C 
BRANCH  24  25
ATOM     25  C   UNL     1      -4.565  12.683  21.963  0.00  0.00    +0.000 C 
BRANCH  25  27
ATOM     26  C   UNL     1      -6.548  12.370  20.457  0.00  0.00    +0.000 C 
ATOM     27  C   UNL     1      -6.087  12.603  21.888  0.00  0.00    +0.000 C 
ENDBRANCH  25  27
ENDBRANCH  24  25
ENDBRANCH   1  24
TORSDOF 5
ENDMDL
MODEL 7
REMARK VINA RESULT:      -6.3      3.878      8.034
REMARK  Name = 
REMARK  8 active torsions:
REMARK  status: ('A' for Active; 'I' for Inactive)
REMARK    1  A    between atoms: C_1  and  C_2
REMARK    2  A    between atoms: C_2  and  C_3
REMARK    3  A    between atoms: C_3  and  C_4
REMARK    4  A    between atoms: C_4  and  N_5
REMARK    5  A    between atoms: C_8  and  C_9
REMARK    6  A    between atoms: C_12  and  C_13
REMARK    7  A    between atoms: C_25  and  C_26
REMARK    8  A    between atoms: C_26  and  C_27
REMARK                            x       y       z     vdW  Elec       q    Type
REMARK                         _______ _______ _______ _____ _____    ______ ____
ROOT
ATOM      1  N   UNL     1      -2.552  13.423  20.935  0.00  0.00    +0.000 N 
ATOM      2  C   UNL     1      -2.250  12.422  20.035  0.00  0.00    +0.000 A 
ATOM      3  C   UNL     1      -2.905  12.044  18.873  0.00  0.00    +0.000 A 
ATOM      4  C   UNL     1      -2.519  10.882  18.186  0.00  0.00    +0.000 A 
ATOM      5  C   UNL     1      -3.310  10.447  16.986  0.00  0.00    +0.000 C 
ATOM      6  N   UNL     1      -1.478  10.082  18.539  0.00  0.00    +0.000 NA
ATOM      7  C   UNL     1      -0.795  10.500  19.638  0.00  0.00    +0.000 A 
ATOM      8  C   UNL     1       0.339   9.994  20.368  0.00  0.00    +0.000 A 
ATOM      9  N   UNL     1       0.640  10.806  21.412  0.00  0.00    +0.000 NA
ATOM     10  N   UNL     1      -0.326  11.733  21.373  0.00  0.00    +0.000 N 
ATOM     11  C   UNL     1      -1.171  11.617  20.325  0.00  0.00    +0.000 A 
ATOM     12  C   UNL     1      -0.515  12.810  22.333  0.00  0.00    +0.000 C 
ATOM     13  C   UNL     1      -1.347  13.960  21.669  0.00  0.00    +0.000 C 
ENDROOT
BRANCH   8  14
ATOM     14  C   UNL     1       1.102   8.785  20.041  0.00  0.00    +0.000 A 
ATOM     15  C   UNL     1       1.115   7.735  20.985  0.00  0.00    +0.000 A 
ATOM     16  C   UNL     1       1.874   6.579  20.786  0.00  0.00    +0.000 A 
ATOM     17  C   UNL     1       2.624   6.448  19.627  0.00  0.00    +0.000 A 
ATOM     18 CL   UNL     1       3.578   5.036  19.385  0.00  0.00    +0.000 Cl
ATOM     19  C   UNL     1       2.619   7.456  18.668  0.00  0.00    +0.000 A 
ATOM     20  C   UNL     1       1.867   8.623  18.871  0.00  0.00    +0.000 A 
ATOM     21 CL   UNL     1       2.010   9.833  17.639  0.00  0.00    +0.000 Cl
ENDBRANCH   8  14
BRANCH  13  22
ATOM     22  C   UNL     1      -1.672  15.089  22.660  0.00  0.00    +0.000 C 
ATOM     23  C   UNL     1      -1.605  14.652  24.121  0.00  0.00    +0.000 C 
ENDBRANCH  13  22
BRANCH   1  24
ATOM     24  C   UNL     1      -3.926  13.886  21.154  0.00  0.00    +0.000 C 
BRANCH  24  25
ATOM     25  C   UNL     1      -4.814  12.873  21.901  0.00  0.00    +0.000 C 
BRANCH  25  27
ATOM     26  C   UNL     1      -7.239  12.229  21.829  0.00  0.00    +0.000 C 
ATOM     27  C   UNL     1      -5.953  12.357  21.026  0.00  0.00    +0.000 C 
ENDBRANCH  25  27
ENDBRANCH  24  25
ENDBRANCH   1  24
TORSDOF 5
ENDMDL
MODEL 8
REMARK VINA RESULT:      -6.3      3.608      8.005
REMARK  Name = 
REMARK  8 active torsions:
REMARK  status: ('A' for Active; 'I' for Inactive)
REMARK    1  A    between atoms: C_1  and  C_2
REMARK    2  A    between atoms: C_2  and  C_3
REMARK    3  A    between atoms: C_3  and  C_4
REMARK    4  A    between atoms: C_4  and  N_5
REMARK    5  A    between atoms: C_8  and  C_9
REMARK    6  A    between atoms: C_12  and  C_13
REMARK    7  A    between atoms: C_25  and  C_26
REMARK    8  A    between atoms: C_26  and  C_27
REMARK                            x       y       z     vdW  Elec       q    Type
REMARK                         _______ _______ _______ _____ _____    ______ ____
ROOT
ATOM      1  N   UNL     1      -2.545  13.373  20.723  0.00  0.00    +0.000 N 
ATOM      2  C   UNL     1      -2.240  12.336  19.865  0.00  0.00    +0.000 A 
ATOM      3  C   UNL     1      -2.894  11.907  18.721  0.00  0.00    +0.000 A 
ATOM      4  C   UNL     1      -2.505  10.719  18.082  0.00  0.00    +0.000 A 
ATOM      5  C   UNL     1      -3.295  10.232  16.902  0.00  0.00    +0.000 C 
ATOM      6  N   UNL     1      -1.460   9.938  18.467  0.00  0.00    +0.000 NA
ATOM      7  C   UNL     1      -0.778  10.404  19.547  0.00  0.00    +0.000 A 
ATOM      8  C   UNL     1       0.359   9.934  20.296  0.00  0.00    +0.000 A 
ATOM      9  N   UNL     1       0.658  10.790  21.305  0.00  0.00    +0.000 NA
ATOM     10  N   UNL     1      -0.311  11.711  21.229  0.00  0.00    +0.000 N 
ATOM     11  C   UNL     1      -1.157  11.548  20.187  0.00  0.00    +0.000 A 
ATOM     12  C   UNL     1      -0.504  12.826  22.143  0.00  0.00    +0.000 C 
ATOM     13  C   UNL     1      -1.341  13.944  21.433  0.00  0.00    +0.000 C 
ENDROOT
BRANCH   8  14
ATOM     14  C   UNL     1       1.127   8.715  20.019  0.00  0.00    +0.000 A 
ATOM     15  C   UNL     1       1.138   7.702  21.002  0.00  0.00    +0.000 A 
ATOM     16  C   UNL     1       1.901   6.541  20.851  0.00  0.00    +0.000 A 
ATOM     17  C   UNL     1       2.656   6.368  19.701  0.00  0.00    +0.000 A 
ATOM     18 CL   UNL     1       3.614   4.951  19.517  0.00  0.00    +0.000 Cl
ATOM     19  C   UNL     1       2.652   7.338  18.704  0.00  0.00    +0.000 A 
ATOM     20  C   UNL     1       1.897   8.511  18.859  0.00  0.00    +0.000 A 
ATOM     21 CL   UNL     1       2.041   9.673  17.581  0.00  0.00    +0.000 Cl
ENDBRANCH   8  14
BRANCH  13  22
ATOM     22  C   UNL     1      -1.669  15.112  22.377  0.00  0.00    +0.000 C 
ATOM     23  C   UNL     1      -1.303  16.477  21.803  0.00  0.00    +0.000 C 
ENDBRANCH  13  22
BRANCH   1  24
ATOM     24  C   UNL     1      -3.920  13.839  20.924  0.00  0.00    +0.000 C 
BRANCH  24  25
ATOM     25  C   UNL     1      -4.769  12.912  21.816  0.00  0.00    +0.000 C 
BRANCH  25  27
ATOM     26  C   UNL     1      -3.787  12.382  24.064  0.00  0.00    +0.000 C 
ATOM     27  C   UNL     1      -4.703  13.315  23.286  0.00  0.00    +0.000 C 
ENDBRANCH  25  27
ENDBRANCH  24  25
ENDBRANCH   1  24
TORSDOF 5
ENDMDL
MODEL 9
REMARK VINA RESULT:      -6.2      4.201      8.389
REMARK  Name = 
REMARK  8 active torsions:
REMARK  status: ('A' for Active; 'I' for Inactive)
REMARK    1  A    between atoms: C_1  and  C_2
REMARK    2  A    between atoms: C_2  and  C_3
REMARK    3  A    between atoms: C_3  and  C_4
REMARK    4  A    between atoms: C_4  and  N_5
REMARK    5  A    between atoms: C_8  and  C_9
REMARK    6  A    between atoms: C_12  and  C_13
REMARK    7  A    between atoms: C_25  and  C_26
REMARK    8  A    between atoms: C_26  and  C_27
REMARK                            x       y       z     vdW  Elec       q    Type
REMARK                         _______ _______ _______ _____ _____    ______ ____
ROOT
ATOM      1  N   UNL     1      -4.134  12.561  19.566  0.00  0.00    +0.000 N 
ATOM      2  C   UNL     1      -3.403  11.790  18.685  0.00  0.00    +0.000 A 
ATOM      3  C   UNL     1      -3.714  11.374  17.400  0.00  0.00    +0.000 A 
ATOM      4  C   UNL     1      -2.893  10.450  16.734  0.00  0.00    +0.000 A 
ATOM      5  C   UNL     1      -3.308   9.946  15.383  0.00  0.00    +0.000 C 
ATOM      6  N   UNL     1      -1.736   9.940  17.234  0.00  0.00    +0.000 NA
ATOM      7  C   UNL     1      -1.400  10.408  18.466  0.00  0.00    +0.000 A 
ATOM      8  C   UNL     1      -0.306  10.164  19.370  0.00  0.00    +0.000 A 
ATOM      9  N   UNL     1      -0.437  10.907  20.497  0.00  0.00    +0.000 NA
ATOM     10  N   UNL     1      -1.613  11.525  20.326  0.00  0.00    +0.000 N 
ATOM     11  C   UNL     1      -2.199  11.292  19.130  0.00  0.00    +0.000 A 
ATOM     12  C   UNL     1      -2.270  12.392  21.292  0.00  0.00    +0.000 C 
ATOM     13  C   UNL     1      -3.281  13.329  20.547  0.00  0.00    +0.000 C 
ENDROOT
BRANCH   8  14
ATOM     14  C   UNL     1       0.824   9.260  19.127  0.00  0.00    +0.000 A 
ATOM     15  C   UNL     1       1.534   9.399  17.914  0.00  0.00    +0.000 A 
ATOM     16  C   UNL     1       2.576   8.535  17.571  0.00  0.00    +0.000 A 
ATOM     17  C   UNL     1       2.937   7.522  18.447  0.00  0.00    +0.000 A 
ATOM     18 CL   UNL     1       4.206   6.440  18.022  0.00  0.00    +0.000 Cl
ATOM     19  C   UNL     1       2.271   7.370  19.659  0.00  0.00    +0.000 A 
ATOM     20  C   UNL     1       1.215   8.229  20.000  0.00  0.00    +0.000 A 
ATOM     21 CL   UNL     1       0.419   7.882  21.500  0.00  0.00    +0.000 Cl
ENDBRANCH   8  14
BRANCH  13  22
ATOM     22  C   UNL     1      -4.086  14.205  21.521  0.00  0.00    +0.000 C 
ATOM     23  C   UNL     1      -4.503  13.474  22.793  0.00  0.00    +0.000 C 
ENDBRANCH  13  22
BRANCH   1  24
ATOM     24  C   UNL     1      -5.599  12.593  19.544  0.00  0.00    +0.000 C 
BRANCH  24  25
ATOM     25  C   UNL     1      -6.186  13.770  18.739  0.00  0.00    +0.000 C 
BRANCH  25  27
ATOM     26  C   UNL     1      -7.040  14.443  16.478  0.00  0.00    +0.000 C 
ATOM     27  C   UNL     1      -6.888  13.299  17.469  0.00  0.00    +0.000 C 
ENDBRANCH  25  27
ENDBRANCH  24  25
ENDBRANCH   1  24
TORSDOF 5
ENDMDL
