MODEL 1
REMARK VINA RESULT:      -9.2      0.000      0.000
REMARK  Name = 
REMARK  12 active torsions:
REMARK  status: ('A' for Active; 'I' for Inactive)
REMARK    1  A    between atoms: C_2  and  C_3
REMARK    2  A    between atoms: C_4  and  C_5
REMARK    3  A    between atoms: C_9  and  O_10
REMARK    4  A    between atoms: O_10  and  C_11
REMARK    5  A    between atoms: C_11  and  C_12
REMARK    6  A    between atoms: C_12  and  C_13
REMARK    7  A    between atoms: C_12  and  N_23
REMARK    8  A    between atoms: C_13  and  C_14
REMARK    9  A    between atoms: C_24  and  C_26
REMARK   10  A    between atoms: C_26  and  C_27
REMARK   11  A    between atoms: C_27  and  C_28
REMARK   12  A    between atoms: N_35  and  O_36
REMARK                            x       y       z     vdW  Elec       q    Type
REMARK                         _______ _______ _______ _____ _____    ______ ____
ROOT
ATOM      1  C   UNL     1       4.737   6.872  16.638  0.00  0.00    +0.000 C 
ENDROOT
BRANCH   1   2
ATOM      2  N   UNL     1       5.784   7.415  17.516  0.00  0.00    +0.000 N 
ATOM      3  C   UNL     1       7.141   7.269  17.252  0.00  0.00    +0.000 C 
ATOM      4  O   UNL     1       7.544   6.622  16.282  0.00  0.00    +0.000 OA
ATOM      5  H   UNL     1       5.478   7.973  18.298  0.00  0.00    +0.000 HD
BRANCH   3   6
ATOM      6  C   UNL     1       8.088   8.044  18.123  0.00  0.00    +0.000 C 
BRANCH   6   7
ATOM      7  C   UNL     1       8.056   9.568  18.000  0.00  0.00    +0.000 C 
BRANCH   7   8
ATOM      8  C   UNL     1       9.175  10.329  18.673  0.00  0.00    +0.000 A 
ATOM      9  C   UNL     1       9.281  10.457  20.062  0.00  0.00    +0.000 A 
ATOM     10  C   UNL     1      10.256  11.284  20.625  0.00  0.00    +0.000 A 
ATOM     11  C   UNL     1      11.137  11.990  19.810  0.00  0.00    +0.000 A 
ATOM     12  C   UNL     1      11.093  11.810  18.433  0.00  0.00    +0.000 A 
ATOM     13  C   UNL     1      10.148  10.947  17.874  0.00  0.00    +0.000 A 
ENDBRANCH   7   8
ENDBRANCH   6   7
ENDBRANCH   3   6
ENDBRANCH   1   2
BRANCH   1  14
ATOM     14  C   UNL     1       3.356   7.508  16.937  0.00  0.00    +0.000 C 
BRANCH  14  15
ATOM     15  O   UNL     1       3.085   7.432  18.352  0.00  0.00    +0.000 OA
BRANCH  15  20
ATOM     16  C   UNL     1       0.047   9.552  18.742  0.00  0.00    +0.000 A 
ATOM     17  C   UNL     1       0.020   9.641  20.133  0.00  0.00    +0.000 A 
ATOM     18  C   UNL     1       0.988   8.988  20.889  0.00  0.00    +0.000 A 
ATOM     19  C   UNL     1       1.998   8.259  20.252  0.00  0.00    +0.000 A 
ATOM     20  C   UNL     1       2.051   8.182  18.855  0.00  0.00    +0.000 A 
ATOM     21  C   UNL     1       1.079   8.840  18.103  0.00  0.00    +0.000 A 
BRANCH  16  23
ATOM     22  C   UNL     1      -1.673   9.670  16.990  0.00  0.00    +0.000 C 
ATOM     23  C   UNL     1      -0.953  10.264  17.957  0.00  0.00    +0.000 C 
BRANCH  22  25
ATOM     24  O   UNL     1      -2.606  10.674  15.034  0.00  0.00    +0.000 OA
ATOM     25  C   UNL     1      -2.689  10.442  16.235  0.00  0.00    +0.000 C 
ATOM     26  N   UNL     1      -3.730  10.886  17.002  0.00  0.00    +0.000 N 
ATOM     27  H   UNL     1      -3.825  10.762  18.002  0.00  0.00    +0.000 HD
BRANCH  26  28
ATOM     28  O   UNL     1      -4.703  11.681  16.358  0.00  0.00    +0.000 OA
ATOM     29  H   UNL     1      -4.285  11.861  15.487  0.00  0.00    +0.000 HD
ENDBRANCH  26  28
ENDBRANCH  22  25
ENDBRANCH  16  23
ENDBRANCH  15  20
ENDBRANCH  14  15
ENDBRANCH   1  14
BRANCH   1  30
ATOM     30  C   UNL     1       4.746   5.324  16.592  0.00  0.00    +0.000 C 
BRANCH  30  31
ATOM     31  C   UNL     1       4.556   4.508  17.851  0.00  0.00    +0.000 A 
ATOM     32  C   UNL     1       5.545   4.410  18.818  0.00  0.00    +0.000 A 
ATOM     33  N   UNL     1       5.224   3.319  19.569  0.00  0.00    +0.000 N 
ATOM     34  C   UNL     1       3.864   3.348  19.714  0.00  0.00    +0.000 A 
ATOM     35  C   UNL     1       3.057   2.824  20.728  0.00  0.00    +0.000 A 
ATOM     36  C   UNL     1       1.692   3.073  20.636  0.00  0.00    +0.000 A 
ATOM     37  C   UNL     1       1.172   3.731  19.524  0.00  0.00    +0.000 A 
ATOM     38  C   UNL     1       2.009   4.170  18.477  0.00  0.00    +0.000 A 
ATOM     39  C   UNL     1       3.400   4.028  18.581  0.00  0.00    +0.000 A 
ATOM     40  H   UNL     1       5.742   2.453  19.555  0.00  0.00    +0.000 HD
ENDBRANCH  30  31
ENDBRANCH   1  30
TORSDOF 12
ENDMDL
MODEL 2
REMARK VINA RESULT:      -8.7      2.262      2.659
REMARK  Name = 
REMARK  12 active torsions:
REMARK  status: ('A' for Active; 'I' for Inactive)
REMARK    1  A    between atoms: C_2  and  C_3
REMARK    2  A    between atoms: C_4  and  C_5
REMARK    3  A    between atoms: C_9  and  O_10
REMARK    4  A    between atoms: O_10  and  C_11
REMARK    5  A    between atoms: C_11  and  C_12
REMARK    6  A    between atoms: C_12  and  C_13
REMARK    7  A    between atoms: C_12  and  N_23
REMARK    8  A    between atoms: C_13  and  C_14
REMARK    9  A    between atoms: C_24  and  C_26
REMARK   10  A    between atoms: C_26  and  C_27
REMARK   11  A    between atoms: C_27  and  C_28
REMARK   12  A    between atoms: N_35  and  O_36
REMARK                            x       y       z     vdW  Elec       q    Type
REMARK                         _______ _______ _______ _____ _____    ______ ____
ROOT
ATOM      1  C   UNL     1       4.798   5.900  17.172  0.00  0.00    +0.000 C 
ENDROOT
BRANCH   1   2
ATOM      2  N   UNL     1       5.813   6.662  17.913  0.00  0.00    +0.000 N 
ATOM      3  C   UNL     1       7.092   6.893  17.422  0.00  0.00    +0.000 C 
ATOM      4  O   UNL     1       7.466   6.420  16.345  0.00  0.00    +0.000 OA
ATOM      5  H   UNL     1       5.521   7.083  18.781  0.00  0.00    +0.000 HD
BRANCH   3   6
ATOM      6  C   UNL     1       7.953   7.852  18.195  0.00  0.00    +0.000 C 
BRANCH   6   7
ATOM      7  C   UNL     1       7.961   9.308  17.727  0.00  0.00    +0.000 C 
BRANCH   7   8
ATOM      8  C   UNL     1       8.974  10.225  18.375  0.00  0.00    +0.000 A 
ATOM      9  C   UNL     1       9.893  10.984  17.644  0.00  0.00    +0.000 A 
ATOM     10  C   UNL     1      10.893  11.707  18.297  0.00  0.00    +0.000 A 
ATOM     11  C   UNL     1      10.987  11.684  19.686  0.00  0.00    +0.000 A 
ATOM     12  C   UNL     1      10.032  10.998  20.427  0.00  0.00    +0.000 A 
ATOM     13  C   UNL     1       9.005  10.313  19.775  0.00  0.00    +0.000 A 
ENDBRANCH   7   8
ENDBRANCH   6   7
ENDBRANCH   3   6
ENDBRANCH   1   2
BRANCH   1  14
ATOM     14  C   UNL     1       3.369   6.426  17.456  0.00  0.00    +0.000 C 
BRANCH  14  15
ATOM     15  O   UNL     1       3.362   7.867  17.383  0.00  0.00    +0.000 OA
BRANCH  15  20
ATOM     16  C   UNL     1       1.210  10.445  18.995  0.00  0.00    +0.000 A 
ATOM     17  C   UNL     1       0.830   9.732  20.132  0.00  0.00    +0.000 A 
ATOM     18  C   UNL     1       1.278   8.429  20.316  0.00  0.00    +0.000 A 
ATOM     19  C   UNL     1       2.127   7.842  19.371  0.00  0.00    +0.000 A 
ATOM     20  C   UNL     1       2.536   8.555  18.237  0.00  0.00    +0.000 A 
ATOM     21  C   UNL     1       2.084   9.862  18.060  0.00  0.00    +0.000 A 
BRANCH  16  23
ATOM     22  C   UNL     1       0.094  12.489  19.784  0.00  0.00    +0.000 C 
ATOM     23  C   UNL     1       0.759  11.820  18.826  0.00  0.00    +0.000 C 
BRANCH  22  25
ATOM     24  O   UNL     1      -1.380  14.357  19.979  0.00  0.00    +0.000 OA
ATOM     25  C   UNL     1      -0.325  13.893  19.561  0.00  0.00    +0.000 C 
ATOM     26  N   UNL     1       0.568  14.629  18.833  0.00  0.00    +0.000 N 
ATOM     27  H   UNL     1       1.429  14.285  18.427  0.00  0.00    +0.000 HD
BRANCH  26  28
ATOM     28  O   UNL     1       0.202  15.959  18.531  0.00  0.00    +0.000 OA
ATOM     29  H   UNL     1       0.903  16.478  18.984  0.00  0.00    +0.000 HD
ENDBRANCH  26  28
ENDBRANCH  22  25
ENDBRANCH  16  23
ENDBRANCH  15  20
ENDBRANCH  14  15
ENDBRANCH   1  14
BRANCH   1  30
ATOM     30  C   UNL     1       4.973   4.369  17.330  0.00  0.00    +0.000 C 
BRANCH  30  31
ATOM     31  C   UNL     1       3.868   3.516  17.911  0.00  0.00    +0.000 A 
ATOM     32  C   UNL     1       3.729   2.175  17.586  0.00  0.00    +0.000 A 
ATOM     33  N   UNL     1       2.455   1.839  17.932  0.00  0.00    +0.000 N 
ATOM     34  C   UNL     1       2.204   2.480  19.115  0.00  0.00    +0.000 A 
ATOM     35  C   UNL     1       1.323   2.147  20.148  0.00  0.00    +0.000 A 
ATOM     36  C   UNL     1       1.337   2.964  21.272  0.00  0.00    +0.000 A 
ATOM     37  C   UNL     1       2.130   4.109  21.298  0.00  0.00    +0.000 A 
ATOM     38  C   UNL     1       2.942   4.460  20.201  0.00  0.00    +0.000 A 
ATOM     39  C   UNL     1       3.032   3.608  19.090  0.00  0.00    +0.000 A 
ATOM     40  H   UNL     1       1.722   1.641  17.266  0.00  0.00    +0.000 HD
ENDBRANCH  30  31
ENDBRANCH   1  30
TORSDOF 12
ENDMDL
MODEL 3
REMARK VINA RESULT:      -8.7      3.228      3.446
REMARK  Name = 
REMARK  12 active torsions:
REMARK  status: ('A' for Active; 'I' for Inactive)
REMARK    1  A    between atoms: C_2  and  C_3
REMARK    2  A    between atoms: C_4  and  C_5
REMARK    3  A    between atoms: C_9  and  O_10
REMARK    4  A    between atoms: O_10  and  C_11
REMARK    5  A    between atoms: C_11  and  C_12
REMARK    6  A    between atoms: C_12  and  C_13
REMARK    7  A    between atoms: C_12  and  N_23
REMARK    8  A    between atoms: C_13  and  C_14
REMARK    9  A    between atoms: C_24  and  C_26
REMARK   10  A    between atoms: C_26  and  C_27
REMARK   11  A    between atoms: C_27  and  C_28
REMARK   12  A    between atoms: N_35  and  O_36
REMARK                            x       y       z     vdW  Elec       q    Type
REMARK                         _______ _______ _______ _____ _____    ______ ____
ROOT
ATOM      1  C   UNL     1       4.232   6.918  17.260  0.00  0.00    +0.000 C 
ENDROOT
BRANCH   1   2
ATOM      2  N   UNL     1       5.468   7.386  17.903  0.00  0.00    +0.000 N 
ATOM      3  C   UNL     1       6.722   7.252  17.316  0.00  0.00    +0.000 C 
ATOM      4  O   UNL     1       6.871   6.679  16.234  0.00  0.00    +0.000 OA
ATOM      5  H   UNL     1       5.368   7.884  18.773  0.00  0.00    +0.000 HD
BRANCH   3   6
ATOM      6  C   UNL     1       7.865   7.951  17.994  0.00  0.00    +0.000 C 
BRANCH   6   7
ATOM      7  C   UNL     1       8.215   9.355  17.495  0.00  0.00    +0.000 C 
BRANCH   7   8
ATOM      8  C   UNL     1       9.068  10.208  18.406  0.00  0.00    +0.000 A 
ATOM      9  C   UNL     1       9.030  10.108  19.800  0.00  0.00    +0.000 A 
ATOM     10  C   UNL     1       9.737  11.013  20.595  0.00  0.00    +0.000 A 
ATOM     11  C   UNL     1      10.490  12.026  20.009  0.00  0.00    +0.000 A 
ATOM     12  C   UNL     1      10.599  12.088  18.625  0.00  0.00    +0.000 A 
ATOM     13  C   UNL     1       9.929  11.154  17.833  0.00  0.00    +0.000 A 
ENDBRANCH   7   8
ENDBRANCH   6   7
ENDBRANCH   3   6
ENDBRANCH   1   2
BRANCH   1  14
ATOM     14  C   UNL     1       2.974   7.487  17.963  0.00  0.00    +0.000 C 
BRANCH  14  15
ATOM     15  O   UNL     1       2.499   8.642  17.241  0.00  0.00    +0.000 OA
BRANCH  15  20
ATOM     16  C   UNL     1       1.894  12.057  18.601  0.00  0.00    +0.000 A 
ATOM     17  C   UNL     1       0.937  11.741  19.565  0.00  0.00    +0.000 A 
ATOM     18  C   UNL     1       0.514  10.426  19.719  0.00  0.00    +0.000 A 
ATOM     19  C   UNL     1       1.064   9.417  18.920  0.00  0.00    +0.000 A 
ATOM     20  C   UNL     1       2.044   9.717  17.965  0.00  0.00    +0.000 A 
ATOM     21  C   UNL     1       2.465  11.038  17.817  0.00  0.00    +0.000 A 
BRANCH  16  23
ATOM     22  C   UNL     1       1.684  14.475  18.993  0.00  0.00    +0.000 C 
ATOM     23  C   UNL     1       2.353  13.433  18.468  0.00  0.00    +0.000 C 
BRANCH  22  25
ATOM     24  O   UNL     1       1.778  16.651  18.014  0.00  0.00    +0.000 OA
ATOM     25  C   UNL     1       2.208  15.853  18.840  0.00  0.00    +0.000 C 
ATOM     26  N   UNL     1       3.228  16.156  19.698  0.00  0.00    +0.000 N 
ATOM     27  H   UNL     1       3.650  15.522  20.365  0.00  0.00    +0.000 HD
BRANCH  26  28
ATOM     28  O   UNL     1       3.816  17.433  19.564  0.00  0.00    +0.000 OA
ATOM     29  H   UNL     1       3.240  17.990  20.134  0.00  0.00    +0.000 HD
ENDBRANCH  26  28
ENDBRANCH  22  25
ENDBRANCH  16  23
ENDBRANCH  15  20
ENDBRANCH  14  15
ENDBRANCH   1  14
BRANCH   1  30
ATOM     30  C   UNL     1       4.221   5.385  17.041  0.00  0.00    +0.000 C 
BRANCH  30  31
ATOM     31  C   UNL     1       4.115   4.434  18.211  0.00  0.00    +0.000 A 
ATOM     32  C   UNL     1       5.219   4.085  18.975  0.00  0.00    +0.000 A 
ATOM     33  N   UNL     1       4.868   2.949  19.639  0.00  0.00    +0.000 N 
ATOM     34  C   UNL     1       3.565   3.122  20.020  0.00  0.00    +0.000 A 
ATOM     35  C   UNL     1       2.861   2.566  21.091  0.00  0.00    +0.000 A 
ATOM     36  C   UNL     1       1.548   2.989  21.266  0.00  0.00    +0.000 A 
ATOM     37  C   UNL     1       0.960   3.851  20.345  0.00  0.00    +0.000 A 
ATOM     38  C   UNL     1       1.676   4.325  19.226  0.00  0.00    +0.000 A 
ATOM     39  C   UNL     1       3.032   4.002  19.070  0.00  0.00    +0.000 A 
ATOM     40  H   UNL     1       5.249   2.036  19.436  0.00  0.00    +0.000 HD
ENDBRANCH  30  31
ENDBRANCH   1  30
TORSDOF 12
ENDMDL
MODEL 4
REMARK VINA RESULT:      -8.6      2.302      2.514
REMARK  Name = 
REMARK  12 active torsions:
REMARK  status: ('A' for Active; 'I' for Inactive)
REMARK    1  A    between atoms: C_2  and  C_3
REMARK    2  A    between atoms: C_4  and  C_5
REMARK    3  A    between atoms: C_9  and  O_10
REMARK    4  A    between atoms: O_10  and  C_11
REMARK    5  A    between atoms: C_11  and  C_12
REMARK    6  A    between atoms: C_12  and  C_13
REMARK    7  A    between atoms: C_12  and  N_23
REMARK    8  A    between atoms: C_13  and  C_14
REMARK    9  A    between atoms: C_24  and  C_26
REMARK   10  A    between atoms: C_26  and  C_27
REMARK   11  A    between atoms: C_27  and  C_28
REMARK   12  A    between atoms: N_35  and  O_36
REMARK                            x       y       z     vdW  Elec       q    Type
REMARK                         _______ _______ _______ _____ _____    ______ ____
ROOT
ATOM      1  C   UNL     1       4.687   5.974  17.222  0.00  0.00    +0.000 C 
ENDROOT
BRANCH   1   2
ATOM      2  N   UNL     1       5.766   6.690  17.919  0.00  0.00    +0.000 N 
ATOM      3  C   UNL     1       7.037   6.851  17.380  0.00  0.00    +0.000 C 
ATOM      4  O   UNL     1       7.347   6.350  16.296  0.00  0.00    +0.000 OA
ATOM      5  H   UNL     1       5.528   7.133  18.792  0.00  0.00    +0.000 HD
BRANCH   3   6
ATOM      6  C   UNL     1       7.972   7.771  18.112  0.00  0.00    +0.000 C 
BRANCH   6   7
ATOM      7  C   UNL     1       8.309   9.100  17.435  0.00  0.00    +0.000 C 
BRANCH   7   8
ATOM      8  C   UNL     1       8.778  10.222  18.333  0.00  0.00    +0.000 A 
ATOM      9  C   UNL     1       9.231  10.013  19.639  0.00  0.00    +0.000 A 
ATOM     10  C   UNL     1       9.523  11.097  20.471  0.00  0.00    +0.000 A 
ATOM     11  C   UNL     1       9.369  12.401  20.008  0.00  0.00    +0.000 A 
ATOM     12  C   UNL     1       8.995  12.621  18.687  0.00  0.00    +0.000 A 
ATOM     13  C   UNL     1       8.749  11.536  17.844  0.00  0.00    +0.000 A 
ENDBRANCH   7   8
ENDBRANCH   6   7
ENDBRANCH   3   6
ENDBRANCH   1   2
BRANCH   1  14
ATOM     14  C   UNL     1       3.293   6.518  17.620  0.00  0.00    +0.000 C 
BRANCH  14  15
ATOM     15  O   UNL     1       3.263   7.949  17.440  0.00  0.00    +0.000 OA
BRANCH  15  20
ATOM     16  C   UNL     1       1.114  10.623  18.892  0.00  0.00    +0.000 A 
ATOM     17  C   UNL     1       0.716   9.972  20.061  0.00  0.00    +0.000 A 
ATOM     18  C   UNL     1       1.153   8.678  20.317  0.00  0.00    +0.000 A 
ATOM     19  C   UNL     1       2.007   8.036  19.413  0.00  0.00    +0.000 A 
ATOM     20  C   UNL     1       2.433   8.687  18.248  0.00  0.00    +0.000 A 
ATOM     21  C   UNL     1       1.993   9.986  17.998  0.00  0.00    +0.000 A 
BRANCH  16  23
ATOM     22  C   UNL     1       0.239  12.799  19.628  0.00  0.00    +0.000 C 
ATOM     23  C   UNL     1       0.675  11.990  18.647  0.00  0.00    +0.000 C 
BRANCH  22  25
ATOM     24  O   UNL     1       0.527  14.988  18.717  0.00  0.00    +0.000 OA
ATOM     25  C   UNL     1      -0.179  14.188  19.321  0.00  0.00    +0.000 C 
ATOM     26  N   UNL     1      -1.426  14.506  19.783  0.00  0.00    +0.000 N 
ATOM     27  H   UNL     1      -2.030  13.901  20.325  0.00  0.00    +0.000 HD
BRANCH  26  28
ATOM     28  O   UNL     1      -1.863  15.833  19.578  0.00  0.00    +0.000 OA
ATOM     29  H   UNL     1      -2.801  15.707  19.314  0.00  0.00    +0.000 HD
ENDBRANCH  26  28
ENDBRANCH  22  25
ENDBRANCH  16  23
ENDBRANCH  15  20
ENDBRANCH  14  15
ENDBRANCH   1  14
BRANCH   1  30
ATOM     30  C   UNL     1       4.840   4.436  17.315  0.00  0.00    +0.000 C 
BRANCH  30  31
ATOM     31  C   UNL     1       3.769   3.587  17.961  0.00  0.00    +0.000 A 
ATOM     32  C   UNL     1       3.608   2.245  17.649  0.00  0.00    +0.000 A 
ATOM     33  N   UNL     1       2.356   1.913  18.069  0.00  0.00    +0.000 N 
ATOM     34  C   UNL     1       2.175   2.557  19.263  0.00  0.00    +0.000 A 
ATOM     35  C   UNL     1       1.355   2.228  20.346  0.00  0.00    +0.000 A 
ATOM     36  C   UNL     1       1.436   3.048  21.466  0.00  0.00    +0.000 A 
ATOM     37  C   UNL     1       2.231   4.192  21.443  0.00  0.00    +0.000 A 
ATOM     38  C   UNL     1       2.979   4.538  20.299  0.00  0.00    +0.000 A 
ATOM     39  C   UNL     1       3.003   3.684  19.187  0.00  0.00    +0.000 A 
ATOM     40  H   UNL     1       1.585   1.715  17.447  0.00  0.00    +0.000 HD
ENDBRANCH  30  31
ENDBRANCH   1  30
TORSDOF 12
ENDMDL
MODEL 5
REMARK VINA RESULT:      -8.6      4.178      9.409
REMARK  Name = 
REMARK  12 active torsions:
REMARK  status: ('A' for Active; 'I' for Inactive)
REMARK    1  A    between atoms: C_2  and  C_3
REMARK    2  A    between atoms: C_4  and  C_5
REMARK    3  A    between atoms: C_9  and  O_10
REMARK    4  A    between atoms: O_10  and  C_11
REMARK    5  A    between atoms: C_11  and  C_12
REMARK    6  A    between atoms: C_12  and  C_13
REMARK    7  A    between atoms: C_12  and  N_23
REMARK    8  A    between atoms: C_13  and  C_14
REMARK    9  A    between atoms: C_24  and  C_26
REMARK   10  A    between atoms: C_26  and  C_27
REMARK   11  A    between atoms: C_27  and  C_28
REMARK   12  A    between atoms: N_35  and  O_36
REMARK                            x       y       z     vdW  Elec       q    Type
REMARK                         _______ _______ _______ _____ _____    ______ ____
ROOT
ATOM      1  C   UNL     1       0.768  10.516  18.930  0.00  0.00    +0.000 C 
ENDROOT
BRANCH   1   2
ATOM      2  N   UNL     1       1.366   9.240  19.349  0.00  0.00    +0.000 N 
ATOM      3  C   UNL     1       2.042   8.399  18.472  0.00  0.00    +0.000 C 
ATOM      4  O   UNL     1       2.132   8.657  17.270  0.00  0.00    +0.000 OA
ATOM      5  H   UNL     1       1.331   9.023  20.333  0.00  0.00    +0.000 HD
BRANCH   3   6
ATOM      6  C   UNL     1       2.769   7.232  19.078  0.00  0.00    +0.000 C 
BRANCH   6   7
ATOM      7  C   UNL     1       3.044   6.036  18.165  0.00  0.00    +0.000 C 
BRANCH   7   8
ATOM      8  C   UNL     1       2.404   4.723  18.553  0.00  0.00    +0.000 A 
ATOM      9  C   UNL     1       2.510   3.565  17.776  0.00  0.00    +0.000 A 
ATOM     10  C   UNL     1       1.786   2.418  18.111  0.00  0.00    +0.000 A 
ATOM     11  C   UNL     1       0.952   2.412  19.226  0.00  0.00    +0.000 A 
ATOM     12  C   UNL     1       0.899   3.530  20.050  0.00  0.00    +0.000 A 
ATOM     13  C   UNL     1       1.659   4.660  19.739  0.00  0.00    +0.000 A 
ENDBRANCH   7   8
ENDBRANCH   6   7
ENDBRANCH   3   6
ENDBRANCH   1   2
BRANCH   1  14
ATOM     14  C   UNL     1       1.833  11.634  18.813  0.00  0.00    +0.000 C 
BRANCH  14  15
ATOM     15  O   UNL     1       1.184  12.892  18.531  0.00  0.00    +0.000 OA
BRANCH  15  20
ATOM     16  C   UNL     1       3.973  15.361  18.556  0.00  0.00    +0.000 A 
ATOM     17  C   UNL     1       3.234  16.523  18.774  0.00  0.00    +0.000 A 
ATOM     18  C   UNL     1       1.849  16.454  18.885  0.00  0.00    +0.000 A 
ATOM     19  C   UNL     1       1.202  15.216  18.799  0.00  0.00    +0.000 A 
ATOM     20  C   UNL     1       1.935  14.039  18.605  0.00  0.00    +0.000 A 
ATOM     21  C   UNL     1       3.323  14.115  18.496  0.00  0.00    +0.000 A 
BRANCH  16  23
ATOM     22  C   UNL     1       6.161  14.546  17.786  0.00  0.00    +0.000 C 
ATOM     23  C   UNL     1       5.425  15.439  18.471  0.00  0.00    +0.000 C 
BRANCH  22  25
ATOM     24  O   UNL     1       8.226  15.732  17.968  0.00  0.00    +0.000 OA
ATOM     25  C   UNL     1       7.635  14.686  17.722  0.00  0.00    +0.000 C 
ATOM     26  N   UNL     1       8.285  13.542  17.348  0.00  0.00    +0.000 N 
ATOM     27  H   UNL     1       7.845  12.668  17.089  0.00  0.00    +0.000 HD
BRANCH  26  28
ATOM     28  O   UNL     1       9.687  13.622  17.206  0.00  0.00    +0.000 OA
ATOM     29  H   UNL     1       9.866  12.953  16.508  0.00  0.00    +0.000 HD
ENDBRANCH  26  28
ENDBRANCH  22  25
ENDBRANCH  16  23
ENDBRANCH  15  20
ENDBRANCH  14  15
ENDBRANCH   1  14
BRANCH   1  30
ATOM     30  C   UNL     1      -0.480  10.889  19.768  0.00  0.00    +0.000 C 
BRANCH  30  31
ATOM     31  C   UNL     1      -1.800  11.200  19.099  0.00  0.00    +0.000 A 
ATOM     32  C   UNL     1      -2.525  12.342  19.403  0.00  0.00    +0.000 A 
ATOM     33  N   UNL     1      -3.792  12.108  18.959  0.00  0.00    +0.000 N 
ATOM     34  C   UNL     1      -3.657  11.453  17.765  0.00  0.00    +0.000 A 
ATOM     35  C   UNL     1      -4.519  11.404  16.666  0.00  0.00    +0.000 A 
ATOM     36  C   UNL     1      -4.075  10.703  15.551  0.00  0.00    +0.000 A 
ATOM     37  C   UNL     1      -2.867  10.010  15.593  0.00  0.00    +0.000 A 
ATOM     38  C   UNL     1      -2.064  10.012  16.752  0.00  0.00    +0.000 A 
ATOM     39  C   UNL     1      -2.428  10.790  17.860  0.00  0.00    +0.000 A 
ATOM     40  H   UNL     1      -4.584  11.954  19.566  0.00  0.00    +0.000 HD
ENDBRANCH  30  31
ENDBRANCH   1  30
TORSDOF 12
ENDMDL
MODEL 6
REMARK VINA RESULT:      -8.6      0.801      1.116
REMARK  Name = 
REMARK  12 active torsions:
REMARK  status: ('A' for Active; 'I' for Inactive)
REMARK    1  A    between atoms: C_2  and  C_3
REMARK    2  A    between atoms: C_4  and  C_5
REMARK    3  A    between atoms: C_9  and  O_10
REMARK    4  A    between atoms: O_10  and  C_11
REMARK    5  A    between atoms: C_11  and  C_12
REMARK    6  A    between atoms: C_12  and  C_13
REMARK    7  A    between atoms: C_12  and  N_23
REMARK    8  A    between atoms: C_13  and  C_14
REMARK    9  A    between atoms: C_24  and  C_26
REMARK   10  A    between atoms: C_26  and  C_27
REMARK   11  A    between atoms: C_27  and  C_28
REMARK   12  A    between atoms: N_35  and  O_36
REMARK                            x       y       z     vdW  Elec       q    Type
REMARK                         _______ _______ _______ _____ _____    ______ ____
ROOT
ATOM      1  C   UNL     1       4.661   6.850  17.015  0.00  0.00    +0.000 C 
ENDROOT
BRANCH   1   2
ATOM      2  N   UNL     1       5.757   7.786  17.302  0.00  0.00    +0.000 N 
ATOM      3  C   UNL     1       7.086   7.388  17.390  0.00  0.00    +0.000 C 
ATOM      4  O   UNL     1       7.415   6.204  17.282  0.00  0.00    +0.000 OA
ATOM      5  H   UNL     1       5.517   8.763  17.365  0.00  0.00    +0.000 HD
BRANCH   3   6
ATOM      6  C   UNL     1       8.115   8.478  17.490  0.00  0.00    +0.000 C 
BRANCH   6   7
ATOM      7  C   UNL     1       8.531   8.913  18.896  0.00  0.00    +0.000 C 
BRANCH   7   8
ATOM      8  C   UNL     1       9.242  10.242  19.015  0.00  0.00    +0.000 A 
ATOM      9  C   UNL     1       9.600  11.017  17.908  0.00  0.00    +0.000 A 
ATOM     10  C   UNL     1      10.375  12.168  18.068  0.00  0.00    +0.000 A 
ATOM     11  C   UNL     1      10.798  12.561  19.335  0.00  0.00    +0.000 A 
ATOM     12  C   UNL     1      10.382  11.845  20.451  0.00  0.00    +0.000 A 
ATOM     13  C   UNL     1       9.570  10.720  20.292  0.00  0.00    +0.000 A 
ENDBRANCH   7   8
ENDBRANCH   6   7
ENDBRANCH   3   6
ENDBRANCH   1   2
BRANCH   1  14
ATOM     14  C   UNL     1       3.436   7.109  17.928  0.00  0.00    +0.000 C 
BRANCH  14  15
ATOM     15  O   UNL     1       2.861   8.394  17.611  0.00  0.00    +0.000 OA
BRANCH  15  20
ATOM     16  C   UNL     1      -0.428   9.753  18.711  0.00  0.00    +0.000 A 
ATOM     17  C   UNL     1      -0.274   9.609  20.090  0.00  0.00    +0.000 A 
ATOM     18  C   UNL     1       0.894   9.055  20.604  0.00  0.00    +0.000 A 
ATOM     19  C   UNL     1       1.921   8.661  19.737  0.00  0.00    +0.000 A 
ATOM     20  C   UNL     1       1.788   8.824  18.353  0.00  0.00    +0.000 A 
ATOM     21  C   UNL     1       0.616   9.382  17.844  0.00  0.00    +0.000 A 
BRANCH  16  23
ATOM     22  C   UNL     1      -1.995  10.274  16.890  0.00  0.00    +0.000 C 
ATOM     23  C   UNL     1      -1.642  10.362  18.185  0.00  0.00    +0.000 C 
BRANCH  22  25
ATOM     24  O   UNL     1      -3.802  10.595  15.363  0.00  0.00    +0.000 OA
ATOM     25  C   UNL     1      -3.251  10.900  16.415  0.00  0.00    +0.000 C 
ATOM     26  N   UNL     1      -3.741  11.865  17.252  0.00  0.00    +0.000 N 
ATOM     27  H   UNL     1      -3.304  12.186  18.106  0.00  0.00    +0.000 HD
BRANCH  26  28
ATOM     28  O   UNL     1      -4.903  12.546  16.829  0.00  0.00    +0.000 OA
ATOM     29  H   UNL     1      -4.600  13.481  16.800  0.00  0.00    +0.000 HD
ENDBRANCH  26  28
ENDBRANCH  22  25
ENDBRANCH  16  23
ENDBRANCH  15  20
ENDBRANCH  14  15
ENDBRANCH   1  14
BRANCH   1  30
ATOM     30  C   UNL     1       5.137   5.377  16.962  0.00  0.00    +0.000 C 
BRANCH  30  31
ATOM     31  C   UNL     1       4.635   4.362  17.965  0.00  0.00    +0.000 A 
ATOM     32  C   UNL     1       5.290   4.132  19.165  0.00  0.00    +0.000 A 
ATOM     33  N   UNL     1       4.839   2.926  19.609  0.00  0.00    +0.000 N 
ATOM     34  C   UNL     1       3.500   2.898  19.328  0.00  0.00    +0.000 A 
ATOM     35  C   UNL     1       2.465   2.196  19.953  0.00  0.00    +0.000 A 
ATOM     36  C   UNL     1       1.178   2.424  19.481  0.00  0.00    +0.000 A 
ATOM     37  C   UNL     1       0.971   3.242  18.373  0.00  0.00    +0.000 A 
ATOM     38  C   UNL     1       2.050   3.866  17.714  0.00  0.00    +0.000 A 
ATOM     39  C   UNL     1       3.352   3.742  18.221  0.00  0.00    +0.000 A 
ATOM     40  H   UNL     1       5.398   2.085  19.628  0.00  0.00    +0.000 HD
ENDBRANCH  30  31
ENDBRANCH   1  30
TORSDOF 12
ENDMDL
MODEL 7
REMARK VINA RESULT:      -8.5      3.932     10.897
REMARK  Name = 
REMARK  12 active torsions:
REMARK  status: ('A' for Active; 'I' for Inactive)
REMARK    1  A    between atoms: C_2  and  C_3
REMARK    2  A    between atoms: C_4  and  C_5
REMARK    3  A    between atoms: C_9  and  O_10
REMARK    4  A    between atoms: O_10  and  C_11
REMARK    5  A    between atoms: C_11  and  C_12
REMARK    6  A    between atoms: C_12  and  C_13
REMARK    7  A    between atoms: C_12  and  N_23
REMARK    8  A    between atoms: C_13  and  C_14
REMARK    9  A    between atoms: C_24  and  C_26
REMARK   10  A    between atoms: C_26  and  C_27
REMARK   11  A    between atoms: C_27  and  C_28
REMARK   12  A    between atoms: N_35  and  O_36
REMARK                            x       y       z     vdW  Elec       q    Type
REMARK                         _______ _______ _______ _____ _____    ______ ____
ROOT
ATOM      1  C   UNL     1      -0.122  10.583  18.620  0.00  0.00    +0.000 C 
ENDROOT
BRANCH   1   2
ATOM      2  N   UNL     1      -1.550  10.236  18.591  0.00  0.00    +0.000 N 
ATOM      3  C   UNL     1      -2.465  10.869  17.757  0.00  0.00    +0.000 C 
ATOM      4  O   UNL     1      -2.132  11.804  17.025  0.00  0.00    +0.000 OA
ATOM      5  H   UNL     1      -1.840   9.455  19.158  0.00  0.00    +0.000 HD
BRANCH   3   6
ATOM      6  C   UNL     1      -3.844  10.277  17.691  0.00  0.00    +0.000 C 
BRANCH   6   7
ATOM      7  C   UNL     1      -4.989  11.223  17.324  0.00  0.00    +0.000 C 
BRANCH   7   8
ATOM      8  C   UNL     1      -5.708  11.897  18.470  0.00  0.00    +0.000 A 
ATOM      9  C   UNL     1      -5.887  11.293  19.718  0.00  0.00    +0.000 A 
ATOM     10  C   UNL     1      -6.676  11.904  20.695  0.00  0.00    +0.000 A 
ATOM     11  C   UNL     1      -7.293  13.125  20.439  0.00  0.00    +0.000 A 
ATOM     12  C   UNL     1      -7.059  13.774  19.233  0.00  0.00    +0.000 A 
ATOM     13  C   UNL     1      -6.232  13.183  18.275  0.00  0.00    +0.000 A 
ENDBRANCH   7   8
ENDBRANCH   6   7
ENDBRANCH   3   6
ENDBRANCH   1   2
BRANCH   1  14
ATOM     14  C   UNL     1       0.756   9.435  18.064  0.00  0.00    +0.000 C 
BRANCH  14  15
ATOM     15  O   UNL     1       1.623   8.942  19.108  0.00  0.00    +0.000 OA
BRANCH  15  20
ATOM     16  C   UNL     1       3.986   6.455  17.657  0.00  0.00    +0.000 A 
ATOM     17  C   UNL     1       3.794   5.415  18.567  0.00  0.00    +0.000 A 
ATOM     18  C   UNL     1       2.913   5.577  19.630  0.00  0.00    +0.000 A 
ATOM     19  C   UNL     1       2.204   6.775  19.774  0.00  0.00    +0.000 A 
ATOM     20  C   UNL     1       2.369   7.818  18.853  0.00  0.00    +0.000 A 
ATOM     21  C   UNL     1       3.253   7.648  17.788  0.00  0.00    +0.000 A 
BRANCH  16  23
ATOM     22  C   UNL     1       5.374   5.060  16.184  0.00  0.00    +0.000 C 
ATOM     23  C   UNL     1       4.889   6.265  16.530  0.00  0.00    +0.000 C 
BRANCH  22  25
ATOM     24  O   UNL     1       7.335   5.534  14.907  0.00  0.00    +0.000 OA
ATOM     25  C   UNL     1       6.277   4.925  15.016  0.00  0.00    +0.000 C 
ATOM     26  N   UNL     1       5.818   4.065  14.057  0.00  0.00    +0.000 N 
ATOM     27  H   UNL     1       4.933   3.573  14.075  0.00  0.00    +0.000 HD
BRANCH  26  28
ATOM     28  O   UNL     1       6.600   3.936  12.889  0.00  0.00    +0.000 OA
ATOM     29  H   UNL     1       7.076   3.090  13.046  0.00  0.00    +0.000 HD
ENDBRANCH  26  28
ENDBRANCH  22  25
ENDBRANCH  16  23
ENDBRANCH  15  20
ENDBRANCH  14  15
ENDBRANCH   1  14
BRANCH   1  30
ATOM     30  C   UNL     1       0.325  11.141  19.994  0.00  0.00    +0.000 C 
BRANCH  30  31
ATOM     31  C   UNL     1      -0.683  11.405  21.090  0.00  0.00    +0.000 A 
ATOM     32  C   UNL     1      -0.396  11.161  22.424  0.00  0.00    +0.000 A 
ATOM     33  N   UNL     1      -1.600  11.107  23.060  0.00  0.00    +0.000 N 
ATOM     34  C   UNL     1      -2.366  12.093  22.500  0.00  0.00    +0.000 A 
ATOM     35  C   UNL     1      -3.436  12.813  23.038  0.00  0.00    +0.000 A 
ATOM     36  C   UNL     1      -3.981  13.814  22.242  0.00  0.00    +0.000 A 
ATOM     37  C   UNL     1      -3.526  14.001  20.939  0.00  0.00    +0.000 A 
ATOM     38  C   UNL     1      -2.502  13.196  20.400  0.00  0.00    +0.000 A 
ATOM     39  C   UNL     1      -1.858  12.244  21.204  0.00  0.00    +0.000 A 
ATOM     40  H   UNL     1      -2.006  10.259  23.429  0.00  0.00    +0.000 HD
ENDBRANCH  30  31
ENDBRANCH   1  30
TORSDOF 12
ENDMDL
MODEL 8
REMARK VINA RESULT:      -8.4      4.225      7.233
REMARK  Name = 
REMARK  12 active torsions:
REMARK  status: ('A' for Active; 'I' for Inactive)
REMARK    1  A    between atoms: C_2  and  C_3
REMARK    2  A    between atoms: C_4  and  C_5
REMARK    3  A    between atoms: C_9  and  O_10
REMARK    4  A    between atoms: O_10  and  C_11
REMARK    5  A    between atoms: C_11  and  C_12
REMARK    6  A    between atoms: C_12  and  C_13
REMARK    7  A    between atoms: C_12  and  N_23
REMARK    8  A    between atoms: C_13  and  C_14
REMARK    9  A    between atoms: C_24  and  C_26
REMARK   10  A    between atoms: C_26  and  C_27
REMARK   11  A    between atoms: C_27  and  C_28
REMARK   12  A    between atoms: N_35  and  O_36
REMARK                            x       y       z     vdW  Elec       q    Type
REMARK                         _______ _______ _______ _____ _____    ______ ____
ROOT
ATOM      1  C   UNL     1       1.568   8.171  20.490  0.00  0.00    +0.000 C 
ENDROOT
BRANCH   1   2
ATOM      2  N   UNL     1       0.441   8.793  21.200  0.00  0.00    +0.000 N 
ATOM      3  C   UNL     1       0.588   9.475  22.402  0.00  0.00    +0.000 C 
ATOM      4  O   UNL     1       1.680   9.550  22.972  0.00  0.00    +0.000 OA
ATOM      5  H   UNL     1      -0.455   8.770  20.739  0.00  0.00    +0.000 HD
BRANCH   3   6
ATOM      6  C   UNL     1      -0.611  10.226  22.907  0.00  0.00    +0.000 C 
BRANCH   6   7
ATOM      7  C   UNL     1      -0.920  11.568  22.242  0.00  0.00    +0.000 C 
BRANCH   7   8
ATOM      8  C   UNL     1      -2.308  12.128  22.453  0.00  0.00    +0.000 A 
ATOM      9  C   UNL     1      -3.040  12.753  21.438  0.00  0.00    +0.000 A 
ATOM     10  C   UNL     1      -4.259  13.372  21.722  0.00  0.00    +0.000 A 
ATOM     11  C   UNL     1      -4.763  13.374  23.019  0.00  0.00    +0.000 A 
ATOM     12  C   UNL     1      -4.085  12.689  24.020  0.00  0.00    +0.000 A 
ATOM     13  C   UNL     1      -2.889  12.031  23.725  0.00  0.00    +0.000 A 
ENDBRANCH   7   8
ENDBRANCH   6   7
ENDBRANCH   3   6
ENDBRANCH   1   2
BRANCH   1  14
ATOM     14  C   UNL     1       1.618   8.608  19.005  0.00  0.00    +0.000 C 
BRANCH  14  15
ATOM     15  O   UNL     1       2.133   9.953  18.915  0.00  0.00    +0.000 OA
BRANCH  15  20
ATOM     16  C   UNL     1      -0.911  12.054  18.471  0.00  0.00    +0.000 A 
ATOM     17  C   UNL     1      -0.413  13.264  18.954  0.00  0.00    +0.000 A 
ATOM     18  C   UNL     1       0.894  13.339  19.423  0.00  0.00    +0.000 A 
ATOM     19  C   UNL     1       1.714  12.206  19.391  0.00  0.00    +0.000 A 
ATOM     20  C   UNL     1       1.235  10.991  18.886  0.00  0.00    +0.000 A 
ATOM     21  C   UNL     1      -0.076  10.923  18.415  0.00  0.00    +0.000 A 
BRANCH  16  23
ATOM     22  C   UNL     1      -2.646  11.120  17.002  0.00  0.00    +0.000 C 
ATOM     23  C   UNL     1      -2.271  11.992  17.954  0.00  0.00    +0.000 C 
BRANCH  22  25
ATOM     24  O   UNL     1      -4.380  10.679  15.420  0.00  0.00    +0.000 OA
ATOM     25  C   UNL     1      -4.050  11.092  16.526  0.00  0.00    +0.000 C 
ATOM     26  N   UNL     1      -4.951  11.583  17.430  0.00  0.00    +0.000 N 
ATOM     27  H   UNL     1      -4.729  11.977  18.335  0.00  0.00    +0.000 HD
BRANCH  26  28
ATOM     28  O   UNL     1      -6.300  11.643  17.018  0.00  0.00    +0.000 OA
ATOM     29  H   UNL     1      -6.774  11.268  17.793  0.00  0.00    +0.000 HD
ENDBRANCH  26  28
ENDBRANCH  22  25
ENDBRANCH  16  23
ENDBRANCH  15  20
ENDBRANCH  14  15
ENDBRANCH   1  14
BRANCH   1  30
ATOM     30  C   UNL     1       1.645   6.642  20.724  0.00  0.00    +0.000 C 
BRANCH  30  31
ATOM     31  C   UNL     1       2.377   5.744  19.752  0.00  0.00    +0.000 A 
ATOM     32  C   UNL     1       3.747   5.832  19.562  0.00  0.00    +0.000 A 
ATOM     33  N   UNL     1       3.999   5.208  18.377  0.00  0.00    +0.000 N 
ATOM     34  C   UNL     1       3.184   4.108  18.350  0.00  0.00    +0.000 A 
ATOM     35  C   UNL     1       3.341   2.891  17.681  0.00  0.00    +0.000 A 
ATOM     36  C   UNL     1       2.366   1.924  17.902  0.00  0.00    +0.000 A 
ATOM     37  C   UNL     1       1.249   2.218  18.680  0.00  0.00    +0.000 A 
ATOM     38  C   UNL     1       1.083   3.489  19.269  0.00  0.00    +0.000 A 
ATOM     39  C   UNL     1       2.092   4.456  19.153  0.00  0.00    +0.000 A 
ATOM     40  H   UNL     1       4.276   5.688  17.533  0.00  0.00    +0.000 HD
ENDBRANCH  30  31
ENDBRANCH   1  30
TORSDOF 12
ENDMDL
MODEL 9
REMARK VINA RESULT:      -8.3      4.683      9.013
REMARK  Name = 
REMARK  12 active torsions:
REMARK  status: ('A' for Active; 'I' for Inactive)
REMARK    1  A    between atoms: C_2  and  C_3
REMARK    2  A    between atoms: C_4  and  C_5
REMARK    3  A    between atoms: C_9  and  O_10
REMARK    4  A    between atoms: O_10  and  C_11
REMARK    5  A    between atoms: C_11  and  C_12
REMARK    6  A    between atoms: C_12  and  C_13
REMARK    7  A    between atoms: C_12  and  N_23
REMARK    8  A    between atoms: C_13  and  C_14
REMARK    9  A    between atoms: C_24  and  C_26
REMARK   10  A    between atoms: C_26  and  C_27
REMARK   11  A    between atoms: C_27  and  C_28
REMARK   12  A    between atoms: N_35  and  O_36
REMARK                            x       y       z     vdW  Elec       q    Type
REMARK                         _______ _______ _______ _____ _____    ______ ____
ROOT
ATOM      1  C   UNL     1       0.716  10.475  19.698  0.00  0.00    +0.000 C 
ENDROOT
BRANCH   1   2
ATOM      2  N   UNL     1       1.349   9.162  19.508  0.00  0.00    +0.000 N 
ATOM      3  C   UNL     1       1.921   8.767  18.304  0.00  0.00    +0.000 C 
ATOM      4  O   UNL     1       1.881   9.486  17.302  0.00  0.00    +0.000 OA
ATOM      5  H   UNL     1       1.421   8.570  20.320  0.00  0.00    +0.000 HD
BRANCH   3   6
ATOM      6  C   UNL     1       2.705   7.485  18.314  0.00  0.00    +0.000 C 
BRANCH   6   7
ATOM      7  C   UNL     1       2.628   6.635  19.584  0.00  0.00    +0.000 C 
BRANCH   7   8
ATOM      8  C   UNL     1       1.985   5.273  19.453  0.00  0.00    +0.000 A 
ATOM      9  C   UNL     1       1.442   4.579  20.539  0.00  0.00    +0.000 A 
ATOM     10  C   UNL     1       0.984   3.268  20.385  0.00  0.00    +0.000 A 
ATOM     11  C   UNL     1       1.060   2.637  19.147  0.00  0.00    +0.000 A 
ATOM     12  C   UNL     1       1.523   3.342  18.043  0.00  0.00    +0.000 A 
ATOM     13  C   UNL     1       1.938   4.668  18.189  0.00  0.00    +0.000 A 
ENDBRANCH   7   8
ENDBRANCH   6   7
ENDBRANCH   3   6
ENDBRANCH   1   2
BRANCH   1  14
ATOM     14  C   UNL     1       1.600  11.417  20.551  0.00  0.00    +0.000 C 
BRANCH  14  15
ATOM     15  O   UNL     1       1.803  12.659  19.846  0.00  0.00    +0.000 OA
BRANCH  15  20
ATOM     16  C   UNL     1      -0.322  15.208  21.537  0.00  0.00    +0.000 A 
ATOM     17  C   UNL     1      -0.765  15.905  20.413  0.00  0.00    +0.000 A 
ATOM     18  C   UNL     1      -0.334  15.524  19.147  0.00  0.00    +0.000 A 
ATOM     19  C   UNL     1       0.526  14.429  19.001  0.00  0.00    +0.000 A 
ATOM     20  C   UNL     1       0.958  13.706  20.120  0.00  0.00    +0.000 A 
ATOM     21  C   UNL     1       0.521  14.092  21.386  0.00  0.00    +0.000 A 
BRANCH  16  23
ATOM     22  C   UNL     1      -1.155  14.697  23.793  0.00  0.00    +0.000 C 
ATOM     23  C   UNL     1      -0.803  15.596  22.857  0.00  0.00    +0.000 C 
BRANCH  22  25
ATOM     24  O   UNL     1      -2.761  14.969  25.540  0.00  0.00    +0.000 OA
ATOM     25  C   UNL     1      -1.622  15.151  25.125  0.00  0.00    +0.000 C 
ATOM     26  N   UNL     1      -0.667  15.806  25.853  0.00  0.00    +0.000 N 
ATOM     27  H   UNL     1       0.271  16.023  25.541  0.00  0.00    +0.000 HD
BRANCH  26  28
ATOM     28  O   UNL     1      -1.063  16.320  27.107  0.00  0.00    +0.000 OA
ATOM     29  H   UNL     1      -1.789  15.710  27.365  0.00  0.00    +0.000 HD
ENDBRANCH  26  28
ENDBRANCH  22  25
ENDBRANCH  16  23
ENDBRANCH  15  20
ENDBRANCH  14  15
ENDBRANCH   1  14
BRANCH   1  30
ATOM     30  C   UNL     1      -0.757  10.361  20.164  0.00  0.00    +0.000 C 
BRANCH  30  31
ATOM     31  C   UNL     1      -1.885  10.905  19.317  0.00  0.00    +0.000 A 
ATOM     32  C   UNL     1      -2.402  12.176  19.513  0.00  0.00    +0.000 A 
ATOM     33  N   UNL     1      -3.617  12.182  18.897  0.00  0.00    +0.000 N 
ATOM     34  C   UNL     1      -3.455  11.477  17.735  0.00  0.00    +0.000 A 
ATOM     35  C   UNL     1      -4.152  11.565  16.527  0.00  0.00    +0.000 A 
ATOM     36  C   UNL     1      -3.708  10.755  15.487  0.00  0.00    +0.000 A 
ATOM     37  C   UNL     1      -2.680   9.840  15.700  0.00  0.00    +0.000 A 
ATOM     38  C   UNL     1      -2.058   9.720  16.959  0.00  0.00    +0.000 A 
ATOM     39  C   UNL     1      -2.407  10.588  18.004  0.00  0.00    +0.000 A 
ATOM     40  H   UNL     1      -4.499  12.206  19.389  0.00  0.00    +0.000 HD
ENDBRANCH  30  31
ENDBRANCH   1  30
TORSDOF 12
ENDMDL
