MODEL 1
REMARK VINA RESULT:      -7.9      0.000      0.000
REMARK  Name = 
REMARK  10 active torsions:
REMARK  status: ('A' for Active; 'I' for Inactive)
REMARK    1  A    between atoms: C_1  and  C_2
REMARK    2  A    between atoms: C_2  and  C_3
REMARK    3  A    between atoms: C_4  and  C_5
REMARK    4  A    between atoms: C_6  and  C_7
REMARK    5  A    between atoms: C_6  and  C_17
REMARK    6  A    between atoms: C_17  and  C_18
REMARK    7  A    between atoms: C_17  and  C_19
REMARK    8  A    between atoms: C_17  and  C_20
REMARK    9  A    between atoms: C_21  and  C_22
REMARK   10  A    between atoms: C_22  and  N_23
REMARK                            x       y       z     vdW  Elec       q    Type
REMARK                         _______ _______ _______ _____ _____    ______ ____
ROOT
ATOM      1  C   UNL     1       4.684   4.926  15.917  0.00  0.00    +0.000 C 
ATOM      2  C   UNL     1       5.133   5.455  17.082  0.00  0.00    +0.000 C 
ENDROOT
BRANCH   2   3
ATOM      3  C   UNL     1       4.082   5.982  17.992  0.00  0.00    +0.000 A 
ATOM      4  C   UNL     1       3.782   5.307  19.181  0.00  0.00    +0.000 A 
ATOM      5  C   UNL     1       2.871   5.848  20.096  0.00  0.00    +0.000 A 
ATOM      6  C   UNL     1       2.246   7.079  19.844  0.00  0.00    +0.000 A 
ATOM      7  C   UNL     1       1.367   7.661  20.775  0.00  0.00    +0.000 A 
ATOM      8  C   UNL     1       0.774   8.899  20.525  0.00  0.00    +0.000 A 
ATOM      9  C   UNL     1       1.044   9.568  19.335  0.00  0.00    +0.000 A 
ATOM     10  C   UNL     1       1.905   8.997  18.394  0.00  0.00    +0.000 A 
ATOM     11  C   UNL     1       2.519   7.757  18.634  0.00  0.00    +0.000 A 
ATOM     12  C   UNL     1       3.422   7.188  17.712  0.00  0.00    +0.000 A 
ENDBRANCH   2   3
BRANCH   2  13
ATOM     13  C   UNL     1       6.616   5.610  17.543  0.00  0.00    +0.000 C 
ATOM     14  C   UNL     1       7.448   4.436  16.979  0.00  0.00    +0.000 C 
ATOM     15  C   UNL     1       7.285   6.917  17.040  0.00  0.00    +0.000 C 
ATOM     16  C   UNL     1       6.791   5.640  19.080  0.00  0.00    +0.000 C 
ENDBRANCH   2  13
BRANCH   1  18
ATOM     17  C   UNL     1       5.370   4.264  13.610  0.00  0.00    +0.000 C 
ATOM     18  C   UNL     1       5.495   4.225  14.947  0.00  0.00    +0.000 C 
BRANCH  17  20
ATOM     19  C   UNL     1       7.519   4.367  12.178  0.00  0.00    +0.000 C 
ATOM     20  C   UNL     1       6.284   3.634  12.648  0.00  0.00    +0.000 C 
ATOM     21  C   UNL     1       5.995   2.416  12.138  0.00  0.00    +0.000 C 
BRANCH  21  22
ATOM     22  C   UNL     1       6.793   1.677  11.102  0.00  0.00    +0.000 C 
BRANCH  22  23
ATOM     23  N   UNL     1       6.450   0.263  11.117  0.00  0.00    +0.000 NA
ATOM     24  H   UNL     1       7.280  -0.270  11.374  0.00  0.00    +0.000 HD
ATOM     25  H   UNL     1       6.218  -0.027  10.168  0.00  0.00    +0.000 HD
ENDBRANCH  22  23
ENDBRANCH  21  22
ENDBRANCH  17  20
ENDBRANCH   1  18
TORSDOF 6
ENDMDL
MODEL 2
REMARK VINA RESULT:      -7.9      1.459      3.661
REMARK  Name = 
REMARK  10 active torsions:
REMARK  status: ('A' for Active; 'I' for Inactive)
REMARK    1  A    between atoms: C_1  and  C_2
REMARK    2  A    between atoms: C_2  and  C_3
REMARK    3  A    between atoms: C_4  and  C_5
REMARK    4  A    between atoms: C_6  and  C_7
REMARK    5  A    between atoms: C_6  and  C_17
REMARK    6  A    between atoms: C_17  and  C_18
REMARK    7  A    between atoms: C_17  and  C_19
REMARK    8  A    between atoms: C_17  and  C_20
REMARK    9  A    between atoms: C_21  and  C_22
REMARK   10  A    between atoms: C_22  and  N_23
REMARK                            x       y       z     vdW  Elec       q    Type
REMARK                         _______ _______ _______ _____ _____    ______ ____
ROOT
ATOM      1  C   UNL     1       4.135   6.914  17.820  0.00  0.00    +0.000 C 
ATOM      2  C   UNL     1       3.017   6.579  18.511  0.00  0.00    +0.000 C 
ENDROOT
BRANCH   2   3
ATOM      3  C   UNL     1       2.210   7.723  19.013  0.00  0.00    +0.000 A 
ATOM      4  C   UNL     1       1.667   8.647  18.112  0.00  0.00    +0.000 A 
ATOM      5  C   UNL     1       0.820   9.666  18.562  0.00  0.00    +0.000 A 
ATOM      6  C   UNL     1       0.492   9.779  19.922  0.00  0.00    +0.000 A 
ATOM      7  C   UNL     1      -0.397  10.767  20.384  0.00  0.00    +0.000 A 
ATOM      8  C   UNL     1      -0.737  10.850  21.735  0.00  0.00    +0.000 A 
ATOM      9  C   UNL     1      -0.183   9.954  22.645  0.00  0.00    +0.000 A 
ATOM     10  C   UNL     1       0.712   8.976  22.204  0.00  0.00    +0.000 A 
ATOM     11  C   UNL     1       1.056   8.870  20.845  0.00  0.00    +0.000 A 
ATOM     12  C   UNL     1       1.927   7.863  20.380  0.00  0.00    +0.000 A 
ENDBRANCH   2   3
BRANCH   2  13
ATOM     13  C   UNL     1       2.517   5.146  18.870  0.00  0.00    +0.000 C 
ATOM     14  C   UNL     1       1.548   5.232  20.071  0.00  0.00    +0.000 C 
ATOM     15  C   UNL     1       1.739   4.456  17.716  0.00  0.00    +0.000 C 
ATOM     16  C   UNL     1       3.653   4.160  19.228  0.00  0.00    +0.000 C 
ENDBRANCH   2  13
BRANCH   1  18
ATOM     17  C   UNL     1       4.948   5.684  15.806  0.00  0.00    +0.000 C 
ATOM     18  C   UNL     1       4.991   5.987  17.114  0.00  0.00    +0.000 C 
BRANCH  17  20
ATOM     19  C   UNL     1       7.258   4.529  15.705  0.00  0.00    +0.000 C 
ATOM     20  C   UNL     1       5.908   4.828  15.095  0.00  0.00    +0.000 C 
ATOM     21  C   UNL     1       5.607   4.347  13.869  0.00  0.00    +0.000 C 
BRANCH  21  22
ATOM     22  C   UNL     1       6.507   3.519  12.996  0.00  0.00    +0.000 C 
BRANCH  22  23
ATOM     23  N   UNL     1       5.715   2.702  12.090  0.00  0.00    +0.000 NA
ATOM     24  H   UNL     1       6.127   2.759  11.158  0.00  0.00    +0.000 HD
ATOM     25  H   UNL     1       4.786   3.114  12.006  0.00  0.00    +0.000 HD
ENDBRANCH  22  23
ENDBRANCH  21  22
ENDBRANCH  17  20
ENDBRANCH   1  18
TORSDOF 6
ENDMDL
MODEL 3
REMARK VINA RESULT:      -7.8      1.461      3.190
REMARK  Name = 
REMARK  10 active torsions:
REMARK  status: ('A' for Active; 'I' for Inactive)
REMARK    1  A    between atoms: C_1  and  C_2
REMARK    2  A    between atoms: C_2  and  C_3
REMARK    3  A    between atoms: C_4  and  C_5
REMARK    4  A    between atoms: C_6  and  C_7
REMARK    5  A    between atoms: C_6  and  C_17
REMARK    6  A    between atoms: C_17  and  C_18
REMARK    7  A    between atoms: C_17  and  C_19
REMARK    8  A    between atoms: C_17  and  C_20
REMARK    9  A    between atoms: C_21  and  C_22
REMARK   10  A    between atoms: C_22  and  N_23
REMARK                            x       y       z     vdW  Elec       q    Type
REMARK                         _______ _______ _______ _____ _____    ______ ____
ROOT
ATOM      1  C   UNL     1       4.354   6.654  17.210  0.00  0.00    +0.000 C 
ATOM      2  C   UNL     1       3.317   6.291  18.004  0.00  0.00    +0.000 C 
ENDROOT
BRANCH   2   3
ATOM      3  C   UNL     1       2.535   7.413  18.588  0.00  0.00    +0.000 A 
ATOM      4  C   UNL     1       2.067   8.444  17.764  0.00  0.00    +0.000 A 
ATOM      5  C   UNL     1       1.242   9.449  18.282  0.00  0.00    +0.000 A 
ATOM      6  C   UNL     1       0.863   9.442  19.633  0.00  0.00    +0.000 A 
ATOM      7  C   UNL     1      -0.006  10.416  20.158  0.00  0.00    +0.000 A 
ATOM      8  C   UNL     1      -0.398  10.381  21.497  0.00  0.00    +0.000 A 
ATOM      9  C   UNL     1       0.082   9.376  22.332  0.00  0.00    +0.000 A 
ATOM     10  C   UNL     1       0.956   8.409  21.829  0.00  0.00    +0.000 A 
ATOM     11  C   UNL     1       1.352   8.423  20.481  0.00  0.00    +0.000 A 
ATOM     12  C   UNL     1       2.201   7.430  19.950  0.00  0.00    +0.000 A 
ENDBRANCH   2   3
BRANCH   2  13
ATOM     13  C   UNL     1       2.890   4.844  18.404  0.00  0.00    +0.000 C 
ATOM     14  C   UNL     1       4.005   4.204  19.261  0.00  0.00    +0.000 C 
ATOM     15  C   UNL     1       1.590   4.797  19.252  0.00  0.00    +0.000 C 
ATOM     16  C   UNL     1       2.609   3.920  17.196  0.00  0.00    +0.000 C 
ENDBRANCH   2  13
BRANCH   1  18
ATOM     17  C   UNL     1       5.155   5.623  15.082  0.00  0.00    +0.000 C 
ATOM     18  C   UNL     1       5.161   5.751  16.419  0.00  0.00    +0.000 C 
BRANCH  17  20
ATOM     19  C   UNL     1       7.561   4.852  14.537  0.00  0.00    +0.000 C 
ATOM     20  C   UNL     1       6.070   4.780  14.301  0.00  0.00    +0.000 C 
ATOM     21  C   UNL     1       5.586   3.976  13.330  0.00  0.00    +0.000 C 
BRANCH  21  22
ATOM     22  C   UNL     1       6.398   3.111  12.407  0.00  0.00    +0.000 C 
BRANCH  22  23
ATOM     23  N   UNL     1       5.556   2.089  11.804  0.00  0.00    +0.000 NA
ATOM     24  H   UNL     1       5.784   1.190  12.227  0.00  0.00    +0.000 HD
ATOM     25  H   UNL     1       5.803   2.002  10.819  0.00  0.00    +0.000 HD
ENDBRANCH  22  23
ENDBRANCH  21  22
ENDBRANCH  17  20
ENDBRANCH   1  18
TORSDOF 6
ENDMDL
MODEL 4
REMARK VINA RESULT:      -7.7      1.754      4.180
REMARK  Name = 
REMARK  10 active torsions:
REMARK  status: ('A' for Active; 'I' for Inactive)
REMARK    1  A    between atoms: C_1  and  C_2
REMARK    2  A    between atoms: C_2  and  C_3
REMARK    3  A    between atoms: C_4  and  C_5
REMARK    4  A    between atoms: C_6  and  C_7
REMARK    5  A    between atoms: C_6  and  C_17
REMARK    6  A    between atoms: C_17  and  C_18
REMARK    7  A    between atoms: C_17  and  C_19
REMARK    8  A    between atoms: C_17  and  C_20
REMARK    9  A    between atoms: C_21  and  C_22
REMARK   10  A    between atoms: C_22  and  N_23
REMARK                            x       y       z     vdW  Elec       q    Type
REMARK                         _______ _______ _______ _____ _____    ______ ____
ROOT
ATOM      1  C   UNL     1       3.520   7.507  17.707  0.00  0.00    +0.000 C 
ATOM      2  C   UNL     1       2.643   7.116  18.665  0.00  0.00    +0.000 C 
ENDROOT
BRANCH   2   3
ATOM      3  C   UNL     1       1.842   8.208  19.281  0.00  0.00    +0.000 A 
ATOM      4  C   UNL     1       1.267   9.196  18.475  0.00  0.00    +0.000 A 
ATOM      5  C   UNL     1       0.425  10.167  19.030  0.00  0.00    +0.000 A 
ATOM      6  C   UNL     1       0.137  10.166  20.404  0.00  0.00    +0.000 A 
ATOM      7  C   UNL     1      -0.746  11.104  20.970  0.00  0.00    +0.000 A 
ATOM      8  C   UNL     1      -1.046  11.074  22.333  0.00  0.00    +0.000 A 
ATOM      9  C   UNL     1      -0.459  10.113  23.150  0.00  0.00    +0.000 A 
ATOM     10  C   UNL     1       0.430   9.182  22.605  0.00  0.00    +0.000 A 
ATOM     11  C   UNL     1       0.735   9.191  21.233  0.00  0.00    +0.000 A 
ATOM     12  C   UNL     1       1.599   8.233  20.663  0.00  0.00    +0.000 A 
ENDBRANCH   2   3
BRANCH   2  13
ATOM     13  C   UNL     1       2.418   5.673  19.213  0.00  0.00    +0.000 C 
ATOM     14  C   UNL     1       1.878   4.776  18.076  0.00  0.00    +0.000 C 
ATOM     15  C   UNL     1       3.717   5.002  19.735  0.00  0.00    +0.000 C 
ATOM     16  C   UNL     1       1.430   5.605  20.402  0.00  0.00    +0.000 C 
ENDBRANCH   2  13
BRANCH   1  18
ATOM     17  C   UNL     1       5.588   6.289  17.019  0.00  0.00    +0.000 C 
ATOM     18  C   UNL     1       4.295   6.620  16.869  0.00  0.00    +0.000 C 
BRANCH  17  20
ATOM     19  C   UNL     1       7.472   4.531  16.823  0.00  0.00    +0.000 C 
ATOM     20  C   UNL     1       6.315   5.294  16.221  0.00  0.00    +0.000 C 
ATOM     21  C   UNL     1       5.985   5.094  14.926  0.00  0.00    +0.000 C 
BRANCH  21  22
ATOM     22  C   UNL     1       6.675   4.164  13.968  0.00  0.00    +0.000 C 
BRANCH  22  23
ATOM     23  N   UNL     1       5.731   3.671  12.977  0.00  0.00    +0.000 NA
ATOM     24  H   UNL     1       4.813   4.067  13.179  0.00  0.00    +0.000 HD
ATOM     25  H   UNL     1       5.629   2.664  13.095  0.00  0.00    +0.000 HD
ENDBRANCH  22  23
ENDBRANCH  21  22
ENDBRANCH  17  20
ENDBRANCH   1  18
TORSDOF 6
ENDMDL
MODEL 5
REMARK VINA RESULT:      -7.7      1.403      2.803
REMARK  Name = 
REMARK  10 active torsions:
REMARK  status: ('A' for Active; 'I' for Inactive)
REMARK    1  A    between atoms: C_1  and  C_2
REMARK    2  A    between atoms: C_2  and  C_3
REMARK    3  A    between atoms: C_4  and  C_5
REMARK    4  A    between atoms: C_6  and  C_7
REMARK    5  A    between atoms: C_6  and  C_17
REMARK    6  A    between atoms: C_17  and  C_18
REMARK    7  A    between atoms: C_17  and  C_19
REMARK    8  A    between atoms: C_17  and  C_20
REMARK    9  A    between atoms: C_21  and  C_22
REMARK   10  A    between atoms: C_22  and  N_23
REMARK                            x       y       z     vdW  Elec       q    Type
REMARK                         _______ _______ _______ _____ _____    ______ ____
ROOT
ATOM      1  C   UNL     1       4.431   6.384  17.371  0.00  0.00    +0.000 C 
ATOM      2  C   UNL     1       3.388   5.891  18.084  0.00  0.00    +0.000 C 
ENDROOT
BRANCH   2   3
ATOM      3  C   UNL     1       2.550   6.905  18.776  0.00  0.00    +0.000 A 
ATOM      4  C   UNL     1       2.253   6.758  20.137  0.00  0.00    +0.000 A 
ATOM      5  C   UNL     1       1.555   7.758  20.824  0.00  0.00    +0.000 A 
ATOM      6  C   UNL     1       1.144   8.928  20.167  0.00  0.00    +0.000 A 
ATOM      7  C   UNL     1       0.486   9.964  20.854  0.00  0.00    +0.000 A 
ATOM      8  C   UNL     1       0.109  11.135  20.196  0.00  0.00    +0.000 A 
ATOM      9  C   UNL     1       0.375  11.282  18.838  0.00  0.00    +0.000 A 
ATOM     10  C   UNL     1       1.017  10.257  18.138  0.00  0.00    +0.000 A 
ATOM     11  C   UNL     1       1.413   9.076  18.788  0.00  0.00    +0.000 A 
ATOM     12  C   UNL     1       2.097   8.050  18.103  0.00  0.00    +0.000 A 
ENDBRANCH   2   3
BRANCH   2  13
ATOM     13  C   UNL     1       3.006   4.392  18.291  0.00  0.00    +0.000 C 
ATOM     14  C   UNL     1       3.962   3.763  19.329  0.00  0.00    +0.000 C 
ATOM     15  C   UNL     1       1.564   4.193  18.832  0.00  0.00    +0.000 C 
ATOM     16  C   UNL     1       3.065   3.549  16.996  0.00  0.00    +0.000 C 
ENDBRANCH   2  13
BRANCH   1  18
ATOM     17  C   UNL     1       5.128   5.402  15.184  0.00  0.00    +0.000 C 
ATOM     18  C   UNL     1       5.291   5.614  16.501  0.00  0.00    +0.000 C 
BRANCH  17  20
ATOM     19  C   UNL     1       7.568   4.843  14.544  0.00  0.00    +0.000 C 
ATOM     20  C   UNL     1       6.081   4.713  14.305  0.00  0.00    +0.000 C 
ATOM     21  C   UNL     1       5.634   4.003  13.247  0.00  0.00    +0.000 C 
BRANCH  21  22
ATOM     22  C   UNL     1       6.485   3.302  12.225  0.00  0.00    +0.000 C 
BRANCH  22  23
ATOM     23  N   UNL     1       5.891   2.024  11.868  0.00  0.00    +0.000 NA
ATOM     24  H   UNL     1       5.176   2.185  11.159  0.00  0.00    +0.000 HD
ATOM     25  H   UNL     1       5.397   1.654  12.679  0.00  0.00    +0.000 HD
ENDBRANCH  22  23
ENDBRANCH  21  22
ENDBRANCH  17  20
ENDBRANCH   1  18
TORSDOF 6
ENDMDL
MODEL 6
REMARK VINA RESULT:      -7.7      0.603      1.135
REMARK  Name = 
REMARK  10 active torsions:
REMARK  status: ('A' for Active; 'I' for Inactive)
REMARK    1  A    between atoms: C_1  and  C_2
REMARK    2  A    between atoms: C_2  and  C_3
REMARK    3  A    between atoms: C_4  and  C_5
REMARK    4  A    between atoms: C_6  and  C_7
REMARK    5  A    between atoms: C_6  and  C_17
REMARK    6  A    between atoms: C_17  and  C_18
REMARK    7  A    between atoms: C_17  and  C_19
REMARK    8  A    between atoms: C_17  and  C_20
REMARK    9  A    between atoms: C_21  and  C_22
REMARK   10  A    between atoms: C_22  and  N_23
REMARK                            x       y       z     vdW  Elec       q    Type
REMARK                         _______ _______ _______ _____ _____    ______ ____
ROOT
ATOM      1  C   UNL     1       4.589   4.705  15.601  0.00  0.00    +0.000 C 
ATOM      2  C   UNL     1       5.124   5.391  16.642  0.00  0.00    +0.000 C 
ENDROOT
BRANCH   2   3
ATOM      3  C   UNL     1       4.142   5.969  17.598  0.00  0.00    +0.000 A 
ATOM      4  C   UNL     1       3.936   5.363  18.843  0.00  0.00    +0.000 A 
ATOM      5  C   UNL     1       3.096   5.955  19.792  0.00  0.00    +0.000 A 
ATOM      6  C   UNL     1       2.447   7.169  19.519  0.00  0.00    +0.000 A 
ATOM      7  C   UNL     1       1.638   7.803  20.480  0.00  0.00    +0.000 A 
ATOM      8  C   UNL     1       1.022   9.025  20.205  0.00  0.00    +0.000 A 
ATOM      9  C   UNL     1       1.198   9.624  18.962  0.00  0.00    +0.000 A 
ATOM     10  C   UNL     1       1.988   9.001  17.992  0.00  0.00    +0.000 A 
ATOM     11  C   UNL     1       2.624   7.776  18.256  0.00  0.00    +0.000 A 
ATOM     12  C   UNL     1       3.456   7.156  17.301  0.00  0.00    +0.000 A 
ENDBRANCH   2   3
BRANCH   2  13
ATOM     13  C   UNL     1       6.633   5.674  16.916  0.00  0.00    +0.000 C 
ATOM     14  C   UNL     1       6.793   7.123  17.430  0.00  0.00    +0.000 C 
ATOM     15  C   UNL     1       7.249   4.745  17.996  0.00  0.00    +0.000 C 
ATOM     16  C   UNL     1       7.537   5.494  15.674  0.00  0.00    +0.000 C 
ENDBRANCH   2  13
BRANCH   1  18
ATOM     17  C   UNL     1       5.280   4.046  13.295  0.00  0.00    +0.000 C 
ATOM     18  C   UNL     1       5.337   3.935  14.633  0.00  0.00    +0.000 C 
BRANCH  17  20
ATOM     19  C   UNL     1       7.348   4.015  11.745  0.00  0.00    +0.000 C 
ATOM     20  C   UNL     1       6.139   3.331  12.342  0.00  0.00    +0.000 C 
ATOM     21  C   UNL     1       5.821   2.077  11.954  0.00  0.00    +0.000 C 
BRANCH  21  22
ATOM     22  C   UNL     1       6.561   1.248  10.941  0.00  0.00    +0.000 C 
BRANCH  22  23
ATOM     23  N   UNL     1       6.314  -0.167  11.173  0.00  0.00    +0.000 NA
ATOM     24  H   UNL     1       5.947  -0.282  12.118  0.00  0.00    +0.000 HD
ATOM     25  H   UNL     1       7.205  -0.661  11.161  0.00  0.00    +0.000 HD
ENDBRANCH  22  23
ENDBRANCH  21  22
ENDBRANCH  17  20
ENDBRANCH   1  18
TORSDOF 6
ENDMDL
MODEL 7
REMARK VINA RESULT:      -7.7      2.003      4.411
REMARK  Name = 
REMARK  10 active torsions:
REMARK  status: ('A' for Active; 'I' for Inactive)
REMARK    1  A    between atoms: C_1  and  C_2
REMARK    2  A    between atoms: C_2  and  C_3
REMARK    3  A    between atoms: C_4  and  C_5
REMARK    4  A    between atoms: C_6  and  C_7
REMARK    5  A    between atoms: C_6  and  C_17
REMARK    6  A    between atoms: C_17  and  C_18
REMARK    7  A    between atoms: C_17  and  C_19
REMARK    8  A    between atoms: C_17  and  C_20
REMARK    9  A    between atoms: C_21  and  C_22
REMARK   10  A    between atoms: C_22  and  N_23
REMARK                            x       y       z     vdW  Elec       q    Type
REMARK                         _______ _______ _______ _____ _____    ______ ____
ROOT
ATOM      1  C   UNL     1       3.499   7.696  17.765  0.00  0.00    +0.000 C 
ATOM      2  C   UNL     1       2.604   7.250  18.682  0.00  0.00    +0.000 C 
ENDROOT
BRANCH   2   3
ATOM      3  C   UNL     1       1.768   8.300  19.322  0.00  0.00    +0.000 A 
ATOM      4  C   UNL     1       1.113   9.253  18.532  0.00  0.00    +0.000 A 
ATOM      5  C   UNL     1       0.240  10.180  19.114  0.00  0.00    +0.000 A 
ATOM      6  C   UNL     1      -0.001  10.170  20.496  0.00  0.00    +0.000 A 
ATOM      7  C   UNL     1      -0.912  11.062  21.089  0.00  0.00    +0.000 A 
ATOM      8  C   UNL     1      -1.164  11.024  22.461  0.00  0.00    +0.000 A 
ATOM      9  C   UNL     1      -0.500  10.099  23.261  0.00  0.00    +0.000 A 
ATOM     10  C   UNL     1       0.419   9.214  22.689  0.00  0.00    +0.000 A 
ATOM     11  C   UNL     1       0.676   9.232  21.308  0.00  0.00    +0.000 A 
ATOM     12  C   UNL     1       1.570   8.319  20.711  0.00  0.00    +0.000 A 
ENDBRANCH   2   3
BRANCH   2  13
ATOM     13  C   UNL     1       2.391   5.781  19.163  0.00  0.00    +0.000 C 
ATOM     14  C   UNL     1       3.706   5.253  19.780  0.00  0.00    +0.000 C 
ATOM     15  C   UNL     1       1.296   5.643  20.255  0.00  0.00    +0.000 C 
ATOM     16  C   UNL     1       1.955   4.813  18.038  0.00  0.00    +0.000 C 
ENDBRANCH   2  13
BRANCH   1  18
ATOM     17  C   UNL     1       5.554   6.414  17.161  0.00  0.00    +0.000 C 
ATOM     18  C   UNL     1       4.311   6.858  16.911  0.00  0.00    +0.000 C 
BRANCH  17  20
ATOM     19  C   UNL     1       7.384   4.604  16.939  0.00  0.00    +0.000 C 
ATOM     20  C   UNL     1       6.307   5.469  16.327  0.00  0.00    +0.000 C 
ATOM     21  C   UNL     1       6.076   5.407  14.997  0.00  0.00    +0.000 C 
BRANCH  21  22
ATOM     22  C   UNL     1       6.808   4.543  14.009  0.00  0.00    +0.000 C 
BRANCH  22  23
ATOM     23  N   UNL     1       7.918   5.279  13.423  0.00  0.00    +0.000 NA
ATOM     24  H   UNL     1       8.297   5.910  14.128  0.00  0.00    +0.000 HD
ATOM     25  H   UNL     1       7.557   5.878  12.682  0.00  0.00    +0.000 HD
ENDBRANCH  22  23
ENDBRANCH  21  22
ENDBRANCH  17  20
ENDBRANCH   1  18
TORSDOF 6
ENDMDL
MODEL 8
REMARK VINA RESULT:      -7.5      1.517      3.531
REMARK  Name = 
REMARK  10 active torsions:
REMARK  status: ('A' for Active; 'I' for Inactive)
REMARK    1  A    between atoms: C_1  and  C_2
REMARK    2  A    between atoms: C_2  and  C_3
REMARK    3  A    between atoms: C_4  and  C_5
REMARK    4  A    between atoms: C_6  and  C_7
REMARK    5  A    between atoms: C_6  and  C_17
REMARK    6  A    between atoms: C_17  and  C_18
REMARK    7  A    between atoms: C_17  and  C_19
REMARK    8  A    between atoms: C_17  and  C_20
REMARK    9  A    between atoms: C_21  and  C_22
REMARK   10  A    between atoms: C_22  and  N_23
REMARK                            x       y       z     vdW  Elec       q    Type
REMARK                         _______ _______ _______ _____ _____    ______ ____
ROOT
ATOM      1  C   UNL     1       4.063   6.781  18.273  0.00  0.00    +0.000 C 
ATOM      2  C   UNL     1       2.914   6.363  18.860  0.00  0.00    +0.000 C 
ENDROOT
BRANCH   2   3
ATOM      3  C   UNL     1       2.063   7.437  19.437  0.00  0.00    +0.000 A 
ATOM      4  C   UNL     1       1.714   7.403  20.793  0.00  0.00    +0.000 A 
ATOM      5  C   UNL     1       1.004   8.461  21.371  0.00  0.00    +0.000 A 
ATOM      6  C   UNL     1       0.631   9.578  20.608  0.00  0.00    +0.000 A 
ATOM      7  C   UNL     1      -0.040  10.671  21.185  0.00  0.00    +0.000 A 
ATOM      8  C   UNL     1      -0.380  11.789  20.420  0.00  0.00    +0.000 A 
ATOM      9  C   UNL     1      -0.063  11.823  19.066  0.00  0.00    +0.000 A 
ATOM     10  C   UNL     1       0.592  10.739  18.475  0.00  0.00    +0.000 A 
ATOM     11  C   UNL     1       0.951   9.611  19.232  0.00  0.00    +0.000 A 
ATOM     12  C   UNL     1       1.648   8.527  18.658  0.00  0.00    +0.000 A 
ENDBRANCH   2   3
BRANCH   2  13
ATOM     13  C   UNL     1       2.418   4.894  19.034  0.00  0.00    +0.000 C 
ATOM     14  C   UNL     1       1.746   4.426  17.723  0.00  0.00    +0.000 C 
ATOM     15  C   UNL     1       3.563   3.888  19.334  0.00  0.00    +0.000 C 
ATOM     16  C   UNL     1       1.412   4.708  20.194  0.00  0.00    +0.000 C 
ENDBRANCH   2  13
BRANCH   1  18
ATOM     17  C   UNL     1       4.826   5.535  16.249  0.00  0.00    +0.000 C 
ATOM     18  C   UNL     1       4.971   5.946  17.520  0.00  0.00    +0.000 C 
BRANCH  17  20
ATOM     19  C   UNL     1       7.132   4.376  16.112  0.00  0.00    +0.000 C 
ATOM     20  C   UNL     1       5.823   4.785  15.475  0.00  0.00    +0.000 C 
ATOM     21  C   UNL     1       5.597   4.504  14.173  0.00  0.00    +0.000 C 
BRANCH  21  22
ATOM     22  C   UNL     1       6.545   3.807  13.239  0.00  0.00    +0.000 C 
BRANCH  22  23
ATOM     23  N   UNL     1       5.813   2.916  12.352  0.00  0.00    +0.000 NA
ATOM     24  H   UNL     1       6.180   3.025  11.407  0.00  0.00    +0.000 HD
ATOM     25  H   UNL     1       4.843   3.224  12.308  0.00  0.00    +0.000 HD
ENDBRANCH  22  23
ENDBRANCH  21  22
ENDBRANCH  17  20
ENDBRANCH   1  18
TORSDOF 6
ENDMDL
MODEL 9
REMARK VINA RESULT:      -7.4      2.049      4.187
REMARK  Name = 
REMARK  10 active torsions:
REMARK  status: ('A' for Active; 'I' for Inactive)
REMARK    1  A    between atoms: C_1  and  C_2
REMARK    2  A    between atoms: C_2  and  C_3
REMARK    3  A    between atoms: C_4  and  C_5
REMARK    4  A    between atoms: C_6  and  C_7
REMARK    5  A    between atoms: C_6  and  C_17
REMARK    6  A    between atoms: C_17  and  C_18
REMARK    7  A    between atoms: C_17  and  C_19
REMARK    8  A    between atoms: C_17  and  C_20
REMARK    9  A    between atoms: C_21  and  C_22
REMARK   10  A    between atoms: C_22  and  N_23
REMARK                            x       y       z     vdW  Elec       q    Type
REMARK                         _______ _______ _______ _____ _____    ______ ____
ROOT
ATOM      1  C   UNL     1       3.484   7.532  17.973  0.00  0.00    +0.000 C 
ATOM      2  C   UNL     1       2.579   7.020  18.844  0.00  0.00    +0.000 C 
ENDROOT
BRANCH   2   3
ATOM      3  C   UNL     1       1.708   8.017  19.521  0.00  0.00    +0.000 A 
ATOM      4  C   UNL     1       1.584   8.008  20.915  0.00  0.00    +0.000 A 
ATOM      5  C   UNL     1       0.852   9.005  21.570  0.00  0.00    +0.000 A 
ATOM      6  C   UNL     1       0.234  10.036  20.846  0.00  0.00    +0.000 A 
ATOM      7  C   UNL     1      -0.463  11.072  21.493  0.00  0.00    +0.000 A 
ATOM      8  C   UNL     1      -1.049  12.107  20.762  0.00  0.00    +0.000 A 
ATOM      9  C   UNL     1      -0.956  12.113  19.374  0.00  0.00    +0.000 A 
ATOM     10  C   UNL     1      -0.278  11.083  18.716  0.00  0.00    +0.000 A 
ATOM     11  C   UNL     1       0.328  10.040  19.436  0.00  0.00    +0.000 A 
ATOM     12  C   UNL     1       1.049   9.016  18.788  0.00  0.00    +0.000 A 
ENDBRANCH   2   3
BRANCH   2  13
ATOM     13  C   UNL     1       2.388   5.524  19.243  0.00  0.00    +0.000 C 
ATOM     14  C   UNL     1       1.936   4.722  18.001  0.00  0.00    +0.000 C 
ATOM     15  C   UNL     1       3.689   4.852  19.760  0.00  0.00    +0.000 C 
ATOM     16  C   UNL     1       1.352   5.306  20.370  0.00  0.00    +0.000 C 
ENDBRANCH   2  13
BRANCH   1  18
ATOM     17  C   UNL     1       5.583   6.338  17.342  0.00  0.00    +0.000 C 
ATOM     18  C   UNL     1       4.332   6.758  17.094  0.00  0.00    +0.000 C 
BRANCH  17  20
ATOM     19  C   UNL     1       7.480   4.605  17.063  0.00  0.00    +0.000 C 
ATOM     20  C   UNL     1       6.375   5.454  16.477  0.00  0.00    +0.000 C 
ATOM     21  C   UNL     1       6.153   5.434  15.144  0.00  0.00    +0.000 C 
BRANCH  21  22
ATOM     22  C   UNL     1       6.921   4.636  14.129  0.00  0.00    +0.000 C 
BRANCH  22  23
ATOM     23  N   UNL     1       7.931   5.469  13.495  0.00  0.00    +0.000 NA
ATOM     24  H   UNL     1       8.387   6.030  14.214  0.00  0.00    +0.000 HD
ATOM     25  H   UNL     1       7.467   6.135  12.879  0.00  0.00    +0.000 HD
ENDBRANCH  22  23
ENDBRANCH  21  22
ENDBRANCH  17  20
ENDBRANCH   1  18
TORSDOF 6
ENDMDL
