MODEL 1
REMARK VINA RESULT:      -7.0      0.000      0.000
REMARK  Name = 
REMARK  12 active torsions:
REMARK  status: ('A' for Active; 'I' for Inactive)
REMARK    1  A    between atoms: C_1  and  O_2
REMARK    2  A    between atoms: O_2  and  C_3
REMARK    3  A    between atoms: C_5  and  C_6
REMARK    4  A    between atoms: C_6  and  C_7
REMARK    5  A    between atoms: C_13  and  N_14
REMARK    6  A    between atoms: C_16  and  O_17
REMARK    7  A    between atoms: O_17  and  C_18
REMARK    8  A    between atoms: C_18  and  C_19
REMARK    9  A    between atoms: C_19  and  C_20
REMARK   10  A    between atoms: C_20  and  O_22
REMARK   11  A    between atoms: C_23  and  O_24
REMARK   12  A    between atoms: O_24  and  C_25
REMARK                            x       y       z     vdW  Elec       q    Type
REMARK                         _______ _______ _______ _____ _____    ______ ____
ROOT
ATOM      1  C   UNL     1       2.371   4.014  18.190  0.00  0.00    +0.000 A 
ATOM      2  C   UNL     1       1.924   5.344  18.266  0.00  0.00    +0.000 A 
ATOM      3  C   UNL     1       2.824   6.378  18.499  0.00  0.00    +0.000 A 
ATOM      4  C   UNL     1       4.132   6.062  18.842  0.00  0.00    +0.000 A 
ATOM      5  C   UNL     1       4.601   4.739  18.854  0.00  0.00    +0.000 A 
ATOM      6  C   UNL     1       3.713   3.690  18.516  0.00  0.00    +0.000 A 
ENDROOT
BRANCH   1   8
ATOM      7  C   UNL     1       0.764   2.366  18.769  0.00  0.00    +0.000 C 
ATOM      8  O   UNL     1       1.508   3.039  17.749  0.00  0.00    +0.000 OA
ENDBRANCH   1   8
BRANCH   6   9
ATOM      9  O   UNL     1       4.291   2.444  18.474  0.00  0.00    +0.000 OA
ATOM     10  C   UNL     1       4.348   1.668  19.662  0.00  0.00    +0.000 C 
ENDBRANCH   6   9
BRANCH   3  11
ATOM     11  C   UNL     1       2.496   7.816  18.172  0.00  0.00    +0.000 C 
BRANCH  11  12
ATOM     12  C   UNL     1       1.661   8.506  19.228  0.00  0.00    +0.000 A 
ATOM     13  C   UNL     1       1.598   8.078  20.543  0.00  0.00    +0.000 A 
ATOM     14  N   UNL     1       0.993   8.751  21.538  0.00  0.00    +0.000 NA
ATOM     15  C   UNL     1       0.425   9.903  21.199  0.00  0.00    +0.000 A 
ATOM     16  N   UNL     1      -0.104  10.667  22.218  0.00  0.00    +0.000 N 
ATOM     17  N   UNL     1       0.336  10.369  19.953  0.00  0.00    +0.000 NA
ATOM     18  C   UNL     1       0.958   9.672  18.988  0.00  0.00    +0.000 A 
ATOM     19  H   UNL     1      -0.334  10.077  23.005  0.00  0.00    +0.000 HD
ATOM     20  H   UNL     1      -0.821  11.280  21.861  0.00  0.00    +0.000 HD
BRANCH  18  21
ATOM     21  N   UNL     1       0.801  10.183  17.701  0.00  0.00    +0.000 N 
ATOM     22  H   UNL     1       1.656   9.977  17.192  0.00  0.00    +0.000 HD
ATOM     23  H   UNL     1      -0.015   9.819  17.228  0.00  0.00    +0.000 HD
ENDBRANCH  18  21
ENDBRANCH  11  12
ENDBRANCH   3  11
BRANCH   5  24
ATOM     24  O   UNL     1       5.935   4.441  19.128  0.00  0.00    +0.000 OA
BRANCH  24  25
ATOM     25  C   UNL     1       6.832   4.980  18.149  0.00  0.00    +0.000 C 
BRANCH  25  26
ATOM     26  C   UNL     1       6.787   4.320  16.784  0.00  0.00    +0.000 C 
BRANCH  26  27
ATOM     27  C   UNL     1       6.924   5.435  15.765  0.00  0.00    +0.000 C 
ATOM     28  O   UNL     1       7.656   5.414  14.789  0.00  0.00    +0.000 OA
BRANCH  27  29
ATOM     29  O   UNL     1       6.134   6.498  16.028  0.00  0.00    +0.000 OA
ATOM     30  H   UNL     1       6.026   6.685  16.984  0.00  0.00    +0.000 HD
ENDBRANCH  27  29
ENDBRANCH  26  27
ENDBRANCH  25  26
ENDBRANCH  24  25
ENDBRANCH   5  24
TORSDOF 10
ENDMDL
MODEL 2
REMARK VINA RESULT:      -6.9      4.481      6.719
REMARK  Name = 
REMARK  12 active torsions:
REMARK  status: ('A' for Active; 'I' for Inactive)
REMARK    1  A    between atoms: C_1  and  O_2
REMARK    2  A    between atoms: O_2  and  C_3
REMARK    3  A    between atoms: C_5  and  C_6
REMARK    4  A    between atoms: C_6  and  C_7
REMARK    5  A    between atoms: C_13  and  N_14
REMARK    6  A    between atoms: C_16  and  O_17
REMARK    7  A    between atoms: O_17  and  C_18
REMARK    8  A    between atoms: C_18  and  C_19
REMARK    9  A    between atoms: C_19  and  C_20
REMARK   10  A    between atoms: C_20  and  O_22
REMARK   11  A    between atoms: C_23  and  O_24
REMARK   12  A    between atoms: O_24  and  C_25
REMARK                            x       y       z     vdW  Elec       q    Type
REMARK                         _______ _______ _______ _____ _____    ______ ____
ROOT
ATOM      1  C   UNL     1       2.060   3.927  18.555  0.00  0.00    +0.000 A 
ATOM      2  C   UNL     1       2.797   4.643  17.595  0.00  0.00    +0.000 A 
ATOM      3  C   UNL     1       3.179   5.958  17.837  0.00  0.00    +0.000 A 
ATOM      4  C   UNL     1       2.664   6.611  18.949  0.00  0.00    +0.000 A 
ATOM      5  C   UNL     1       1.860   5.954  19.893  0.00  0.00    +0.000 A 
ATOM      6  C   UNL     1       1.553   4.585  19.704  0.00  0.00    +0.000 A 
ENDROOT
BRANCH   1   8
ATOM      7  C   UNL     1       3.062   1.826  18.092  0.00  0.00    +0.000 C 
ATOM      8  O   UNL     1       1.879   2.574  18.391  0.00  0.00    +0.000 OA
ENDBRANCH   1   8
BRANCH   6   9
ATOM      9  O   UNL     1       0.833   4.015  20.727  0.00  0.00    +0.000 OA
ATOM     10  C   UNL     1       1.476   3.094  21.595  0.00  0.00    +0.000 C 
ENDBRANCH   6   9
BRANCH   3  11
ATOM     11  C   UNL     1       4.301   6.621  17.072  0.00  0.00    +0.000 C 
BRANCH  11  12
ATOM     12  C   UNL     1       5.659   6.007  17.328  0.00  0.00    +0.000 A 
ATOM     13  C   UNL     1       6.192   5.847  18.596  0.00  0.00    +0.000 A 
ATOM     14  N   UNL     1       7.321   5.171  18.872  0.00  0.00    +0.000 NA
ATOM     15  C   UNL     1       7.945   4.632  17.830  0.00  0.00    +0.000 A 
ATOM     16  N   UNL     1       9.042   3.840  18.095  0.00  0.00    +0.000 N 
ATOM     17  N   UNL     1       7.583   4.800  16.557  0.00  0.00    +0.000 NA
ATOM     18  C   UNL     1       6.447   5.476  16.323  0.00  0.00    +0.000 A 
ATOM     19  H   UNL     1       9.443   4.097  18.985  0.00  0.00    +0.000 HD
ATOM     20  H   UNL     1       9.652   3.806  17.293  0.00  0.00    +0.000 HD
BRANCH  18  21
ATOM     21  N   UNL     1       6.137   5.654  14.976  0.00  0.00    +0.000 N 
ATOM     22  H   UNL     1       6.222   6.648  14.779  0.00  0.00    +0.000 HD
ATOM     23  H   UNL     1       6.716   5.098  14.360  0.00  0.00    +0.000 HD
ENDBRANCH  18  21
ENDBRANCH  11  12
ENDBRANCH   3  11
BRANCH   5  24
ATOM     24  O   UNL     1       1.409   6.601  21.043  0.00  0.00    +0.000 OA
BRANCH  24  25
ATOM     25  C   UNL     1       1.286   8.017  20.866  0.00  0.00    +0.000 C 
BRANCH  25  26
ATOM     26  C   UNL     1       0.101   8.664  21.559  0.00  0.00    +0.000 C 
BRANCH  26  27
ATOM     27  C   UNL     1       0.659   9.395  22.765  0.00  0.00    +0.000 C 
ATOM     28  O   UNL     1       0.006  10.061  23.552  0.00  0.00    +0.000 OA
BRANCH  27  29
ATOM     29  O   UNL     1       1.992   9.239  22.914  0.00  0.00    +0.000 OA
ATOM     30  H   UNL     1       2.521   9.978  22.548  0.00  0.00    +0.000 HD
ENDBRANCH  27  29
ENDBRANCH  26  27
ENDBRANCH  25  26
ENDBRANCH  24  25
ENDBRANCH   5  24
TORSDOF 10
ENDMDL
MODEL 3
REMARK VINA RESULT:      -6.9      4.522      7.049
REMARK  Name = 
REMARK  12 active torsions:
REMARK  status: ('A' for Active; 'I' for Inactive)
REMARK    1  A    between atoms: C_1  and  O_2
REMARK    2  A    between atoms: O_2  and  C_3
REMARK    3  A    between atoms: C_5  and  C_6
REMARK    4  A    between atoms: C_6  and  C_7
REMARK    5  A    between atoms: C_13  and  N_14
REMARK    6  A    between atoms: C_16  and  O_17
REMARK    7  A    between atoms: O_17  and  C_18
REMARK    8  A    between atoms: C_18  and  C_19
REMARK    9  A    between atoms: C_19  and  C_20
REMARK   10  A    between atoms: C_20  and  O_22
REMARK   11  A    between atoms: C_23  and  O_24
REMARK   12  A    between atoms: O_24  and  C_25
REMARK                            x       y       z     vdW  Elec       q    Type
REMARK                         _______ _______ _______ _____ _____    ______ ____
ROOT
ATOM      1  C   UNL     1       2.571   3.658  18.674  0.00  0.00    +0.000 A 
ATOM      2  C   UNL     1       3.579   4.359  17.992  0.00  0.00    +0.000 A 
ATOM      3  C   UNL     1       3.943   5.640  18.395  0.00  0.00    +0.000 A 
ATOM      4  C   UNL     1       3.172   6.285  19.353  0.00  0.00    +0.000 A 
ATOM      5  C   UNL     1       2.106   5.646  20.005  0.00  0.00    +0.000 A 
ATOM      6  C   UNL     1       1.797   4.305  19.672  0.00  0.00    +0.000 A 
ENDROOT
BRANCH   1   8
ATOM      7  C   UNL     1       3.535   1.493  18.531  0.00  0.00    +0.000 C 
ATOM      8  O   UNL     1       2.377   2.324  18.401  0.00  0.00    +0.000 OA
ENDBRANCH   1   8
BRANCH   6   9
ATOM      9  O   UNL     1       0.795   3.745  20.427  0.00  0.00    +0.000 OA
ATOM     10  C   UNL     1       1.138   2.852  21.477  0.00  0.00    +0.000 C 
ENDBRANCH   6   9
BRANCH   3  11
ATOM     11  C   UNL     1       5.264   6.259  18.001  0.00  0.00    +0.000 C 
BRANCH  11  12
ATOM     12  C   UNL     1       5.821   5.730  16.699  0.00  0.00    +0.000 A 
ATOM     13  C   UNL     1       5.301   6.064  15.460  0.00  0.00    +0.000 A 
ATOM     14  N   UNL     1       5.861   5.738  14.282  0.00  0.00    +0.000 NA
ATOM     15  C   UNL     1       6.992   5.043  14.349  0.00  0.00    +0.000 A 
ATOM     16  N   UNL     1       7.646   4.791  13.161  0.00  0.00    +0.000 N 
ATOM     17  N   UNL     1       7.535   4.580  15.476  0.00  0.00    +0.000 NA
ATOM     18  C   UNL     1       6.949   4.933  16.632  0.00  0.00    +0.000 A 
ATOM     19  H   UNL     1       6.989   4.823  12.394  0.00  0.00    +0.000 HD
ATOM     20  H   UNL     1       8.232   3.974  13.249  0.00  0.00    +0.000 HD
BRANCH  18  21
ATOM     21  N   UNL     1       7.535   4.391  17.775  0.00  0.00    +0.000 N 
ATOM     22  H   UNL     1       8.182   5.088  18.137  0.00  0.00    +0.000 HD
ATOM     23  H   UNL     1       6.857   4.110  18.471  0.00  0.00    +0.000 HD
ENDBRANCH  18  21
ENDBRANCH  11  12
ENDBRANCH   3  11
BRANCH   5  24
ATOM     24  O   UNL     1       1.387   6.279  21.018  0.00  0.00    +0.000 OA
BRANCH  24  25
ATOM     25  C   UNL     1       1.449   7.707  20.927  0.00  0.00    +0.000 C 
BRANCH  25  26
ATOM     26  C   UNL     1       0.302   8.456  21.579  0.00  0.00    +0.000 C 
BRANCH  26  27
ATOM     27  C   UNL     1       0.917   9.322  22.661  0.00  0.00    +0.000 C 
ATOM     28  O   UNL     1       2.108   9.561  22.782  0.00  0.00    +0.000 OA
BRANCH  27  29
ATOM     29  O   UNL     1       0.006   9.838  23.513  0.00  0.00    +0.000 OA
ATOM     30  H   UNL     1      -0.030   9.380  24.379  0.00  0.00    +0.000 HD
ENDBRANCH  27  29
ENDBRANCH  26  27
ENDBRANCH  25  26
ENDBRANCH  24  25
ENDBRANCH   5  24
TORSDOF 10
ENDMDL
MODEL 4
REMARK VINA RESULT:      -6.9      4.517      7.051
REMARK  Name = 
REMARK  12 active torsions:
REMARK  status: ('A' for Active; 'I' for Inactive)
REMARK    1  A    between atoms: C_1  and  O_2
REMARK    2  A    between atoms: O_2  and  C_3
REMARK    3  A    between atoms: C_5  and  C_6
REMARK    4  A    between atoms: C_6  and  C_7
REMARK    5  A    between atoms: C_13  and  N_14
REMARK    6  A    between atoms: C_16  and  O_17
REMARK    7  A    between atoms: O_17  and  C_18
REMARK    8  A    between atoms: C_18  and  C_19
REMARK    9  A    between atoms: C_19  and  C_20
REMARK   10  A    between atoms: C_20  and  O_22
REMARK   11  A    between atoms: C_23  and  O_24
REMARK   12  A    between atoms: O_24  and  C_25
REMARK                            x       y       z     vdW  Elec       q    Type
REMARK                         _______ _______ _______ _____ _____    ______ ____
ROOT
ATOM      1  C   UNL     1       3.704   3.828  19.609  0.00  0.00    +0.000 A 
ATOM      2  C   UNL     1       4.208   4.472  18.465  0.00  0.00    +0.000 A 
ATOM      3  C   UNL     1       3.871   5.793  18.195  0.00  0.00    +0.000 A 
ATOM      4  C   UNL     1       2.887   6.404  18.961  0.00  0.00    +0.000 A 
ATOM      5  C   UNL     1       2.302   5.768  20.067  0.00  0.00    +0.000 A 
ATOM      6  C   UNL     1       2.717   4.458  20.409  0.00  0.00    +0.000 A 
ENDROOT
BRANCH   1   8
ATOM      7  C   UNL     1       3.900   1.519  19.092  0.00  0.00    +0.000 C 
ATOM      8  O   UNL     1       4.215   2.604  19.971  0.00  0.00    +0.000 OA
ENDBRANCH   1   8
BRANCH   6   9
ATOM      9  O   UNL     1       2.147   3.960  21.556  0.00  0.00    +0.000 OA
ATOM     10  C   UNL     1       1.271   2.846  21.464  0.00  0.00    +0.000 C 
ENDBRANCH   6   9
BRANCH   3  11
ATOM     11  C   UNL     1       4.688   6.654  17.259  0.00  0.00    +0.000 C 
BRANCH  11  12
ATOM     12  C   UNL     1       5.444   5.866  16.211  0.00  0.00    +0.000 A 
ATOM     13  C   UNL     1       4.830   4.989  15.334  0.00  0.00    +0.000 A 
ATOM     14  N   UNL     1       5.442   4.391  14.296  0.00  0.00    +0.000 NA
ATOM     15  C   UNL     1       6.727   4.686  14.132  0.00  0.00    +0.000 A 
ATOM     16  N   UNL     1       7.351   4.176  13.013  0.00  0.00    +0.000 N 
ATOM     17  N   UNL     1       7.448   5.437  14.966  0.00  0.00    +0.000 NA
ATOM     18  C   UNL     1       6.799   6.020  15.987  0.00  0.00    +0.000 A 
ATOM     19  H   UNL     1       6.865   3.350  12.696  0.00  0.00    +0.000 HD
ATOM     20  H   UNL     1       8.346   4.111  13.164  0.00  0.00    +0.000 HD
BRANCH  18  21
ATOM     21  N   UNL     1       7.607   6.762  16.848  0.00  0.00    +0.000 N 
ATOM     22  H   UNL     1       7.493   6.366  17.778  0.00  0.00    +0.000 HD
ATOM     23  H   UNL     1       8.577   6.778  16.563  0.00  0.00    +0.000 HD
ENDBRANCH  18  21
ENDBRANCH  11  12
ENDBRANCH   3  11
BRANCH   5  24
ATOM     24  O   UNL     1       1.369   6.419  20.873  0.00  0.00    +0.000 OA
BRANCH  24  25
ATOM     25  C   UNL     1       1.541   7.841  20.875  0.00  0.00    +0.000 C 
BRANCH  25  26
ATOM     26  C   UNL     1       0.371   8.643  21.415  0.00  0.00    +0.000 C 
BRANCH  26  27
ATOM     27  C   UNL     1       0.871   9.338  22.666  0.00  0.00    +0.000 C 
ATOM     28  O   UNL     1       0.166   9.874  23.506  0.00  0.00    +0.000 OA
BRANCH  27  29
ATOM     29  O   UNL     1       2.215   9.312  22.790  0.00  0.00    +0.000 OA
ATOM     30  H   UNL     1       2.678   9.973  22.234  0.00  0.00    +0.000 HD
ENDBRANCH  27  29
ENDBRANCH  26  27
ENDBRANCH  25  26
ENDBRANCH  24  25
ENDBRANCH   5  24
TORSDOF 10
ENDMDL
MODEL 5
REMARK VINA RESULT:      -6.9      1.815      2.360
REMARK  Name = 
REMARK  12 active torsions:
REMARK  status: ('A' for Active; 'I' for Inactive)
REMARK    1  A    between atoms: C_1  and  O_2
REMARK    2  A    between atoms: O_2  and  C_3
REMARK    3  A    between atoms: C_5  and  C_6
REMARK    4  A    between atoms: C_6  and  C_7
REMARK    5  A    between atoms: C_13  and  N_14
REMARK    6  A    between atoms: C_16  and  O_17
REMARK    7  A    between atoms: O_17  and  C_18
REMARK    8  A    between atoms: C_18  and  C_19
REMARK    9  A    between atoms: C_19  and  C_20
REMARK   10  A    between atoms: C_20  and  O_22
REMARK   11  A    between atoms: C_23  and  O_24
REMARK   12  A    between atoms: O_24  and  C_25
REMARK                            x       y       z     vdW  Elec       q    Type
REMARK                         _______ _______ _______ _____ _____    ______ ____
ROOT
ATOM      1  C   UNL     1       2.648   6.114  19.900  0.00  0.00    +0.000 A 
ATOM      2  C   UNL     1       2.018   7.318  19.540  0.00  0.00    +0.000 A 
ATOM      3  C   UNL     1       2.378   7.978  18.370  0.00  0.00    +0.000 A 
ATOM      4  C   UNL     1       3.490   7.536  17.666  0.00  0.00    +0.000 A 
ATOM      5  C   UNL     1       4.195   6.380  18.036  0.00  0.00    +0.000 A 
ATOM      6  C   UNL     1       3.769   5.645  19.169  0.00  0.00    +0.000 A 
ENDROOT
BRANCH   1   8
ATOM      7  C   UNL     1       1.136   4.413  20.574  0.00  0.00    +0.000 C 
ATOM      8  O   UNL     1       2.134   5.371  20.937  0.00  0.00    +0.000 OA
ENDBRANCH   1   8
BRANCH   6   9
ATOM      9  O   UNL     1       4.472   4.486  19.394  0.00  0.00    +0.000 OA
ATOM     10  C   UNL     1       3.951   3.257  18.909  0.00  0.00    +0.000 C 
ENDBRANCH   6   9
BRANCH   3  11
ATOM     11  C   UNL     1       1.479   9.004  17.720  0.00  0.00    +0.000 C 
BRANCH  11  12
ATOM     12  C   UNL     1       1.066  10.126  18.646  0.00  0.00    +0.000 A 
ATOM     13  C   UNL     1       0.096   9.983  19.624  0.00  0.00    +0.000 A 
ATOM     14  N   UNL     1      -0.188  10.906  20.561  0.00  0.00    +0.000 NA
ATOM     15  C   UNL     1       0.532  12.022  20.513  0.00  0.00    +0.000 A 
ATOM     16  N   UNL     1       0.340  12.937  21.527  0.00  0.00    +0.000 N 
ATOM     17  N   UNL     1       1.421  12.314  19.563  0.00  0.00    +0.000 NA
ATOM     18  C   UNL     1       1.680  11.364  18.649  0.00  0.00    +0.000 A 
ATOM     19  H   UNL     1      -0.578  12.814  21.931  0.00  0.00    +0.000 HD
ATOM     20  H   UNL     1       0.603  13.861  21.221  0.00  0.00    +0.000 HD
BRANCH  18  21
ATOM     21  N   UNL     1       2.588  11.736  17.659  0.00  0.00    +0.000 N 
ATOM     22  H   UNL     1       2.109  11.646  16.767  0.00  0.00    +0.000 HD
ATOM     23  H   UNL     1       2.961  12.667  17.794  0.00  0.00    +0.000 HD
ENDBRANCH  18  21
ENDBRANCH  11  12
ENDBRANCH   3  11
BRANCH   5  24
ATOM     24  O   UNL     1       5.265   5.905  17.279  0.00  0.00    +0.000 OA
BRANCH  24  25
ATOM     25  C   UNL     1       5.133   6.214  15.886  0.00  0.00    +0.000 C 
BRANCH  25  26
ATOM     26  C   UNL     1       5.914   5.322  14.939  0.00  0.00    +0.000 C 
BRANCH  26  27
ATOM     27  C   UNL     1       6.695   4.357  15.809  0.00  0.00    +0.000 C 
ATOM     28  O   UNL     1       7.850   4.510  16.173  0.00  0.00    +0.000 OA
BRANCH  27  29
ATOM     29  O   UNL     1       5.982   3.270  16.173  0.00  0.00    +0.000 OA
ATOM     30  H   UNL     1       5.114   3.197  15.725  0.00  0.00    +0.000 HD
ENDBRANCH  27  29
ENDBRANCH  26  27
ENDBRANCH  25  26
ENDBRANCH  24  25
ENDBRANCH   5  24
TORSDOF 10
ENDMDL
MODEL 6
REMARK VINA RESULT:      -6.9      1.605      4.135
REMARK  Name = 
REMARK  12 active torsions:
REMARK  status: ('A' for Active; 'I' for Inactive)
REMARK    1  A    between atoms: C_1  and  O_2
REMARK    2  A    between atoms: O_2  and  C_3
REMARK    3  A    between atoms: C_5  and  C_6
REMARK    4  A    between atoms: C_6  and  C_7
REMARK    5  A    between atoms: C_13  and  N_14
REMARK    6  A    between atoms: C_16  and  O_17
REMARK    7  A    between atoms: O_17  and  C_18
REMARK    8  A    between atoms: C_18  and  C_19
REMARK    9  A    between atoms: C_19  and  C_20
REMARK   10  A    between atoms: C_20  and  O_22
REMARK   11  A    between atoms: C_23  and  O_24
REMARK   12  A    between atoms: O_24  and  C_25
REMARK                            x       y       z     vdW  Elec       q    Type
REMARK                         _______ _______ _______ _____ _____    ______ ____
ROOT
ATOM      1  C   UNL     1       4.848   4.672  18.573  0.00  0.00    +0.000 A 
ATOM      2  C   UNL     1       4.564   5.992  18.184  0.00  0.00    +0.000 A 
ATOM      3  C   UNL     1       3.270   6.359  17.828  0.00  0.00    +0.000 A 
ATOM      4  C   UNL     1       2.310   5.368  17.680  0.00  0.00    +0.000 A 
ATOM      5  C   UNL     1       2.574   4.023  17.984  0.00  0.00    +0.000 A 
ATOM      6  C   UNL     1       3.862   3.660  18.447  0.00  0.00    +0.000 A 
ENDROOT
BRANCH   1   8
ATOM      7  C   UNL     1       7.003   5.471  19.168  0.00  0.00    +0.000 C 
ATOM      8  O   UNL     1       6.074   4.383  19.123  0.00  0.00    +0.000 OA
ENDBRANCH   1   8
BRANCH   6   9
ATOM      9  O   UNL     1       3.991   2.338  18.798  0.00  0.00    +0.000 OA
ATOM     10  C   UNL     1       4.480   2.011  20.091  0.00  0.00    +0.000 C 
ENDBRANCH   6   9
BRANCH   3  11
ATOM     11  C   UNL     1       2.819   7.801  17.820  0.00  0.00    +0.000 C 
BRANCH  11  12
ATOM     12  C   UNL     1       1.955   8.176  19.004  0.00  0.00    +0.000 A 
ATOM     13  C   UNL     1       1.955   7.470  20.195  0.00  0.00    +0.000 A 
ATOM     14  N   UNL     1       1.320   7.860  21.315  0.00  0.00    +0.000 NA
ATOM     15  C   UNL     1       0.654   9.007  21.236  0.00  0.00    +0.000 A 
ATOM     16  N   UNL     1       0.088   9.486  22.398  0.00  0.00    +0.000 N 
ATOM     17  N   UNL     1       0.502   9.722  20.120  0.00  0.00    +0.000 NA
ATOM     18  C   UNL     1       1.156   9.304  19.025  0.00  0.00    +0.000 A 
ATOM     19  H   UNL     1      -0.077   8.723  23.039  0.00  0.00    +0.000 HD
ATOM     20  H   UNL     1      -0.683  10.101  22.186  0.00  0.00    +0.000 HD
BRANCH  18  21
ATOM     21  N   UNL     1       0.931  10.066  17.881  0.00  0.00    +0.000 N 
ATOM     22  H   UNL     1       0.761  11.021  18.187  0.00  0.00    +0.000 HD
ATOM     23  H   UNL     1       1.692  10.015  17.216  0.00  0.00    +0.000 HD
ENDBRANCH  18  21
ENDBRANCH  11  12
ENDBRANCH   3  11
BRANCH   5  24
ATOM     24  O   UNL     1       1.580   3.048  17.903  0.00  0.00    +0.000 OA
BRANCH  24  25
ATOM     25  C   UNL     1       1.066   2.677  19.187  0.00  0.00    +0.000 C 
BRANCH  25  26
ATOM     26  C   UNL     1       0.757   3.827  20.127  0.00  0.00    +0.000 C 
BRANCH  26  27
ATOM     27  C   UNL     1       1.627   3.624  21.352  0.00  0.00    +0.000 C 
ATOM     28  O   UNL     1       2.503   4.385  21.731  0.00  0.00    +0.000 OA
BRANCH  27  29
ATOM     29  O   UNL     1       1.343   2.489  22.026  0.00  0.00    +0.000 OA
ATOM     30  H   UNL     1       2.125   2.065  22.436  0.00  0.00    +0.000 HD
ENDBRANCH  27  29
ENDBRANCH  26  27
ENDBRANCH  25  26
ENDBRANCH  24  25
ENDBRANCH   5  24
TORSDOF 10
ENDMDL
MODEL 7
REMARK VINA RESULT:      -6.8      1.865      2.596
REMARK  Name = 
REMARK  12 active torsions:
REMARK  status: ('A' for Active; 'I' for Inactive)
REMARK    1  A    between atoms: C_1  and  O_2
REMARK    2  A    between atoms: O_2  and  C_3
REMARK    3  A    between atoms: C_5  and  C_6
REMARK    4  A    between atoms: C_6  and  C_7
REMARK    5  A    between atoms: C_13  and  N_14
REMARK    6  A    between atoms: C_16  and  O_17
REMARK    7  A    between atoms: O_17  and  C_18
REMARK    8  A    between atoms: C_18  and  C_19
REMARK    9  A    between atoms: C_19  and  C_20
REMARK   10  A    between atoms: C_20  and  O_22
REMARK   11  A    between atoms: C_23  and  O_24
REMARK   12  A    between atoms: O_24  and  C_25
REMARK                            x       y       z     vdW  Elec       q    Type
REMARK                         _______ _______ _______ _____ _____    ______ ____
ROOT
ATOM      1  C   UNL     1       2.719   6.080  19.795  0.00  0.00    +0.000 A 
ATOM      2  C   UNL     1       2.112   7.304  19.463  0.00  0.00    +0.000 A 
ATOM      3  C   UNL     1       2.407   7.933  18.258  0.00  0.00    +0.000 A 
ATOM      4  C   UNL     1       3.443   7.435  17.479  0.00  0.00    +0.000 A 
ATOM      5  C   UNL     1       4.127   6.257  17.814  0.00  0.00    +0.000 A 
ATOM      6  C   UNL     1       3.761   5.556  18.988  0.00  0.00    +0.000 A 
ENDROOT
BRANCH   1   8
ATOM      7  C   UNL     1       1.192   4.457  20.612  0.00  0.00    +0.000 C 
ATOM      8  O   UNL     1       2.257   5.374  20.880  0.00  0.00    +0.000 OA
ENDBRANCH   1   8
BRANCH   6   9
ATOM      9  O   UNL     1       4.432   4.372  19.179  0.00  0.00    +0.000 OA
ATOM     10  C   UNL     1       3.928   3.187  18.578  0.00  0.00    +0.000 C 
ENDBRANCH   6   9
BRANCH   3  11
ATOM     11  C   UNL     1       1.503   8.986  17.661  0.00  0.00    +0.000 C 
BRANCH  11  12
ATOM     12  C   UNL     1       1.103  10.070  18.637  0.00  0.00    +0.000 A 
ATOM     13  C   UNL     1       0.189   9.873  19.658  0.00  0.00    +0.000 A 
ATOM     14  N   UNL     1      -0.074  10.761  20.633  0.00  0.00    +0.000 NA
ATOM     15  C   UNL     1       0.608  11.900  20.580  0.00  0.00    +0.000 A 
ATOM     16  N   UNL     1       0.441  12.782  21.626  0.00  0.00    +0.000 N 
ATOM     17  N   UNL     1       1.440  12.244  19.595  0.00  0.00    +0.000 NA
ATOM     18  C   UNL     1       1.681  11.327  18.644  0.00  0.00    +0.000 A 
ATOM     19  H   UNL     1      -0.451  12.621  22.072  0.00  0.00    +0.000 HD
ATOM     20  H   UNL     1       0.661  13.722  21.333  0.00  0.00    +0.000 HD
BRANCH  18  21
ATOM     21  N   UNL     1       2.526  11.752  17.620  0.00  0.00    +0.000 N 
ATOM     22  H   UNL     1       3.185  10.998  17.446  0.00  0.00    +0.000 HD
ATOM     23  H   UNL     1       2.028  12.017  16.781  0.00  0.00    +0.000 HD
ENDBRANCH  18  21
ENDBRANCH  11  12
ENDBRANCH   3  11
BRANCH   5  24
ATOM     24  O   UNL     1       5.115   5.727  16.985  0.00  0.00    +0.000 OA
BRANCH  24  25
ATOM     25  C   UNL     1       6.395   6.338  17.193  0.00  0.00    +0.000 C 
BRANCH  25  26
ATOM     26  C   UNL     1       7.475   5.428  17.745  0.00  0.00    +0.000 C 
BRANCH  26  27
ATOM     27  C   UNL     1       7.803   5.947  19.131  0.00  0.00    +0.000 C 
ATOM     28  O   UNL     1       7.488   5.408  20.180  0.00  0.00    +0.000 OA
BRANCH  27  29
ATOM     29  O   UNL     1       8.510   7.097  19.116  0.00  0.00    +0.000 OA
ATOM     30  H   UNL     1       8.240   7.737  19.807  0.00  0.00    +0.000 HD
ENDBRANCH  27  29
ENDBRANCH  26  27
ENDBRANCH  25  26
ENDBRANCH  24  25
ENDBRANCH   5  24
TORSDOF 10
ENDMDL
MODEL 8
REMARK VINA RESULT:      -6.8      3.723      5.556
REMARK  Name = 
REMARK  12 active torsions:
REMARK  status: ('A' for Active; 'I' for Inactive)
REMARK    1  A    between atoms: C_1  and  O_2
REMARK    2  A    between atoms: O_2  and  C_3
REMARK    3  A    between atoms: C_5  and  C_6
REMARK    4  A    between atoms: C_6  and  C_7
REMARK    5  A    between atoms: C_13  and  N_14
REMARK    6  A    between atoms: C_16  and  O_17
REMARK    7  A    between atoms: O_17  and  C_18
REMARK    8  A    between atoms: C_18  and  C_19
REMARK    9  A    between atoms: C_19  and  C_20
REMARK   10  A    between atoms: C_20  and  O_22
REMARK   11  A    between atoms: C_23  and  O_24
REMARK   12  A    between atoms: O_24  and  C_25
REMARK                            x       y       z     vdW  Elec       q    Type
REMARK                         _______ _______ _______ _____ _____    ______ ____
ROOT
ATOM      1  C   UNL     1       4.437   6.160  17.277  0.00  0.00    +0.000 A 
ATOM      2  C   UNL     1       3.554   5.078  17.433  0.00  0.00    +0.000 A 
ATOM      3  C   UNL     1       3.891   3.817  16.953  0.00  0.00    +0.000 A 
ATOM      4  C   UNL     1       5.020   3.684  16.157  0.00  0.00    +0.000 A 
ATOM      5  C   UNL     1       5.890   4.758  15.912  0.00  0.00    +0.000 A 
ATOM      6  C   UNL     1       5.605   6.021  16.484  0.00  0.00    +0.000 A 
ENDROOT
BRANCH   1   8
ATOM      7  C   UNL     1       2.813   7.745  17.972  0.00  0.00    +0.000 C 
ATOM      8  O   UNL     1       4.184   7.336  17.942  0.00  0.00    +0.000 OA
ENDBRANCH   1   8
BRANCH   6   9
ATOM      9  O   UNL     1       6.562   6.981  16.255  0.00  0.00    +0.000 OA
ATOM     10  C   UNL     1       7.460   7.324  17.301  0.00  0.00    +0.000 C 
ENDBRANCH   6   9
BRANCH   3  11
ATOM     11  C   UNL     1       3.212   2.562  17.450  0.00  0.00    +0.000 C 
BRANCH  11  12
ATOM     12  C   UNL     1       2.643   2.689  18.845  0.00  0.00    +0.000 A 
ATOM     13  C   UNL     1       1.307   2.950  19.098  0.00  0.00    +0.000 A 
ATOM     14  N   UNL     1       0.738   2.918  20.316  0.00  0.00    +0.000 NA
ATOM     15  C   UNL     1       1.545   2.613  21.326  0.00  0.00    +0.000 A 
ATOM     16  N   UNL     1       0.967   2.463  22.569  0.00  0.00    +0.000 N 
ATOM     17  N   UNL     1       2.863   2.438  21.220  0.00  0.00    +0.000 NA
ATOM     18  C   UNL     1       3.392   2.472  19.987  0.00  0.00    +0.000 A 
ATOM     19  H   UNL     1       0.102   2.982  22.610  0.00  0.00    +0.000 HD
ATOM     20  H   UNL     1       1.649   2.622  23.295  0.00  0.00    +0.000 HD
BRANCH  18  21
ATOM     21  N   UNL     1       4.777   2.321  19.938  0.00  0.00    +0.000 N 
ATOM     22  H   UNL     1       5.072   2.575  18.999  0.00  0.00    +0.000 HD
ATOM     23  H   UNL     1       5.259   2.864  20.643  0.00  0.00    +0.000 HD
ENDBRANCH  18  21
ENDBRANCH  11  12
ENDBRANCH   3  11
BRANCH   5  24
ATOM     24  O   UNL     1       7.060   4.594  15.171  0.00  0.00    +0.000 OA
BRANCH  24  25
ATOM     25  C   UNL     1       6.902   4.978  13.800  0.00  0.00    +0.000 C 
BRANCH  25  26
ATOM     26  C   UNL     1       7.272   3.921  12.776  0.00  0.00    +0.000 C 
BRANCH  26  27
ATOM     27  C   UNL     1       5.973   3.266  12.350  0.00  0.00    +0.000 C 
ATOM     28  O   UNL     1       5.881   2.256  11.671  0.00  0.00    +0.000 OA
BRANCH  27  29
ATOM     29  O   UNL     1       4.877   3.910  12.805  0.00  0.00    +0.000 OA
ATOM     30  H   UNL     1       5.036   4.849  13.036  0.00  0.00    +0.000 HD
ENDBRANCH  27  29
ENDBRANCH  26  27
ENDBRANCH  25  26
ENDBRANCH  24  25
ENDBRANCH   5  24
TORSDOF 10
ENDMDL
MODEL 9
REMARK VINA RESULT:      -6.8      1.800      2.294
REMARK  Name = 
REMARK  12 active torsions:
REMARK  status: ('A' for Active; 'I' for Inactive)
REMARK    1  A    between atoms: C_1  and  O_2
REMARK    2  A    between atoms: O_2  and  C_3
REMARK    3  A    between atoms: C_5  and  C_6
REMARK    4  A    between atoms: C_6  and  C_7
REMARK    5  A    between atoms: C_13  and  N_14
REMARK    6  A    between atoms: C_16  and  O_17
REMARK    7  A    between atoms: O_17  and  C_18
REMARK    8  A    between atoms: C_18  and  C_19
REMARK    9  A    between atoms: C_19  and  C_20
REMARK   10  A    between atoms: C_20  and  O_22
REMARK   11  A    between atoms: C_23  and  O_24
REMARK   12  A    between atoms: O_24  and  C_25
REMARK                            x       y       z     vdW  Elec       q    Type
REMARK                         _______ _______ _______ _____ _____    ______ ____
ROOT
ATOM      1  C   UNL     1       2.393   5.602  19.252  0.00  0.00    +0.000 A 
ATOM      2  C   UNL     1       1.835   6.885  19.116  0.00  0.00    +0.000 A 
ATOM      3  C   UNL     1       2.418   7.820  18.268  0.00  0.00    +0.000 A 
ATOM      4  C   UNL     1       3.655   7.536  17.706  0.00  0.00    +0.000 A 
ATOM      5  C   UNL     1       4.284   6.293  17.880  0.00  0.00    +0.000 A 
ATOM      6  C   UNL     1       3.646   5.299  18.659  0.00  0.00    +0.000 A 
ENDROOT
BRANCH   1   8
ATOM      7  C   UNL     1       2.159   4.322  21.238  0.00  0.00    +0.000 C 
ATOM      8  O   UNL     1       1.688   4.630  19.922  0.00  0.00    +0.000 OA
ENDBRANCH   1   8
BRANCH   6   9
ATOM      9  O   UNL     1       4.302   4.092  18.695  0.00  0.00    +0.000 OA
ATOM     10  C   UNL     1       3.901   3.061  17.805  0.00  0.00    +0.000 C 
ENDBRANCH   6   9
BRANCH   3  11
ATOM     11  C   UNL     1       1.658   9.022  17.757  0.00  0.00    +0.000 C 
BRANCH  11  12
ATOM     12  C   UNL     1       0.771   9.669  18.797  0.00  0.00    +0.000 A 
ATOM     13  C   UNL     1       1.166   9.876  20.108  0.00  0.00    +0.000 A 
ATOM     14  N   UNL     1       0.468  10.581  21.015  0.00  0.00    +0.000 NA
ATOM     15  C   UNL     1      -0.679  11.100  20.590  0.00  0.00    +0.000 A 
ATOM     16  N   UNL     1      -1.361  11.920  21.465  0.00  0.00    +0.000 N 
ATOM     17  N   UNL     1      -1.209  10.888  19.384  0.00  0.00    +0.000 NA
ATOM     18  C   UNL     1      -0.479  10.184  18.505  0.00  0.00    +0.000 A 
ATOM     19  H   UNL     1      -1.102  11.698  22.415  0.00  0.00    +0.000 HD
ATOM     20  H   UNL     1      -2.342  11.942  21.233  0.00  0.00    +0.000 HD
BRANCH  18  21
ATOM     21  N   UNL     1      -1.097   9.960  17.276  0.00  0.00    +0.000 N 
ATOM     22  H   UNL     1      -2.014   9.566  17.471  0.00  0.00    +0.000 HD
ATOM     23  H   UNL     1      -1.159  10.794  16.707  0.00  0.00    +0.000 HD
ENDBRANCH  18  21
ENDBRANCH  11  12
ENDBRANCH   3  11
BRANCH   5  24
ATOM     24  O   UNL     1       5.492   5.993  17.251  0.00  0.00    +0.000 OA
BRANCH  24  25
ATOM     25  C   UNL     1       6.429   7.076  17.312  0.00  0.00    +0.000 C 
BRANCH  25  26
ATOM     26  C   UNL     1       7.723   6.782  18.048  0.00  0.00    +0.000 C 
BRANCH  26  27
ATOM     27  C   UNL     1       7.582   5.385  18.619  0.00  0.00    +0.000 C 
ATOM     28  O   UNL     1       7.976   4.360  18.086  0.00  0.00    +0.000 OA
BRANCH  27  29
ATOM     29  O   UNL     1       6.966   5.360  19.820  0.00  0.00    +0.000 OA
ATOM     30  H   UNL     1       6.261   6.033  19.919  0.00  0.00    +0.000 HD
ENDBRANCH  27  29
ENDBRANCH  26  27
ENDBRANCH  25  26
ENDBRANCH  24  25
ENDBRANCH   5  24
TORSDOF 10
ENDMDL
