MODEL 1
REMARK VINA RESULT:      -7.5      0.000      0.000
REMARK  Name = 
REMARK  5 active torsions:
REMARK  status: ('A' for Active; 'I' for Inactive)
REMARK    1  A    between atoms: C_1  and  C_2
REMARK    2  A    between atoms: C_2  and  O_3
REMARK    3  A    between atoms: O_3  and  C_4
REMARK    4  A    between atoms: N_9  and  C_10
REMARK    5  A    between atoms: C_10  and  C_11
REMARK                            x       y       z     vdW  Elec       q    Type
REMARK                         _______ _______ _______ _____ _____    ______ ____
ROOT
ATOM      1  C   UNL     1       4.219   3.172  19.558  0.00  0.00    +0.000 C 
ATOM      2  O   UNL     1       5.207   2.528  19.897  0.00  0.00    +0.000 OA
ATOM      3  N   UNL     1       4.226   4.403  18.939  0.00  0.00    +0.000 N 
ATOM      4  C   UNL     1       3.095   5.116  18.437  0.00  0.00    +0.000 A 
ATOM      5  O   UNL     1       1.915   4.796  18.459  0.00  0.00    +0.000 OA
ATOM      6  N   UNL     1       3.590   6.307  17.861  0.00  0.00    +0.000 N 
ATOM      7  C   UNL     1       4.985   6.289  17.915  0.00  0.00    +0.000 A 
ATOM      8  C   UNL     1       5.896   7.197  17.407  0.00  0.00    +0.000 A 
ATOM      9  C   UNL     1       7.253   6.911  17.588  0.00  0.00    +0.000 A 
ATOM     10  C   UNL     1       7.660   5.752  18.266  0.00  0.00    +0.000 A 
ATOM     11  C   UNL     1       6.723   4.844  18.777  0.00  0.00    +0.000 A 
ATOM     12  C   UNL     1       5.384   5.130  18.583  0.00  0.00    +0.000 A 
ENDROOT
BRANCH   1  13
ATOM     13  O   UNL     1       2.947   2.694  19.716  0.00  0.00    +0.000 OA
BRANCH  13  15
ATOM     14  C   UNL     1       1.257   3.185  21.330  0.00  0.00    +0.000 C 
ATOM     15  C   UNL     1       2.533   2.409  21.055  0.00  0.00    +0.000 C 
ENDBRANCH  13  15
ENDBRANCH   1  13
BRANCH   6  16
ATOM     16  C   UNL     1       2.762   7.330  17.270  0.00  0.00    +0.000 C 
BRANCH  16  17
ATOM     17  C   UNL     1       2.087   8.197  18.307  0.00  0.00    +0.000 A 
ATOM     18  C   UNL     1       2.080   7.815  19.660  0.00  0.00    +0.000 A 
ATOM     19  C   UNL     1       1.338   8.537  20.594  0.00  0.00    +0.000 A 
ATOM     20  C   UNL     1       0.628   9.657  20.183  0.00  0.00    +0.000 A 
ATOM     21  F   UNL     1      -0.129  10.320  21.067  0.00  0.00    +0.000 F 
ATOM     22  C   UNL     1       0.682  10.096  18.866  0.00  0.00    +0.000 A 
ATOM     23  C   UNL     1       1.416   9.370  17.927  0.00  0.00    +0.000 A 
ENDBRANCH  16  17
ENDBRANCH   6  16
TORSDOF 4
ENDMDL
MODEL 2
REMARK VINA RESULT:      -7.3      0.150      1.020
REMARK  Name = 
REMARK  5 active torsions:
REMARK  status: ('A' for Active; 'I' for Inactive)
REMARK    1  A    between atoms: C_1  and  C_2
REMARK    2  A    between atoms: C_2  and  O_3
REMARK    3  A    between atoms: O_3  and  C_4
REMARK    4  A    between atoms: N_9  and  C_10
REMARK    5  A    between atoms: C_10  and  C_11
REMARK                            x       y       z     vdW  Elec       q    Type
REMARK                         _______ _______ _______ _____ _____    ______ ____
ROOT
ATOM      1  C   UNL     1       4.247   3.202  19.531  0.00  0.00    +0.000 C 
ATOM      2  O   UNL     1       5.230   2.552  19.872  0.00  0.00    +0.000 OA
ATOM      3  N   UNL     1       4.263   4.436  18.915  0.00  0.00    +0.000 N 
ATOM      4  C   UNL     1       3.138   5.156  18.412  0.00  0.00    +0.000 A 
ATOM      5  O   UNL     1       1.956   4.843  18.429  0.00  0.00    +0.000 OA
ATOM      6  N   UNL     1       3.642   6.346  17.840  0.00  0.00    +0.000 N 
ATOM      7  C   UNL     1       5.037   6.319  17.899  0.00  0.00    +0.000 A 
ATOM      8  C   UNL     1       5.955   7.223  17.397  0.00  0.00    +0.000 A 
ATOM      9  C   UNL     1       7.309   6.929  17.581  0.00  0.00    +0.000 A 
ATOM     10  C   UNL     1       7.707   5.766  18.258  0.00  0.00    +0.000 A 
ATOM     11  C   UNL     1       6.763   4.862  18.763  0.00  0.00    +0.000 A 
ATOM     12  C   UNL     1       5.426   5.157  18.565  0.00  0.00    +0.000 A 
ENDROOT
BRANCH   1  13
ATOM     13  O   UNL     1       2.972   2.732  19.684  0.00  0.00    +0.000 OA
BRANCH  13  15
ATOM     14  C   UNL     1       1.048   2.965  21.078  0.00  0.00    +0.000 C 
ATOM     15  C   UNL     1       2.510   2.560  21.027  0.00  0.00    +0.000 C 
ENDBRANCH  13  15
ENDBRANCH   1  13
BRANCH   6  16
ATOM     16  C   UNL     1       2.822   7.375  17.250  0.00  0.00    +0.000 C 
BRANCH  16  17
ATOM     17  C   UNL     1       2.038   8.152  18.281  0.00  0.00    +0.000 A 
ATOM     18  C   UNL     1       1.296   9.286  17.906  0.00  0.00    +0.000 A 
ATOM     19  C   UNL     1       0.690  10.085  18.875  0.00  0.00    +0.000 A 
ATOM     20  C   UNL     1       0.799   9.736  20.215  0.00  0.00    +0.000 A 
ATOM     21  F   UNL     1       0.265  10.531  21.151  0.00  0.00    +0.000 F 
ATOM     22  C   UNL     1       1.464   8.579  20.601  0.00  0.00    +0.000 A 
ATOM     23  C   UNL     1       2.080   7.782  19.635  0.00  0.00    +0.000 A 
ENDBRANCH  16  17
ENDBRANCH   6  16
TORSDOF 4
ENDMDL
MODEL 3
REMARK VINA RESULT:      -7.3      3.528      5.721
REMARK  Name = 
REMARK  5 active torsions:
REMARK  status: ('A' for Active; 'I' for Inactive)
REMARK    1  A    between atoms: C_1  and  C_2
REMARK    2  A    between atoms: C_2  and  O_3
REMARK    3  A    between atoms: O_3  and  C_4
REMARK    4  A    between atoms: N_9  and  C_10
REMARK    5  A    between atoms: C_10  and  C_11
REMARK                            x       y       z     vdW  Elec       q    Type
REMARK                         _______ _______ _______ _____ _____    ______ ____
ROOT
ATOM      1  C   UNL     1       2.398   4.459  20.458  0.00  0.00    +0.000 C 
ATOM      2  O   UNL     1       1.396   5.095  20.768  0.00  0.00    +0.000 OA
ATOM      3  N   UNL     1       3.349   4.841  19.536  0.00  0.00    +0.000 N 
ATOM      4  C   UNL     1       4.576   4.171  19.244  0.00  0.00    +0.000 A 
ATOM      5  O   UNL     1       5.023   3.141  19.729  0.00  0.00    +0.000 OA
ATOM      6  N   UNL     1       5.235   4.944  18.262  0.00  0.00    +0.000 N 
ATOM      7  C   UNL     1       4.492   6.102  18.026  0.00  0.00    +0.000 A 
ATOM      8  C   UNL     1       4.783   7.182  17.211  0.00  0.00    +0.000 A 
ATOM      9  C   UNL     1       3.858   8.229  17.184  0.00  0.00    +0.000 A 
ATOM     10  C   UNL     1       2.682   8.172  17.949  0.00  0.00    +0.000 A 
ATOM     11  C   UNL     1       2.402   7.069  18.766  0.00  0.00    +0.000 A 
ATOM     12  C   UNL     1       3.330   6.043  18.795  0.00  0.00    +0.000 A 
ENDROOT
BRANCH   1  13
ATOM     13  O   UNL     1       2.724   3.274  21.057  0.00  0.00    +0.000 OA
BRANCH  13  15
ATOM     14  C   UNL     1       1.546   1.896  19.503  0.00  0.00    +0.000 C 
ATOM     15  C   UNL     1       1.755   2.225  20.971  0.00  0.00    +0.000 C 
ENDBRANCH  13  15
ENDBRANCH   1  13
BRANCH   6  16
ATOM     16  C   UNL     1       6.499   4.592  17.663  0.00  0.00    +0.000 C 
BRANCH  16  17
ATOM     17  C   UNL     1       6.416   4.488  16.158  0.00  0.00    +0.000 A 
ATOM     18  C   UNL     1       5.416   3.707  15.552  0.00  0.00    +0.000 A 
ATOM     19  C   UNL     1       5.425   3.494  14.174  0.00  0.00    +0.000 A 
ATOM     20  C   UNL     1       6.413   4.086  13.398  0.00  0.00    +0.000 A 
ATOM     21  F   UNL     1       6.455   3.839  12.082  0.00  0.00    +0.000 F 
ATOM     22  C   UNL     1       7.366   4.922  13.966  0.00  0.00    +0.000 A 
ATOM     23  C   UNL     1       7.365   5.129  15.346  0.00  0.00    +0.000 A 
ENDBRANCH  16  17
ENDBRANCH   6  16
TORSDOF 4
ENDMDL
MODEL 4
REMARK VINA RESULT:      -7.3      2.919      5.838
REMARK  Name = 
REMARK  5 active torsions:
REMARK  status: ('A' for Active; 'I' for Inactive)
REMARK    1  A    between atoms: C_1  and  C_2
REMARK    2  A    between atoms: C_2  and  O_3
REMARK    3  A    between atoms: O_3  and  C_4
REMARK    4  A    between atoms: N_9  and  C_10
REMARK    5  A    between atoms: C_10  and  C_11
REMARK                            x       y       z     vdW  Elec       q    Type
REMARK                         _______ _______ _______ _____ _____    ______ ____
ROOT
ATOM      1  C   UNL     1       1.263   7.377  20.416  0.00  0.00    +0.000 C 
ATOM      2  O   UNL     1       0.415   7.116  21.262  0.00  0.00    +0.000 OA
ATOM      3  N   UNL     1       2.034   6.461  19.731  0.00  0.00    +0.000 N 
ATOM      4  C   UNL     1       2.945   6.735  18.667  0.00  0.00    +0.000 A 
ATOM      5  O   UNL     1       3.231   7.810  18.159  0.00  0.00    +0.000 OA
ATOM      6  N   UNL     1       3.476   5.491  18.258  0.00  0.00    +0.000 N 
ATOM      7  C   UNL     1       2.845   4.474  18.976  0.00  0.00    +0.000 A 
ATOM      8  C   UNL     1       2.982   3.102  18.861  0.00  0.00    +0.000 A 
ATOM      9  C   UNL     1       2.198   2.308  19.703  0.00  0.00    +0.000 A 
ATOM     10  C   UNL     1       1.319   2.891  20.629  0.00  0.00    +0.000 A 
ATOM     11  C   UNL     1       1.195   4.283  20.734  0.00  0.00    +0.000 A 
ATOM     12  C   UNL     1       1.967   5.059  19.888  0.00  0.00    +0.000 A 
ENDROOT
BRANCH   1  13
ATOM     13  O   UNL     1       1.513   8.656  20.002  0.00  0.00    +0.000 OA
BRANCH  13  15
ATOM     14  C   UNL     1       0.084  10.174  18.837  0.00  0.00    +0.000 C 
ATOM     15  C   UNL     1       0.462   9.607  20.194  0.00  0.00    +0.000 C 
ENDBRANCH  13  15
ENDBRANCH   1  13
BRANCH   6  16
ATOM     16  C   UNL     1       4.468   5.331  17.223  0.00  0.00    +0.000 C 
BRANCH  16  17
ATOM     17  C   UNL     1       5.793   5.958  17.591  0.00  0.00    +0.000 A 
ATOM     18  C   UNL     1       6.558   5.436  18.650  0.00  0.00    +0.000 A 
ATOM     19  C   UNL     1       7.707   6.098  19.082  0.00  0.00    +0.000 A 
ATOM     20  C   UNL     1       8.108   7.261  18.439  0.00  0.00    +0.000 A 
ATOM     21  F   UNL     1       9.181   7.927  18.888  0.00  0.00    +0.000 F 
ATOM     22  C   UNL     1       7.409   7.752  17.343  0.00  0.00    +0.000 A 
ATOM     23  C   UNL     1       6.254   7.098  16.914  0.00  0.00    +0.000 A 
ENDBRANCH  16  17
ENDBRANCH   6  16
TORSDOF 4
ENDMDL
MODEL 5
REMARK VINA RESULT:      -7.2      4.071      7.390
REMARK  Name = 
REMARK  5 active torsions:
REMARK  status: ('A' for Active; 'I' for Inactive)
REMARK    1  A    between atoms: C_1  and  C_2
REMARK    2  A    between atoms: C_2  and  O_3
REMARK    3  A    between atoms: O_3  and  C_4
REMARK    4  A    between atoms: N_9  and  C_10
REMARK    5  A    between atoms: C_10  and  C_11
REMARK                            x       y       z     vdW  Elec       q    Type
REMARK                         _______ _______ _______ _____ _____    ______ ____
ROOT
ATOM      1  C   UNL     1      -1.414  10.709  18.525  0.00  0.00    +0.000 C 
ATOM      2  O   UNL     1      -2.315  11.347  19.059  0.00  0.00    +0.000 OA
ATOM      3  N   UNL     1      -0.391  10.050  19.173  0.00  0.00    +0.000 N 
ATOM      4  C   UNL     1       0.600   9.212  18.578  0.00  0.00    +0.000 A 
ATOM      5  O   UNL     1       0.751   8.918  17.401  0.00  0.00    +0.000 OA
ATOM      6  N   UNL     1       1.412   8.735  19.632  0.00  0.00    +0.000 N 
ATOM      7  C   UNL     1       0.884   9.180  20.845  0.00  0.00    +0.000 A 
ATOM      8  C   UNL     1       1.293   8.901  22.137  0.00  0.00    +0.000 A 
ATOM      9  C   UNL     1       0.556   9.472  23.178  0.00  0.00    +0.000 A 
ATOM     10  C   UNL     1      -0.545  10.300  22.912  0.00  0.00    +0.000 A 
ATOM     11  C   UNL     1      -0.944  10.575  21.597  0.00  0.00    +0.000 A 
ATOM     12  C   UNL     1      -0.215   9.996  20.574  0.00  0.00    +0.000 A 
ENDROOT
BRANCH   1  13
ATOM     13  O   UNL     1      -1.352  10.528  17.171  0.00  0.00    +0.000 OA
BRANCH  13  15
ATOM     14  C   UNL     1      -2.785  10.610  15.262  0.00  0.00    +0.000 C 
ATOM     15  C   UNL     1      -2.473   9.884  16.559  0.00  0.00    +0.000 C 
ENDBRANCH  13  15
ENDBRANCH   1  13
BRANCH   6  16
ATOM     16  C   UNL     1       2.559   7.880  19.451  0.00  0.00    +0.000 C 
BRANCH  16  17
ATOM     17  C   UNL     1       2.183   6.419  19.361  0.00  0.00    +0.000 A 
ATOM     18  C   UNL     1       2.222   5.748  18.126  0.00  0.00    +0.000 A 
ATOM     19  C   UNL     1       1.740   4.445  18.015  0.00  0.00    +0.000 A 
ATOM     20  C   UNL     1       1.247   3.801  19.143  0.00  0.00    +0.000 A 
ATOM     21  F   UNL     1       0.733   2.569  19.028  0.00  0.00    +0.000 F 
ATOM     22  C   UNL     1       1.268   4.418  20.387  0.00  0.00    +0.000 A 
ATOM     23  C   UNL     1       1.741   5.726  20.499  0.00  0.00    +0.000 A 
ENDBRANCH  16  17
ENDBRANCH   6  16
TORSDOF 4
ENDMDL
MODEL 6
REMARK VINA RESULT:      -7.2      4.447      5.946
REMARK  Name = 
REMARK  5 active torsions:
REMARK  status: ('A' for Active; 'I' for Inactive)
REMARK    1  A    between atoms: C_1  and  C_2
REMARK    2  A    between atoms: C_2  and  O_3
REMARK    3  A    between atoms: O_3  and  C_4
REMARK    4  A    between atoms: N_9  and  C_10
REMARK    5  A    between atoms: C_10  and  C_11
REMARK                            x       y       z     vdW  Elec       q    Type
REMARK                         _______ _______ _______ _____ _____    ______ ____
ROOT
ATOM      1  C   UNL     1       4.404   3.043  19.317  0.00  0.00    +0.000 C 
ATOM      2  O   UNL     1       4.867   2.838  20.434  0.00  0.00    +0.000 OA
ATOM      3  N   UNL     1       4.862   3.973  18.407  0.00  0.00    +0.000 N 
ATOM      4  C   UNL     1       4.410   4.151  17.064  0.00  0.00    +0.000 A 
ATOM      5  O   UNL     1       3.540   3.540  16.460  0.00  0.00    +0.000 OA
ATOM      6  N   UNL     1       5.188   5.192  16.510  0.00  0.00    +0.000 N 
ATOM      7  C   UNL     1       6.153   5.579  17.442  0.00  0.00    +0.000 A 
ATOM      8  C   UNL     1       7.178   6.499  17.315  0.00  0.00    +0.000 A 
ATOM      9  C   UNL     1       8.022   6.672  18.416  0.00  0.00    +0.000 A 
ATOM     10  C   UNL     1       7.823   5.942  19.598  0.00  0.00    +0.000 A 
ATOM     11  C   UNL     1       6.778   5.015  19.710  0.00  0.00    +0.000 A 
ATOM     12  C   UNL     1       5.955   4.844  18.611  0.00  0.00    +0.000 A 
ENDROOT
BRANCH   1  13
ATOM     13  O   UNL     1       3.371   2.306  18.808  0.00  0.00    +0.000 OA
BRANCH  13  15
ATOM     14  C   UNL     1       1.283   3.361  19.287  0.00  0.00    +0.000 C 
ATOM     15  C   UNL     1       2.200   2.198  19.622  0.00  0.00    +0.000 C 
ENDBRANCH  13  15
ENDBRANCH   1  13
BRANCH   6  16
ATOM     16  C   UNL     1       5.022   5.709  15.174  0.00  0.00    +0.000 C 
BRANCH  16  17
ATOM     17  C   UNL     1       5.754   4.884  14.141  0.00  0.00    +0.000 A 
ATOM     18  C   UNL     1       7.102   5.149  13.843  0.00  0.00    +0.000 A 
ATOM     19  C   UNL     1       7.736   4.486  12.792  0.00  0.00    +0.000 A 
ATOM     20  C   UNL     1       7.034   3.539  12.060  0.00  0.00    +0.000 A 
ATOM     21  F   UNL     1       7.623   2.941  11.015  0.00  0.00    +0.000 F 
ATOM     22  C   UNL     1       5.724   3.208  12.385  0.00  0.00    +0.000 A 
ATOM     23  C   UNL     1       5.084   3.876  13.429  0.00  0.00    +0.000 A 
ENDBRANCH  16  17
ENDBRANCH   6  16
TORSDOF 4
ENDMDL
MODEL 7
REMARK VINA RESULT:      -7.2      3.436      5.695
REMARK  Name = 
REMARK  5 active torsions:
REMARK  status: ('A' for Active; 'I' for Inactive)
REMARK    1  A    between atoms: C_1  and  C_2
REMARK    2  A    between atoms: C_2  and  O_3
REMARK    3  A    between atoms: O_3  and  C_4
REMARK    4  A    between atoms: N_9  and  C_10
REMARK    5  A    between atoms: C_10  and  C_11
REMARK                            x       y       z     vdW  Elec       q    Type
REMARK                         _______ _______ _______ _____ _____    ______ ____
ROOT
ATOM      1  C   UNL     1       2.342   4.456  20.435  0.00  0.00    +0.000 C 
ATOM      2  O   UNL     1       1.311   5.065  20.698  0.00  0.00    +0.000 OA
ATOM      3  N   UNL     1       3.317   4.858  19.546  0.00  0.00    +0.000 N 
ATOM      4  C   UNL     1       4.573   4.222  19.309  0.00  0.00    +0.000 A 
ATOM      5  O   UNL     1       5.031   3.211  19.823  0.00  0.00    +0.000 OA
ATOM      6  N   UNL     1       5.248   5.005  18.345  0.00  0.00    +0.000 N 
ATOM      7  C   UNL     1       4.481   6.138  18.068  0.00  0.00    +0.000 A 
ATOM      8  C   UNL     1       4.771   7.218  17.254  0.00  0.00    +0.000 A 
ATOM      9  C   UNL     1       3.817   8.237  17.179  0.00  0.00    +0.000 A 
ATOM     10  C   UNL     1       2.615   8.152  17.898  0.00  0.00    +0.000 A 
ATOM     11  C   UNL     1       2.335   7.049  18.716  0.00  0.00    +0.000 A 
ATOM     12  C   UNL     1       3.291   6.052  18.792  0.00  0.00    +0.000 A 
ENDROOT
BRANCH   1  13
ATOM     13  O   UNL     1       2.680   3.287  21.059  0.00  0.00    +0.000 OA
BRANCH  13  15
ATOM     14  C   UNL     1       1.583   1.908  19.447  0.00  0.00    +0.000 C 
ATOM     15  C   UNL     1       1.757   2.202  20.927  0.00  0.00    +0.000 C 
ENDBRANCH  13  15
ENDBRANCH   1  13
BRANCH   6  16
ATOM     16  C   UNL     1       6.544   4.685  17.800  0.00  0.00    +0.000 C 
BRANCH  16  17
ATOM     17  C   UNL     1       6.493   4.401  16.317  0.00  0.00    +0.000 A 
ATOM     18  C   UNL     1       7.412   5.008  15.443  0.00  0.00    +0.000 A 
ATOM     19  C   UNL     1       7.276   4.860  14.063  0.00  0.00    +0.000 A 
ATOM     20  C   UNL     1       6.244   4.082  13.558  0.00  0.00    +0.000 A 
ATOM     21  F   UNL     1       6.079   3.983  12.231  0.00  0.00    +0.000 F 
ATOM     22  C   UNL     1       5.370   3.412  14.405  0.00  0.00    +0.000 A 
ATOM     23  C   UNL     1       5.497   3.566  15.786  0.00  0.00    +0.000 A 
ENDBRANCH  16  17
ENDBRANCH   6  16
TORSDOF 4
ENDMDL
MODEL 8
REMARK VINA RESULT:      -7.1      1.768      3.914
REMARK  Name = 
REMARK  5 active torsions:
REMARK  status: ('A' for Active; 'I' for Inactive)
REMARK    1  A    between atoms: C_1  and  C_2
REMARK    2  A    between atoms: C_2  and  O_3
REMARK    3  A    between atoms: O_3  and  C_4
REMARK    4  A    between atoms: N_9  and  C_10
REMARK    5  A    between atoms: C_10  and  C_11
REMARK                            x       y       z     vdW  Elec       q    Type
REMARK                         _______ _______ _______ _____ _____    ______ ____
ROOT
ATOM      1  C   UNL     1       6.709   5.327  18.159  0.00  0.00    +0.000 C 
ATOM      2  O   UNL     1       7.395   4.430  18.637  0.00  0.00    +0.000 OA
ATOM      3  N   UNL     1       5.332   5.397  18.182  0.00  0.00    +0.000 N 
ATOM      4  C   UNL     1       4.522   6.483  17.731  0.00  0.00    +0.000 A 
ATOM      5  O   UNL     1       4.870   7.545  17.235  0.00  0.00    +0.000 OA
ATOM      6  N   UNL     1       3.180   6.118  17.984  0.00  0.00    +0.000 N 
ATOM      7  C   UNL     1       3.164   4.895  18.656  0.00  0.00    +0.000 A 
ATOM      8  C   UNL     1       2.092   4.190  19.172  0.00  0.00    +0.000 A 
ATOM      9  C   UNL     1       2.372   2.987  19.826  0.00  0.00    +0.000 A 
ATOM     10  C   UNL     1       3.690   2.520  19.940  0.00  0.00    +0.000 A 
ATOM     11  C   UNL     1       4.765   3.245  19.409  0.00  0.00    +0.000 A 
ATOM     12  C   UNL     1       4.478   4.440  18.773  0.00  0.00    +0.000 A 
ENDROOT
BRANCH   1  13
ATOM     13  O   UNL     1       7.260   6.432  17.570  0.00  0.00    +0.000 OA
BRANCH  13  15
ATOM     14  C   UNL     1       8.083   8.658  17.834  0.00  0.00    +0.000 C 
ATOM     15  C   UNL     1       8.096   7.247  18.396  0.00  0.00    +0.000 C 
ENDBRANCH  13  15
ENDBRANCH   1  13
BRANCH   6  16
ATOM     16  C   UNL     1       2.039   6.930  17.640  0.00  0.00    +0.000 C 
BRANCH  16  17
ATOM     17  C   UNL     1       1.768   8.009  18.663  0.00  0.00    +0.000 A 
ATOM     18  C   UNL     1       1.798   7.711  20.037  0.00  0.00    +0.000 A 
ATOM     19  C   UNL     1       1.409   8.666  20.975  0.00  0.00    +0.000 A 
ATOM     20  C   UNL     1       1.020   9.927  20.543  0.00  0.00    +0.000 A 
ATOM     21  F   UNL     1       0.593  10.829  21.438  0.00  0.00    +0.000 F 
ATOM     22  C   UNL     1       1.054  10.267  19.197  0.00  0.00    +0.000 A 
ATOM     23  C   UNL     1       1.434   9.310  18.255  0.00  0.00    +0.000 A 
ENDBRANCH  16  17
ENDBRANCH   6  16
TORSDOF 4
ENDMDL
MODEL 9
REMARK VINA RESULT:      -7.1      4.110      7.421
REMARK  Name = 
REMARK  5 active torsions:
REMARK  status: ('A' for Active; 'I' for Inactive)
REMARK    1  A    between atoms: C_1  and  C_2
REMARK    2  A    between atoms: C_2  and  O_3
REMARK    3  A    between atoms: O_3  and  C_4
REMARK    4  A    between atoms: N_9  and  C_10
REMARK    5  A    between atoms: C_10  and  C_11
REMARK                            x       y       z     vdW  Elec       q    Type
REMARK                         _______ _______ _______ _____ _____    ______ ____
ROOT
ATOM      1  C   UNL     1      -1.336  10.811  18.546  0.00  0.00    +0.000 C 
ATOM      2  O   UNL     1      -2.230  11.480  19.053  0.00  0.00    +0.000 OA
ATOM      3  N   UNL     1      -0.362  10.111  19.226  0.00  0.00    +0.000 N 
ATOM      4  C   UNL     1       0.616   9.238  18.660  0.00  0.00    +0.000 A 
ATOM      5  O   UNL     1       0.797   8.945  17.487  0.00  0.00    +0.000 OA
ATOM      6  N   UNL     1       1.372   8.724  19.738  0.00  0.00    +0.000 N 
ATOM      7  C   UNL     1       0.819   9.183  20.935  0.00  0.00    +0.000 A 
ATOM      8  C   UNL     1       1.171   8.882  22.238  0.00  0.00    +0.000 A 
ATOM      9  C   UNL     1       0.420   9.475  23.257  0.00  0.00    +0.000 A 
ATOM     10  C   UNL     1      -0.639  10.346  22.958  0.00  0.00    +0.000 A 
ATOM     11  C   UNL     1      -0.980  10.643  21.632  0.00  0.00    +0.000 A 
ATOM     12  C   UNL     1      -0.238  10.042  20.631  0.00  0.00    +0.000 A 
ENDROOT
BRANCH   1  13
ATOM     13  O   UNL     1      -1.233  10.636  17.194  0.00  0.00    +0.000 OA
BRANCH  13  15
ATOM     14  C   UNL     1      -2.898  10.889  15.501  0.00  0.00    +0.000 C 
ATOM     15  C   UNL     1      -2.318   9.960  16.552  0.00  0.00    +0.000 C 
ENDBRANCH  13  15
ENDBRANCH   1  13
BRANCH   6  16
ATOM     16  C   UNL     1       2.491   7.827  19.592  0.00  0.00    +0.000 C 
BRANCH  16  17
ATOM     17  C   UNL     1       2.061   6.387  19.435  0.00  0.00    +0.000 A 
ATOM     18  C   UNL     1       1.635   5.645  20.551  0.00  0.00    +0.000 A 
ATOM     19  C   UNL     1       1.376   4.280  20.434  0.00  0.00    +0.000 A 
ATOM     20  C   UNL     1       1.511   3.663  19.197  0.00  0.00    +0.000 A 
ATOM     21  F   UNL     1       1.315   2.342  19.094  0.00  0.00    +0.000 F 
ATOM     22  C   UNL     1       1.858   4.392  18.067  0.00  0.00    +0.000 A 
ATOM     23  C   UNL     1       2.128   5.756  18.183  0.00  0.00    +0.000 A 
ENDBRANCH  16  17
ENDBRANCH   6  16
TORSDOF 4
ENDMDL
