MODEL 1
REMARK VINA RESULT:      -8.1      0.000      0.000
REMARK  Name = 
REMARK  10 active torsions:
REMARK  status: ('A' for Active; 'I' for Inactive)
REMARK    1  A    between atoms: C_1  and  C_2
REMARK    2  A    between atoms: C_5  and  S_6
REMARK    3  A    between atoms: S_6  and  N_9
REMARK    4  A    between atoms: N_9  and  C_10
REMARK    5  A    between atoms: C_13  and  C_14
REMARK    6  A    between atoms: C_14  and  N_15
REMARK    7  A    between atoms: C_19  and  C_20
REMARK    8  A    between atoms: C_20  and  C_21
REMARK    9  A    between atoms: C_21  and  C_22
REMARK   10  A    between atoms: N_24  and  O_25
REMARK                            x       y       z     vdW  Elec       q    Type
REMARK                         _______ _______ _______ _____ _____    ______ ____
ROOT
ATOM      1  C   UNL     1       0.870   9.641  18.949  0.00  0.00    +0.000 A 
ATOM      2  C   UNL     1       0.549   9.284  20.258  0.00  0.00    +0.000 A 
ATOM      3  C   UNL     1       1.100   8.129  20.825  0.00  0.00    +0.000 A 
ATOM      4  C   UNL     1       1.995   7.335  20.093  0.00  0.00    +0.000 A 
ATOM      5  C   UNL     1       2.322   7.721  18.783  0.00  0.00    +0.000 A 
ATOM      6  C   UNL     1       1.763   8.866  18.212  0.00  0.00    +0.000 A 
ENDROOT
BRANCH   1   7
ATOM      7  N   UNL     1       0.304  10.815  18.382  0.00  0.00    +0.000 N 
ATOM      8  H   UNL     1       0.302  10.883  17.367  0.00  0.00    +0.000 HD
BRANCH   7   9
ATOM      9  S   UNL     1       0.624  12.307  19.110  0.00  0.00    +0.000 S 
ATOM     10  O   UNL     1       0.329  13.375  18.178  0.00  0.00    +0.000 OA
ATOM     11  O   UNL     1       1.938  12.182  19.712  0.00  0.00    +0.000 OA
BRANCH   9  16
ATOM     12  C   UNL     1      -3.433  12.482  23.632  0.00  0.00    +0.000 C 
ATOM     13  C   UNL     1      -2.433  12.449  22.512  0.00  0.00    +0.000 A 
ATOM     14  C   UNL     1      -2.855  12.469  21.177  0.00  0.00    +0.000 A 
ATOM     15  C   UNL     1      -1.921  12.432  20.140  0.00  0.00    +0.000 A 
ATOM     16  C   UNL     1      -0.556  12.382  20.439  0.00  0.00    +0.000 A 
ATOM     17  C   UNL     1      -0.121  12.340  21.765  0.00  0.00    +0.000 A 
ATOM     18  C   UNL     1      -1.061  12.383  22.799  0.00  0.00    +0.000 A 
ENDBRANCH   9  16
ENDBRANCH   7   9
ENDBRANCH   1   7
BRANCH   4  19
ATOM     19  C   UNL     1       2.559   6.049  20.662  0.00  0.00    +0.000 C 
BRANCH  19  20
ATOM     20  N   UNL     1       2.654   5.021  19.632  0.00  0.00    +0.000 N 
ATOM     21  C   UNL     1       1.472   4.238  19.308  0.00  0.00    +0.000 C 
ATOM     22  C   UNL     1       1.260   4.148  17.806  0.00  0.00    +0.000 C 
ATOM     23  C   UNL     1       2.547   3.821  17.113  0.00  0.00    +0.000 C 
ATOM     24  C   UNL     1       3.756   4.087  17.644  0.00  0.00    +0.000 C 
ATOM     25  C   UNL     1       3.849   4.821  18.958  0.00  0.00    +0.000 C 
ATOM     26  O   UNL     1       4.930   5.257  19.344  0.00  0.00    +0.000 OA
BRANCH  24  27
ATOM     27  C   UNL     1       5.032   3.876  16.861  0.00  0.00    +0.000 C 
BRANCH  27  28
ATOM     28  C   UNL     1       5.434   5.054  15.975  0.00  0.00    +0.000 C 
BRANCH  28  29
ATOM     29  C   UNL     1       6.693   5.733  16.476  0.00  0.00    +0.000 C 
ATOM     30  O   UNL     1       7.747   5.164  16.741  0.00  0.00    +0.000 OA
ATOM     31  N   UNL     1       6.536   7.092  16.648  0.00  0.00    +0.000 N 
ATOM     32  H   UNL     1       5.798   7.626  16.207  0.00  0.00    +0.000 HD
BRANCH  31  33
ATOM     33  O   UNL     1       7.685   7.813  17.046  0.00  0.00    +0.000 OA
ATOM     34  H   UNL     1       8.291   7.687  16.285  0.00  0.00    +0.000 HD
ENDBRANCH  31  33
ENDBRANCH  28  29
ENDBRANCH  27  28
ENDBRANCH  24  27
ENDBRANCH  19  20
ENDBRANCH   4  19
TORSDOF 9
ENDMDL
MODEL 2
REMARK VINA RESULT:      -8.0      1.000      1.650
REMARK  Name = 
REMARK  10 active torsions:
REMARK  status: ('A' for Active; 'I' for Inactive)
REMARK    1  A    between atoms: C_1  and  C_2
REMARK    2  A    between atoms: C_5  and  S_6
REMARK    3  A    between atoms: S_6  and  N_9
REMARK    4  A    between atoms: N_9  and  C_10
REMARK    5  A    between atoms: C_13  and  C_14
REMARK    6  A    between atoms: C_14  and  N_15
REMARK    7  A    between atoms: C_19  and  C_20
REMARK    8  A    between atoms: C_20  and  C_21
REMARK    9  A    between atoms: C_21  and  C_22
REMARK   10  A    between atoms: N_24  and  O_25
REMARK                            x       y       z     vdW  Elec       q    Type
REMARK                         _______ _______ _______ _____ _____    ______ ____
ROOT
ATOM      1  C   UNL     1       0.738   9.460  19.602  0.00  0.00    +0.000 A 
ATOM      2  C   UNL     1       1.643   8.829  18.749  0.00  0.00    +0.000 A 
ATOM      3  C   UNL     1       2.239   7.622  19.130  0.00  0.00    +0.000 A 
ATOM      4  C   UNL     1       1.918   7.025  20.358  0.00  0.00    +0.000 A 
ATOM      5  C   UNL     1       0.989   7.665  21.195  0.00  0.00    +0.000 A 
ATOM      6  C   UNL     1       0.403   8.877  20.822  0.00  0.00    +0.000 A 
ENDROOT
BRANCH   1   7
ATOM      7  N   UNL     1       0.138  10.687  19.206  0.00  0.00    +0.000 N 
ATOM      8  H   UNL     1       0.129  10.896  18.210  0.00  0.00    +0.000 HD
BRANCH   7   9
ATOM      9  S   UNL     1       0.424  12.069  20.136  0.00  0.00    +0.000 S 
ATOM     10  O   UNL     1       0.599  13.212  19.264  0.00  0.00    +0.000 OA
ATOM     11  O   UNL     1       1.447  11.699  21.096  0.00  0.00    +0.000 OA
BRANCH   9  16
ATOM     12  C   UNL     1      -4.721  12.869  23.269  0.00  0.00    +0.000 C 
ATOM     13  C   UNL     1      -3.451  12.660  22.496  0.00  0.00    +0.000 A 
ATOM     14  C   UNL     1      -2.300  12.177  23.131  0.00  0.00    +0.000 A 
ATOM     15  C   UNL     1      -1.120  11.992  22.408  0.00  0.00    +0.000 A 
ATOM     16  C   UNL     1      -1.092  12.283  21.041  0.00  0.00    +0.000 A 
ATOM     17  C   UNL     1      -2.226  12.786  20.400  0.00  0.00    +0.000 A 
ATOM     18  C   UNL     1      -3.405  12.964  21.127  0.00  0.00    +0.000 A 
ENDBRANCH   9  16
ENDBRANCH   7   9
ENDBRANCH   1   7
BRANCH   4  19
ATOM     19  C   UNL     1       2.594   5.750  20.820  0.00  0.00    +0.000 C 
BRANCH  19  20
ATOM     20  N   UNL     1       2.677   4.782  19.733  0.00  0.00    +0.000 N 
ATOM     21  C   UNL     1       1.509   3.971  19.422  0.00  0.00    +0.000 C 
ATOM     22  C   UNL     1       1.227   3.950  17.929  0.00  0.00    +0.000 C 
ATOM     23  C   UNL     1       2.491   3.710  17.161  0.00  0.00    +0.000 C 
ATOM     24  C   UNL     1       3.714   3.994  17.648  0.00  0.00    +0.000 C 
ATOM     25  C   UNL     1       3.844   4.662  18.994  0.00  0.00    +0.000 C 
ATOM     26  O   UNL     1       4.926   5.119  19.352  0.00  0.00    +0.000 OA
BRANCH  24  27
ATOM     27  C   UNL     1       4.957   3.873  16.796  0.00  0.00    +0.000 C 
BRANCH  27  28
ATOM     28  C   UNL     1       5.231   5.080  15.901  0.00  0.00    +0.000 C 
BRANCH  28  29
ATOM     29  C   UNL     1       6.712   5.252  15.624  0.00  0.00    +0.000 C 
ATOM     30  O   UNL     1       7.598   5.221  16.471  0.00  0.00    +0.000 OA
ATOM     31  N   UNL     1       6.984   5.490  14.293  0.00  0.00    +0.000 N 
ATOM     32  H   UNL     1       6.337   5.268  13.546  0.00  0.00    +0.000 HD
BRANCH  31  33
ATOM     33  O   UNL     1       8.348   5.593  13.939  0.00  0.00    +0.000 OA
ATOM     34  H   UNL     1       8.721   6.124  14.674  0.00  0.00    +0.000 HD
ENDBRANCH  31  33
ENDBRANCH  28  29
ENDBRANCH  27  28
ENDBRANCH  24  27
ENDBRANCH  19  20
ENDBRANCH   4  19
TORSDOF 9
ENDMDL
MODEL 3
REMARK VINA RESULT:      -7.9      3.138      8.914
REMARK  Name = 
REMARK  10 active torsions:
REMARK  status: ('A' for Active; 'I' for Inactive)
REMARK    1  A    between atoms: C_1  and  C_2
REMARK    2  A    between atoms: C_5  and  S_6
REMARK    3  A    between atoms: S_6  and  N_9
REMARK    4  A    between atoms: N_9  and  C_10
REMARK    5  A    between atoms: C_13  and  C_14
REMARK    6  A    between atoms: C_14  and  N_15
REMARK    7  A    between atoms: C_19  and  C_20
REMARK    8  A    between atoms: C_20  and  C_21
REMARK    9  A    between atoms: C_21  and  C_22
REMARK   10  A    between atoms: N_24  and  O_25
REMARK                            x       y       z     vdW  Elec       q    Type
REMARK                         _______ _______ _______ _____ _____    ______ ____
ROOT
ATOM      1  C   UNL     1       1.910   4.985  19.095  0.00  0.00    +0.000 A 
ATOM      2  C   UNL     1       1.607   5.143  20.447  0.00  0.00    +0.000 A 
ATOM      3  C   UNL     1       1.605   6.422  21.018  0.00  0.00    +0.000 A 
ATOM      4  C   UNL     1       1.884   7.551  20.236  0.00  0.00    +0.000 A 
ATOM      5  C   UNL     1       2.168   7.373  18.873  0.00  0.00    +0.000 A 
ATOM      6  C   UNL     1       2.184   6.097  18.303  0.00  0.00    +0.000 A 
ENDROOT
BRANCH   1   7
ATOM      7  N   UNL     1       1.911   3.682  18.524  0.00  0.00    +0.000 N 
ATOM      8  H   UNL     1       1.090   3.104  18.691  0.00  0.00    +0.000 HD
BRANCH   7   9
ATOM      9  S   UNL     1       3.336   2.776  18.568  0.00  0.00    +0.000 S 
ATOM     10  O   UNL     1       3.336   1.818  17.481  0.00  0.00    +0.000 OA
ATOM     11  O   UNL     1       3.492   2.343  19.944  0.00  0.00    +0.000 OA
BRANCH   9  16
ATOM     12  C   UNL     1       7.611   6.953  17.463  0.00  0.00    +0.000 C 
ATOM     13  C   UNL     1       6.561   5.913  17.731  0.00  0.00    +0.000 A 
ATOM     14  C   UNL     1       5.848   5.329  16.677  0.00  0.00    +0.000 A 
ATOM     15  C   UNL     1       4.869   4.367  16.933  0.00  0.00    +0.000 A 
ATOM     16  C   UNL     1       4.606   3.981  18.251  0.00  0.00    +0.000 A 
ATOM     17  C   UNL     1       5.293   4.571  19.314  0.00  0.00    +0.000 A 
ATOM     18  C   UNL     1       6.276   5.528  19.050  0.00  0.00    +0.000 A 
ENDBRANCH   9  16
ENDBRANCH   7   9
ENDBRANCH   1   7
BRANCH   4  19
ATOM     19  C   UNL     1       1.947   8.938  20.844  0.00  0.00    +0.000 C 
BRANCH  19  20
ATOM     20  N   UNL     1       0.618   9.530  20.930  0.00  0.00    +0.000 N 
ATOM     21  C   UNL     1      -0.210   9.236  22.090  0.00  0.00    +0.000 C 
ATOM     22  C   UNL     1      -0.829  10.498  22.666  0.00  0.00    +0.000 C 
ATOM     23  C   UNL     1      -1.404  11.345  21.572  0.00  0.00    +0.000 C 
ATOM     24  C   UNL     1      -0.987  11.280  20.293  0.00  0.00    +0.000 C 
ATOM     25  C   UNL     1       0.168  10.380  19.931  0.00  0.00    +0.000 C 
ATOM     26  O   UNL     1       0.695  10.470  18.825  0.00  0.00    +0.000 OA
BRANCH  24  27
ATOM     27  C   UNL     1      -1.486  12.246  19.243  0.00  0.00    +0.000 C 
BRANCH  27  28
ATOM     28  C   UNL     1      -2.823  11.859  18.611  0.00  0.00    +0.000 C 
BRANCH  28  29
ATOM     29  C   UNL     1      -2.645  10.870  17.475  0.00  0.00    +0.000 C 
ATOM     30  O   UNL     1      -2.634   9.650  17.595  0.00  0.00    +0.000 OA
ATOM     31  N   UNL     1      -2.455  11.485  16.256  0.00  0.00    +0.000 N 
ATOM     32  H   UNL     1      -2.713  12.447  16.073  0.00  0.00    +0.000 HD
BRANCH  31  33
ATOM     33  O   UNL     1      -2.352  10.634  15.132  0.00  0.00    +0.000 OA
ATOM     34  H   UNL     1      -1.555  10.100  15.340  0.00  0.00    +0.000 HD
ENDBRANCH  31  33
ENDBRANCH  28  29
ENDBRANCH  27  28
ENDBRANCH  24  27
ENDBRANCH  19  20
ENDBRANCH   4  19
TORSDOF 9
ENDMDL
MODEL 4
REMARK VINA RESULT:      -7.9      0.621      1.057
REMARK  Name = 
REMARK  10 active torsions:
REMARK  status: ('A' for Active; 'I' for Inactive)
REMARK    1  A    between atoms: C_1  and  C_2
REMARK    2  A    between atoms: C_5  and  S_6
REMARK    3  A    between atoms: S_6  and  N_9
REMARK    4  A    between atoms: N_9  and  C_10
REMARK    5  A    between atoms: C_13  and  C_14
REMARK    6  A    between atoms: C_14  and  N_15
REMARK    7  A    between atoms: C_19  and  C_20
REMARK    8  A    between atoms: C_20  and  C_21
REMARK    9  A    between atoms: C_21  and  C_22
REMARK   10  A    between atoms: N_24  and  O_25
REMARK                            x       y       z     vdW  Elec       q    Type
REMARK                         _______ _______ _______ _____ _____    ______ ____
ROOT
ATOM      1  C   UNL     1       0.927   9.404  19.514  0.00  0.00    +0.000 A 
ATOM      2  C   UNL     1       0.592   8.889  20.765  0.00  0.00    +0.000 A 
ATOM      3  C   UNL     1       1.134   7.670  21.188  0.00  0.00    +0.000 A 
ATOM      4  C   UNL     1       2.034   6.969  20.371  0.00  0.00    +0.000 A 
ATOM      5  C   UNL     1       2.374   7.514  19.123  0.00  0.00    +0.000 A 
ATOM      6  C   UNL     1       1.824   8.724  18.693  0.00  0.00    +0.000 A 
ENDROOT
BRANCH   1   7
ATOM      7  N   UNL     1       0.370  10.643  19.092  0.00  0.00    +0.000 N 
ATOM      8  H   UNL     1       0.401  10.848  18.096  0.00  0.00    +0.000 HD
BRANCH   7   9
ATOM      9  S   UNL     1       0.654  12.023  20.026  0.00  0.00    +0.000 S 
ATOM     10  O   UNL     1       0.830  13.168  19.157  0.00  0.00    +0.000 OA
ATOM     11  O   UNL     1       1.675  11.651  20.987  0.00  0.00    +0.000 OA
BRANCH   9  16
ATOM     12  C   UNL     1      -4.500  12.818  23.146  0.00  0.00    +0.000 C 
ATOM     13  C   UNL     1      -3.227  12.610  22.377  0.00  0.00    +0.000 A 
ATOM     14  C   UNL     1      -2.050  12.229  23.033  0.00  0.00    +0.000 A 
ATOM     15  C   UNL     1      -0.868  12.044  22.314  0.00  0.00    +0.000 A 
ATOM     16  C   UNL     1      -0.864  12.234  20.928  0.00  0.00    +0.000 A 
ATOM     17  C   UNL     1      -2.024  12.635  20.264  0.00  0.00    +0.000 A 
ATOM     18  C   UNL     1      -3.206  12.813  20.989  0.00  0.00    +0.000 A 
ENDBRANCH   9  16
ENDBRANCH   7   9
ENDBRANCH   1   7
BRANCH   4  19
ATOM     19  C   UNL     1       2.588   5.619  20.780  0.00  0.00    +0.000 C 
BRANCH  19  20
ATOM     20  N   UNL     1       2.625   4.706  19.645  0.00  0.00    +0.000 N 
ATOM     21  C   UNL     1       1.400   4.033  19.242  0.00  0.00    +0.000 C 
ATOM     22  C   UNL     1       1.186   4.118  17.740  0.00  0.00    +0.000 C 
ATOM     23  C   UNL     1       2.454   3.793  17.011  0.00  0.00    +0.000 C 
ATOM     24  C   UNL     1       3.675   3.929  17.563  0.00  0.00    +0.000 C 
ATOM     25  C   UNL     1       3.808   4.510  18.948  0.00  0.00    +0.000 C 
ATOM     26  O   UNL     1       4.912   4.837  19.375  0.00  0.00    +0.000 OA
BRANCH  24  27
ATOM     27  C   UNL     1       4.938   3.729  16.756  0.00  0.00    +0.000 C 
BRANCH  27  28
ATOM     28  C   UNL     1       5.331   4.923  15.888  0.00  0.00    +0.000 C 
BRANCH  28  29
ATOM     29  C   UNL     1       6.692   5.474  16.268  0.00  0.00    +0.000 C 
ATOM     30  O   UNL     1       7.717   4.810  16.380  0.00  0.00    +0.000 OA
ATOM     31  N   UNL     1       6.670   6.829  16.519  0.00  0.00    +0.000 N 
ATOM     32  H   UNL     1       5.933   7.442  16.193  0.00  0.00    +0.000 HD
BRANCH  31  33
ATOM     33  O   UNL     1       7.913   7.435  16.811  0.00  0.00    +0.000 OA
ATOM     34  H   UNL     1       7.740   7.875  17.671  0.00  0.00    +0.000 HD
ENDBRANCH  31  33
ENDBRANCH  28  29
ENDBRANCH  27  28
ENDBRANCH  24  27
ENDBRANCH  19  20
ENDBRANCH   4  19
TORSDOF 9
ENDMDL
MODEL 5
REMARK VINA RESULT:      -7.9      0.914      1.610
REMARK  Name = 
REMARK  10 active torsions:
REMARK  status: ('A' for Active; 'I' for Inactive)
REMARK    1  A    between atoms: C_1  and  C_2
REMARK    2  A    between atoms: C_5  and  S_6
REMARK    3  A    between atoms: S_6  and  N_9
REMARK    4  A    between atoms: N_9  and  C_10
REMARK    5  A    between atoms: C_13  and  C_14
REMARK    6  A    between atoms: C_14  and  N_15
REMARK    7  A    between atoms: C_19  and  C_20
REMARK    8  A    between atoms: C_20  and  C_21
REMARK    9  A    between atoms: C_21  and  C_22
REMARK   10  A    between atoms: N_24  and  O_25
REMARK                            x       y       z     vdW  Elec       q    Type
REMARK                         _______ _______ _______ _____ _____    ______ ____
ROOT
ATOM      1  C   UNL     1       0.559   9.556  19.441  0.00  0.00    +0.000 A 
ATOM      2  C   UNL     1       1.505   9.013  18.572  0.00  0.00    +0.000 A 
ATOM      3  C   UNL     1       2.202   7.854  18.931  0.00  0.00    +0.000 A 
ATOM      4  C   UNL     1       1.942   7.217  20.153  0.00  0.00    +0.000 A 
ATOM      5  C   UNL     1       0.972   7.767  21.006  0.00  0.00    +0.000 A 
ATOM      6  C   UNL     1       0.284   8.931  20.656  0.00  0.00    +0.000 A 
ENDROOT
BRANCH   1   7
ATOM      7  N   UNL     1      -0.143  10.734  19.068  0.00  0.00    +0.000 N 
ATOM      8  H   UNL     1      -0.279  10.896  18.072  0.00  0.00    +0.000 HD
BRANCH   7   9
ATOM      9  S   UNL     1       0.180  12.171  19.897  0.00  0.00    +0.000 S 
ATOM     10  O   UNL     1      -0.008  13.298  19.007  0.00  0.00    +0.000 OA
ATOM     11  O   UNL     1       1.443  11.962  20.580  0.00  0.00    +0.000 OA
BRANCH   9  16
ATOM     12  C   UNL     1      -4.108  12.423  24.197  0.00  0.00    +0.000 C 
ATOM     13  C   UNL     1      -3.049  12.349  23.135  0.00  0.00    +0.000 A 
ATOM     14  C   UNL     1      -1.772  11.857  23.432  0.00  0.00    +0.000 A 
ATOM     15  C   UNL     1      -0.790  11.797  22.442  0.00  0.00    +0.000 A 
ATOM     16  C   UNL     1      -1.087  12.225  21.144  0.00  0.00    +0.000 A 
ATOM     17  C   UNL     1      -2.349  12.740  20.839  0.00  0.00    +0.000 A 
ATOM     18  C   UNL     1      -3.330  12.791  21.833  0.00  0.00    +0.000 A 
ENDBRANCH   9  16
ENDBRANCH   7   9
ENDBRANCH   1   7
BRANCH   4  19
ATOM     19  C   UNL     1       2.725   5.995  20.591  0.00  0.00    +0.000 C 
BRANCH  19  20
ATOM     20  N   UNL     1       2.699   4.964  19.561  0.00  0.00    +0.000 N 
ATOM     21  C   UNL     1       1.422   4.382  19.179  0.00  0.00    +0.000 C 
ATOM     22  C   UNL     1       1.266   4.324  17.669  0.00  0.00    +0.000 C 
ATOM     23  C   UNL     1       2.514   3.790  17.034  0.00  0.00    +0.000 C 
ATOM     24  C   UNL     1       3.724   3.857  17.621  0.00  0.00    +0.000 C 
ATOM     25  C   UNL     1       3.875   4.569  18.941  0.00  0.00    +0.000 C 
ATOM     26  O   UNL     1       4.994   4.825  19.379  0.00  0.00    +0.000 OA
BRANCH  24  27
ATOM     27  C   UNL     1       4.983   3.439  16.896  0.00  0.00    +0.000 C 
BRANCH  27  28
ATOM     28  C   UNL     1       5.656   4.555  16.099  0.00  0.00    +0.000 C 
BRANCH  28  29
ATOM     29  C   UNL     1       6.900   5.074  16.794  0.00  0.00    +0.000 C 
ATOM     30  O   UNL     1       7.536   6.067  16.457  0.00  0.00    +0.000 OA
ATOM     31  N   UNL     1       7.287   4.286  17.856  0.00  0.00    +0.000 N 
ATOM     32  H   UNL     1       6.666   3.633  18.319  0.00  0.00    +0.000 HD
BRANCH  31  33
ATOM     33  O   UNL     1       8.398   4.739  18.603  0.00  0.00    +0.000 OA
ATOM     34  H   UNL     1       8.431   4.100  19.348  0.00  0.00    +0.000 HD
ENDBRANCH  31  33
ENDBRANCH  28  29
ENDBRANCH  27  28
ENDBRANCH  24  27
ENDBRANCH  19  20
ENDBRANCH   4  19
TORSDOF 9
ENDMDL
MODEL 6
REMARK VINA RESULT:      -7.8      1.266      1.906
REMARK  Name = 
REMARK  10 active torsions:
REMARK  status: ('A' for Active; 'I' for Inactive)
REMARK    1  A    between atoms: C_1  and  C_2
REMARK    2  A    between atoms: C_5  and  S_6
REMARK    3  A    between atoms: S_6  and  N_9
REMARK    4  A    between atoms: N_9  and  C_10
REMARK    5  A    between atoms: C_13  and  C_14
REMARK    6  A    between atoms: C_14  and  N_15
REMARK    7  A    between atoms: C_19  and  C_20
REMARK    8  A    between atoms: C_20  and  C_21
REMARK    9  A    between atoms: C_21  and  C_22
REMARK   10  A    between atoms: N_24  and  O_25
REMARK                            x       y       z     vdW  Elec       q    Type
REMARK                         _______ _______ _______ _____ _____    ______ ____
ROOT
ATOM      1  C   UNL     1       1.174   9.473  19.589  0.00  0.00    +0.000 A 
ATOM      2  C   UNL     1       1.890   8.704  18.673  0.00  0.00    +0.000 A 
ATOM      3  C   UNL     1       2.307   7.413  19.018  0.00  0.00    +0.000 A 
ATOM      4  C   UNL     1       1.991   6.875  20.274  0.00  0.00    +0.000 A 
ATOM      5  C   UNL     1       1.253   7.657  21.176  0.00  0.00    +0.000 A 
ATOM      6  C   UNL     1       0.846   8.951  20.838  0.00  0.00    +0.000 A 
ENDROOT
BRANCH   1   7
ATOM      7  N   UNL     1       0.756  10.784  19.230  0.00  0.00    +0.000 N 
ATOM      8  H   UNL     1       1.166  11.558  19.748  0.00  0.00    +0.000 HD
BRANCH   7   9
ATOM      9  S   UNL     1      -0.878  11.052  18.890  0.00  0.00    +0.000 S 
ATOM     10  O   UNL     1      -1.558   9.782  18.741  0.00  0.00    +0.000 OA
ATOM     11  O   UNL     1      -0.907  12.044  17.832  0.00  0.00    +0.000 OA
BRANCH   9  16
ATOM     12  C   UNL     1      -2.898  13.816  23.912  0.00  0.00    +0.000 C 
ATOM     13  C   UNL     1      -2.399  13.123  22.677  0.00  0.00    +0.000 A 
ATOM     14  C   UNL     1      -1.101  12.599  22.627  0.00  0.00    +0.000 A 
ATOM     15  C   UNL     1      -0.640  11.962  21.473  0.00  0.00    +0.000 A 
ATOM     16  C   UNL     1      -1.485  11.841  20.365  0.00  0.00    +0.000 A 
ATOM     17  C   UNL     1      -2.773  12.378  20.393  0.00  0.00    +0.000 A 
ATOM     18  C   UNL     1      -3.230  13.009  21.553  0.00  0.00    +0.000 A 
ENDBRANCH   9  16
ENDBRANCH   7   9
ENDBRANCH   1   7
BRANCH   4  19
ATOM     19  C   UNL     1       2.483   5.504  20.694  0.00  0.00    +0.000 C 
BRANCH  19  20
ATOM     20  N   UNL     1       2.518   4.593  19.556  0.00  0.00    +0.000 N 
ATOM     21  C   UNL     1       1.265   4.062  19.040  0.00  0.00    +0.000 C 
ATOM     22  C   UNL     1       1.195   4.173  17.526  0.00  0.00    +0.000 C 
ATOM     23  C   UNL     1       2.478   3.708  16.908  0.00  0.00    +0.000 C 
ATOM     24  C   UNL     1       3.653   3.705  17.565  0.00  0.00    +0.000 C 
ATOM     25  C   UNL     1       3.728   4.266  18.963  0.00  0.00    +0.000 C 
ATOM     26  O   UNL     1       4.819   4.467  19.489  0.00  0.00    +0.000 OA
BRANCH  24  27
ATOM     27  C   UNL     1       4.953   3.365  16.870  0.00  0.00    +0.000 C 
BRANCH  27  28
ATOM     28  C   UNL     1       5.574   4.522  16.089  0.00  0.00    +0.000 C 
BRANCH  28  29
ATOM     29  C   UNL     1       6.837   5.036  16.752  0.00  0.00    +0.000 C 
ATOM     30  O   UNL     1       7.502   5.990  16.362  0.00  0.00    +0.000 OA
ATOM     31  N   UNL     1       7.205   4.292  17.852  0.00  0.00    +0.000 N 
ATOM     32  H   UNL     1       6.566   3.684  18.350  0.00  0.00    +0.000 HD
BRANCH  31  33
ATOM     33  O   UNL     1       8.333   4.747  18.571  0.00  0.00    +0.000 OA
ATOM     34  H   UNL     1       8.505   5.625  18.166  0.00  0.00    +0.000 HD
ENDBRANCH  31  33
ENDBRANCH  28  29
ENDBRANCH  27  28
ENDBRANCH  24  27
ENDBRANCH  19  20
ENDBRANCH   4  19
TORSDOF 9
ENDMDL
MODEL 7
REMARK VINA RESULT:      -7.8      1.374      1.810
REMARK  Name = 
REMARK  10 active torsions:
REMARK  status: ('A' for Active; 'I' for Inactive)
REMARK    1  A    between atoms: C_1  and  C_2
REMARK    2  A    between atoms: C_5  and  S_6
REMARK    3  A    between atoms: S_6  and  N_9
REMARK    4  A    between atoms: N_9  and  C_10
REMARK    5  A    between atoms: C_13  and  C_14
REMARK    6  A    between atoms: C_14  and  N_15
REMARK    7  A    between atoms: C_19  and  C_20
REMARK    8  A    between atoms: C_20  and  C_21
REMARK    9  A    between atoms: C_21  and  C_22
REMARK   10  A    between atoms: N_24  and  O_25
REMARK                            x       y       z     vdW  Elec       q    Type
REMARK                         _______ _______ _______ _____ _____    ______ ____
ROOT
ATOM      1  C   UNL     1       0.628   9.448  19.758  0.00  0.00    +0.000 A 
ATOM      2  C   UNL     1       0.223   8.847  20.949  0.00  0.00    +0.000 A 
ATOM      3  C   UNL     1       0.799   7.637  21.353  0.00  0.00    +0.000 A 
ATOM      4  C   UNL     1       1.801   7.031  20.580  0.00  0.00    +0.000 A 
ATOM      5  C   UNL     1       2.209   7.662  19.394  0.00  0.00    +0.000 A 
ATOM      6  C   UNL     1       1.626   8.863  18.982  0.00  0.00    +0.000 A 
ENDROOT
BRANCH   1   7
ATOM      7  N   UNL     1       0.036  10.677  19.355  0.00  0.00    +0.000 N 
ATOM      8  H   UNL     1       0.018  10.875  18.357  0.00  0.00    +0.000 HD
BRANCH   7   9
ATOM      9  S   UNL     1       0.346  12.066  20.266  0.00  0.00    +0.000 S 
ATOM     10  O   UNL     1       0.413  13.217  19.389  0.00  0.00    +0.000 OA
ATOM     11  O   UNL     1       1.452  11.731  21.142  0.00  0.00    +0.000 OA
BRANCH   9  16
ATOM     12  C   UNL     1      -4.559  12.669  23.804  0.00  0.00    +0.000 C 
ATOM     13  C   UNL     1      -3.349  12.509  22.930  0.00  0.00    +0.000 A 
ATOM     14  C   UNL     1      -2.202  11.863  23.407  0.00  0.00    +0.000 A 
ATOM     15  C   UNL     1      -1.078  11.723  22.592  0.00  0.00    +0.000 A 
ATOM     16  C   UNL     1      -1.102  12.225  21.287  0.00  0.00    +0.000 A 
ATOM     17  C   UNL     1      -2.230  12.892  20.805  0.00  0.00    +0.000 A 
ATOM     18  C   UNL     1      -3.354  13.024  21.624  0.00  0.00    +0.000 A 
ENDBRANCH   9  16
ENDBRANCH   7   9
ENDBRANCH   1   7
BRANCH   4  19
ATOM     19  C   UNL     1       2.397   5.692  20.965  0.00  0.00    +0.000 C 
BRANCH  19  20
ATOM     20  N   UNL     1       2.670   4.885  19.782  0.00  0.00    +0.000 N 
ATOM     21  C   UNL     1       1.585   4.125  19.182  0.00  0.00    +0.000 C 
ATOM     22  C   UNL     1       1.541   4.313  17.675  0.00  0.00    +0.000 C 
ATOM     23  C   UNL     1       2.915   4.182  17.091  0.00  0.00    +0.000 C 
ATOM     24  C   UNL     1       4.040   4.396  17.801  0.00  0.00    +0.000 C 
ATOM     25  C   UNL     1       3.942   4.870  19.228  0.00  0.00    +0.000 C 
ATOM     26  O   UNL     1       4.943   5.273  19.814  0.00  0.00    +0.000 OA
BRANCH  24  27
ATOM     27  C   UNL     1       5.404   4.395  17.148  0.00  0.00    +0.000 C 
BRANCH  27  28
ATOM     28  C   UNL     1       5.582   5.444  16.051  0.00  0.00    +0.000 C 
BRANCH  28  29
ATOM     29  C   UNL     1       6.429   4.923  14.906  0.00  0.00    +0.000 C 
ATOM     30  O   UNL     1       7.580   5.268  14.664  0.00  0.00    +0.000 OA
ATOM     31  N   UNL     1       5.755   4.021  14.110  0.00  0.00    +0.000 N 
ATOM     32  H   UNL     1       4.927   3.524  14.413  0.00  0.00    +0.000 HD
BRANCH  31  33
ATOM     33  O   UNL     1       6.496   3.434  13.060  0.00  0.00    +0.000 OA
ATOM     34  H   UNL     1       5.959   2.644  12.834  0.00  0.00    +0.000 HD
ENDBRANCH  31  33
ENDBRANCH  28  29
ENDBRANCH  27  28
ENDBRANCH  24  27
ENDBRANCH  19  20
ENDBRANCH   4  19
TORSDOF 9
ENDMDL
MODEL 8
REMARK VINA RESULT:      -7.8      2.461      3.427
REMARK  Name = 
REMARK  10 active torsions:
REMARK  status: ('A' for Active; 'I' for Inactive)
REMARK    1  A    between atoms: C_1  and  C_2
REMARK    2  A    between atoms: C_5  and  S_6
REMARK    3  A    between atoms: S_6  and  N_9
REMARK    4  A    between atoms: N_9  and  C_10
REMARK    5  A    between atoms: C_13  and  C_14
REMARK    6  A    between atoms: C_14  and  N_15
REMARK    7  A    between atoms: C_19  and  C_20
REMARK    8  A    between atoms: C_20  and  C_21
REMARK    9  A    between atoms: C_21  and  C_22
REMARK   10  A    between atoms: N_24  and  O_25
REMARK                            x       y       z     vdW  Elec       q    Type
REMARK                         _______ _______ _______ _____ _____    ______ ____
ROOT
ATOM      1  C   UNL     1       1.017   9.547  19.516  0.00  0.00    +0.000 A 
ATOM      2  C   UNL     1       1.812   8.814  18.636  0.00  0.00    +0.000 A 
ATOM      3  C   UNL     1       2.296   7.556  19.012  0.00  0.00    +0.000 A 
ATOM      4  C   UNL     1       1.970   7.013  20.264  0.00  0.00    +0.000 A 
ATOM      5  C   UNL     1       1.153   7.758  21.129  0.00  0.00    +0.000 A 
ATOM      6  C   UNL     1       0.679   9.019  20.760  0.00  0.00    +0.000 A 
ENDROOT
BRANCH   1   7
ATOM      7  N   UNL     1       0.531  10.825  19.125  0.00  0.00    +0.000 N 
ATOM      8  H   UNL     1       0.804  11.162  18.204  0.00  0.00    +0.000 HD
BRANCH   7   9
ATOM      9  S   UNL     1       0.508  12.071  20.267  0.00  0.00    +0.000 S 
ATOM     10  O   UNL     1       1.344  11.712  21.394  0.00  0.00    +0.000 OA
ATOM     11  O   UNL     1      -0.888  12.416  20.453  0.00  0.00    +0.000 OA
BRANCH   9  16
ATOM     12  C   UNL     1       3.154  16.750  17.429  0.00  0.00    +0.000 C 
ATOM     13  C   UNL     1       2.492  15.594  18.123  0.00  0.00    +0.000 A 
ATOM     14  C   UNL     1       1.317  15.783  18.862  0.00  0.00    +0.000 A 
ATOM     15  C   UNL     1       0.710  14.706  19.511  0.00  0.00    +0.000 A 
ATOM     16  C   UNL     1       1.275  13.431  19.414  0.00  0.00    +0.000 A 
ATOM     17  C   UNL     1       2.458  13.232  18.699  0.00  0.00    +0.000 A 
ATOM     18  C   UNL     1       3.058  14.313  18.047  0.00  0.00    +0.000 A 
ENDBRANCH   9  16
ENDBRANCH   7   9
ENDBRANCH   1   7
BRANCH   4  19
ATOM     19  C   UNL     1       2.531   5.680  20.718  0.00  0.00    +0.000 C 
BRANCH  19  20
ATOM     20  N   UNL     1       2.860   4.838  19.575  0.00  0.00    +0.000 N 
ATOM     21  C   UNL     1       1.852   3.925  19.059  0.00  0.00    +0.000 C 
ATOM     22  C   UNL     1       1.743   4.013  17.546  0.00  0.00    +0.000 C 
ATOM     23  C   UNL     1       3.105   4.002  16.922  0.00  0.00    +0.000 C 
ATOM     24  C   UNL     1       4.218   4.384  17.577  0.00  0.00    +0.000 C 
ATOM     25  C   UNL     1       4.108   4.932  18.977  0.00  0.00    +0.000 C 
ATOM     26  O   UNL     1       5.074   5.480  19.501  0.00  0.00    +0.000 OA
BRANCH  24  27
ATOM     27  C   UNL     1       5.553   4.496  16.877  0.00  0.00    +0.000 C 
BRANCH  27  28
ATOM     28  C   UNL     1       5.752   3.508  15.729  0.00  0.00    +0.000 C 
BRANCH  28  29
ATOM     29  C   UNL     1       6.456   4.148  14.548  0.00  0.00    +0.000 C 
ATOM     30  O   UNL     1       6.194   3.937  13.369  0.00  0.00    +0.000 OA
ATOM     31  N   UNL     1       7.478   4.992  14.929  0.00  0.00    +0.000 N 
ATOM     32  H   UNL     1       7.554   5.388  15.857  0.00  0.00    +0.000 HD
BRANCH  31  33
ATOM     33  O   UNL     1       8.140   5.685  13.890  0.00  0.00    +0.000 OA
ATOM     34  H   UNL     1       8.328   4.972  13.243  0.00  0.00    +0.000 HD
ENDBRANCH  31  33
ENDBRANCH  28  29
ENDBRANCH  27  28
ENDBRANCH  24  27
ENDBRANCH  19  20
ENDBRANCH   4  19
TORSDOF 9
ENDMDL
MODEL 9
REMARK VINA RESULT:      -7.8      0.918      1.471
REMARK  Name = 
REMARK  10 active torsions:
REMARK  status: ('A' for Active; 'I' for Inactive)
REMARK    1  A    between atoms: C_1  and  C_2
REMARK    2  A    between atoms: C_5  and  S_6
REMARK    3  A    between atoms: S_6  and  N_9
REMARK    4  A    between atoms: N_9  and  C_10
REMARK    5  A    between atoms: C_13  and  C_14
REMARK    6  A    between atoms: C_14  and  N_15
REMARK    7  A    between atoms: C_19  and  C_20
REMARK    8  A    between atoms: C_20  and  C_21
REMARK    9  A    between atoms: C_21  and  C_22
REMARK   10  A    between atoms: N_24  and  O_25
REMARK                            x       y       z     vdW  Elec       q    Type
REMARK                         _______ _______ _______ _____ _____    ______ ____
ROOT
ATOM      1  C   UNL     1       0.999   9.724  18.845  0.00  0.00    +0.000 A 
ATOM      2  C   UNL     1       1.861   8.981  18.041  0.00  0.00    +0.000 A 
ATOM      3  C   UNL     1       2.439   7.805  18.534  0.00  0.00    +0.000 A 
ATOM      4  C   UNL     1       2.142   7.354  19.828  0.00  0.00    +0.000 A 
ATOM      5  C   UNL     1       1.256   8.107  20.616  0.00  0.00    +0.000 A 
ATOM      6  C   UNL     1       0.688   9.287  20.131  0.00  0.00    +0.000 A 
ENDROOT
BRANCH   1   7
ATOM      7  N   UNL     1       0.418  10.918  18.336  0.00  0.00    +0.000 N 
ATOM      8  H   UNL     1       0.391  11.023  17.324  0.00  0.00    +0.000 HD
BRANCH   7   9
ATOM      9  S   UNL     1       0.754  12.382  19.110  0.00  0.00    +0.000 S 
ATOM     10  O   UNL     1       1.066  13.393  18.121  0.00  0.00    +0.000 OA
ATOM     11  O   UNL     1       1.688  12.065  20.173  0.00  0.00    +0.000 OA
BRANCH   9  16
ATOM     12  C   UNL     1      -4.523  13.923  21.701  0.00  0.00    +0.000 C 
ATOM     13  C   UNL     1      -3.216  13.537  21.070  0.00  0.00    +0.000 A 
ATOM     14  C   UNL     1      -2.016  14.120  21.498  0.00  0.00    +0.000 A 
ATOM     15  C   UNL     1      -0.805  13.762  20.904  0.00  0.00    +0.000 A 
ATOM     16  C   UNL     1      -0.791  12.810  19.880  0.00  0.00    +0.000 A 
ATOM     17  C   UNL     1      -1.982  12.237  19.428  0.00  0.00    +0.000 A 
ATOM     18  C   UNL     1      -3.190  12.595  20.031  0.00  0.00    +0.000 A 
ENDBRANCH   9  16
ENDBRANCH   7   9
ENDBRANCH   1   7
BRANCH   4  19
ATOM     19  C   UNL     1       2.801   6.118  20.407  0.00  0.00    +0.000 C 
BRANCH  19  20
ATOM     20  N   UNL     1       2.797   5.026  19.441  0.00  0.00    +0.000 N 
ATOM     21  C   UNL     1       1.549   4.326  19.174  0.00  0.00    +0.000 C 
ATOM     22  C   UNL     1       1.310   4.163  17.683  0.00  0.00    +0.000 C 
ATOM     23  C   UNL     1       2.556   3.689  17.002  0.00  0.00    +0.000 C 
ATOM     24  C   UNL     1       3.791   3.883  17.505  0.00  0.00    +0.000 C 
ATOM     25  C   UNL     1       3.962   4.685  18.770  0.00  0.00    +0.000 C 
ATOM     26  O   UNL     1       5.080   5.052  19.121  0.00  0.00    +0.000 OA
BRANCH  24  27
ATOM     27  C   UNL     1       5.034   3.519  16.726  0.00  0.00    +0.000 C 
BRANCH  27  28
ATOM     28  C   UNL     1       5.467   4.564  15.699  0.00  0.00    +0.000 C 
BRANCH  28  29
ATOM     29  C   UNL     1       6.776   5.225  16.084  0.00  0.00    +0.000 C 
ATOM     30  O   UNL     1       7.853   4.650  16.196  0.00  0.00    +0.000 OA
ATOM     31  N   UNL     1       6.639   6.573  16.341  0.00  0.00    +0.000 N 
ATOM     32  H   UNL     1       5.854   7.123  16.015  0.00  0.00    +0.000 HD
BRANCH  31  33
ATOM     33  O   UNL     1       7.826   7.280  16.638  0.00  0.00    +0.000 OA
ATOM     34  H   UNL     1       7.680   8.141  16.191  0.00  0.00    +0.000 HD
ENDBRANCH  31  33
ENDBRANCH  28  29
ENDBRANCH  27  28
ENDBRANCH  24  27
ENDBRANCH  19  20
ENDBRANCH   4  19
TORSDOF 9
ENDMDL
