MODEL 1
REMARK VINA RESULT:      -6.4      0.000      0.000
REMARK  Name = 
REMARK  4 active torsions:
REMARK  status: ('A' for Active; 'I' for Inactive)
REMARK    1  A    between atoms: C_1  and  C_2
REMARK    2  A    between atoms: C_6  and  C_7
REMARK    3  A    between atoms: N_9  and  C_10
REMARK    4  A    between atoms: C_10  and  C_11
REMARK                            x       y       z     vdW  Elec       q    Type
REMARK                         _______ _______ _______ _____ _____    ______ ____
ROOT
ATOM      1  C   UNL     1       5.352   4.009  18.118  0.00  0.00    +0.000 C 
ATOM      2  O   UNL     1       4.768   3.591  17.123  0.00  0.00    +0.000 OA
ATOM      3  N   UNL     1       5.244   3.430  19.361  0.00  0.00    +0.000 N 
ATOM      4  H   UNL     1       5.762   3.849  20.126  0.00  0.00    +0.000 HD
ENDROOT
BRANCH   1  10
ATOM      5  C   UNL     1       5.165   6.565  16.154  0.00  0.00    +0.000 C 
ATOM      6  C   UNL     1       6.139   6.258  17.231  0.00  0.00    +0.000 A 
ATOM      7  S   UNL     1       7.427   7.328  17.606  0.00  0.00    +0.000 S 
ATOM      8  N   UNL     1       8.024   6.351  18.819  0.00  0.00    +0.000 NA
ATOM      9  N   UNL     1       7.320   5.247  18.983  0.00  0.00    +0.000 NA
ATOM     10  C   UNL     1       6.242   5.171  18.091  0.00  0.00    +0.000 A 
ENDBRANCH   1  10
BRANCH   3  11
ATOM     11  C   UNL     1       4.459   2.249  19.620  0.00  0.00    +0.000 C 
BRANCH  11  12
ATOM     12  C   UNL     1       3.040   2.658  19.851  0.00  0.00    +0.000 A 
ATOM     13  C   UNL     1       2.518   3.368  20.916  0.00  0.00    +0.000 A 
ATOM     14  C   UNL     1       1.119   3.600  20.782  0.00  0.00    +0.000 A 
ATOM     15  C   UNL     1       0.614   3.054  19.622  0.00  0.00    +0.000 A 
ATOM     16  S   UNL     1       1.823   2.266  18.706  0.00  0.00    +0.000 S 
ENDBRANCH  11  12
ENDBRANCH   3  11
TORSDOF 3
ENDMDL
MODEL 2
REMARK VINA RESULT:      -6.3      0.829      1.061
REMARK  Name = 
REMARK  4 active torsions:
REMARK  status: ('A' for Active; 'I' for Inactive)
REMARK    1  A    between atoms: C_1  and  C_2
REMARK    2  A    between atoms: C_6  and  C_7
REMARK    3  A    between atoms: N_9  and  C_10
REMARK    4  A    between atoms: C_10  and  C_11
REMARK                            x       y       z     vdW  Elec       q    Type
REMARK                         _______ _______ _______ _____ _____    ______ ____
ROOT
ATOM      1  C   UNL     1       5.321   4.020  18.168  0.00  0.00    +0.000 C 
ATOM      2  O   UNL     1       4.737   3.589  17.179  0.00  0.00    +0.000 OA
ATOM      3  N   UNL     1       5.201   3.467  19.422  0.00  0.00    +0.000 N 
ATOM      4  H   UNL     1       5.721   3.895  20.180  0.00  0.00    +0.000 HD
ENDROOT
BRANCH   1  10
ATOM      5  C   UNL     1       5.176   6.535  16.148  0.00  0.00    +0.000 C 
ATOM      6  C   UNL     1       6.139   6.240  17.239  0.00  0.00    +0.000 A 
ATOM      7  S   UNL     1       7.436   7.305  17.600  0.00  0.00    +0.000 S 
ATOM      8  N   UNL     1       8.014   6.348  18.838  0.00  0.00    +0.000 NA
ATOM      9  N   UNL     1       7.296   5.255  19.020  0.00  0.00    +0.000 NA
ATOM     10  C   UNL     1       6.224   5.171  18.122  0.00  0.00    +0.000 A 
ENDBRANCH   1  10
BRANCH   3  11
ATOM     11  C   UNL     1       4.403   2.300  19.700  0.00  0.00    +0.000 C 
BRANCH  11  12
ATOM     12  C   UNL     1       2.963   2.702  19.738  0.00  0.00    +0.000 A 
ATOM     13  C   UNL     1       1.904   2.150  19.042  0.00  0.00    +0.000 A 
ATOM     14  C   UNL     1       0.663   2.776  19.354  0.00  0.00    +0.000 A 
ATOM     15  C   UNL     1       0.813   3.791  20.272  0.00  0.00    +0.000 A 
ATOM     16  S   UNL     1       2.443   3.986  20.750  0.00  0.00    +0.000 S 
ENDBRANCH  11  12
ENDBRANCH   3  11
TORSDOF 3
ENDMDL
MODEL 3
REMARK VINA RESULT:      -6.2      1.689      1.709
REMARK  Name = 
REMARK  4 active torsions:
REMARK  status: ('A' for Active; 'I' for Inactive)
REMARK    1  A    between atoms: C_1  and  C_2
REMARK    2  A    between atoms: C_6  and  C_7
REMARK    3  A    between atoms: N_9  and  C_10
REMARK    4  A    between atoms: C_10  and  C_11
REMARK                            x       y       z     vdW  Elec       q    Type
REMARK                         _______ _______ _______ _____ _____    ______ ____
ROOT
ATOM      1  C   UNL     1       5.967   4.399  18.802  0.00  0.00    +0.000 C 
ATOM      2  O   UNL     1       6.359   4.975  19.811  0.00  0.00    +0.000 OA
ATOM      3  N   UNL     1       5.160   3.285  18.829  0.00  0.00    +0.000 N 
ATOM      4  H   UNL     1       4.890   2.874  17.941  0.00  0.00    +0.000 HD
ENDROOT
BRANCH   1  10
ATOM      5  C   UNL     1       4.251   6.368  16.903  0.00  0.00    +0.000 C 
ATOM      6  C   UNL     1       5.547   5.688  16.652  0.00  0.00    +0.000 A 
ATOM      7  S   UNL     1       6.383   5.876  15.164  0.00  0.00    +0.000 S 
ATOM      8  N   UNL     1       7.638   4.878  15.625  0.00  0.00    +0.000 NA
ATOM      9  N   UNL     1       7.489   4.394  16.844  0.00  0.00    +0.000 NA
ATOM     10  C   UNL     1       6.307   4.840  17.448  0.00  0.00    +0.000 A 
ENDBRANCH   1  10
BRANCH   3  11
ATOM     11  C   UNL     1       4.661   2.696  20.046  0.00  0.00    +0.000 C 
BRANCH  11  12
ATOM     12  C   UNL     1       3.174   2.852  20.079  0.00  0.00    +0.000 A 
ATOM     13  C   UNL     1       2.404   3.484  21.037  0.00  0.00    +0.000 A 
ATOM     14  C   UNL     1       1.015   3.462  20.720  0.00  0.00    +0.000 A 
ATOM     15  C   UNL     1       0.767   2.808  19.534  0.00  0.00    +0.000 A 
ATOM     16  S   UNL     1       2.203   2.224  18.812  0.00  0.00    +0.000 S 
ENDBRANCH  11  12
ENDBRANCH   3  11
TORSDOF 3
ENDMDL
MODEL 4
REMARK VINA RESULT:      -6.1      1.949      2.148
REMARK  Name = 
REMARK  4 active torsions:
REMARK  status: ('A' for Active; 'I' for Inactive)
REMARK    1  A    between atoms: C_1  and  C_2
REMARK    2  A    between atoms: C_6  and  C_7
REMARK    3  A    between atoms: N_9  and  C_10
REMARK    4  A    between atoms: C_10  and  C_11
REMARK                            x       y       z     vdW  Elec       q    Type
REMARK                         _______ _______ _______ _____ _____    ______ ____
ROOT
ATOM      1  C   UNL     1       5.345   4.315  18.498  0.00  0.00    +0.000 C 
ATOM      2  O   UNL     1       5.116   5.274  19.228  0.00  0.00    +0.000 OA
ATOM      3  N   UNL     1       5.114   3.010  18.864  0.00  0.00    +0.000 N 
ATOM      4  H   UNL     1       5.339   2.282  18.194  0.00  0.00    +0.000 HD
ENDROOT
BRANCH   1  10
ATOM      5  C   UNL     1       7.419   6.555  17.444  0.00  0.00    +0.000 C 
ATOM      6  C   UNL     1       6.776   5.431  16.717  0.00  0.00    +0.000 A 
ATOM      7  S   UNL     1       7.077   5.154  15.050  0.00  0.00    +0.000 S 
ATOM      8  N   UNL     1       6.066   3.828  14.982  0.00  0.00    +0.000 NA
ATOM      9  N   UNL     1       5.497   3.556  16.142  0.00  0.00    +0.000 NA
ATOM     10  C   UNL     1       5.884   4.454  17.144  0.00  0.00    +0.000 A 
ENDBRANCH   1  10
BRANCH   3  11
ATOM     11  C   UNL     1       4.545   2.631  20.133  0.00  0.00    +0.000 C 
BRANCH  11  12
ATOM     12  C   UNL     1       3.063   2.816  20.068  0.00  0.00    +0.000 A 
ATOM     13  C   UNL     1       2.246   3.481  20.963  0.00  0.00    +0.000 A 
ATOM     14  C   UNL     1       0.880   3.479  20.558  0.00  0.00    +0.000 A 
ATOM     15  C   UNL     1       0.695   2.806  19.371  0.00  0.00    +0.000 A 
ATOM     16  S   UNL     1       2.162   2.181  18.753  0.00  0.00    +0.000 S 
ENDBRANCH  11  12
ENDBRANCH   3  11
TORSDOF 3
ENDMDL
MODEL 5
REMARK VINA RESULT:      -6.1      2.254      2.514
REMARK  Name = 
REMARK  4 active torsions:
REMARK  status: ('A' for Active; 'I' for Inactive)
REMARK    1  A    between atoms: C_1  and  C_2
REMARK    2  A    between atoms: C_6  and  C_7
REMARK    3  A    between atoms: N_9  and  C_10
REMARK    4  A    between atoms: C_10  and  C_11
REMARK                            x       y       z     vdW  Elec       q    Type
REMARK                         _______ _______ _______ _____ _____    ______ ____
ROOT
ATOM      1  C   UNL     1       5.218   4.771  18.433  0.00  0.00    +0.000 C 
ATOM      2  O   UNL     1       5.719   4.238  19.417  0.00  0.00    +0.000 OA
ATOM      3  N   UNL     1       4.058   5.509  18.476  0.00  0.00    +0.000 N 
ATOM      4  H   UNL     1       3.718   5.909  17.609  0.00  0.00    +0.000 HD
ENDROOT
BRANCH   1  10
ATOM      5  C   UNL     1       7.379   6.787  17.131  0.00  0.00    +0.000 C 
ATOM      6  C   UNL     1       6.737   5.576  16.560  0.00  0.00    +0.000 A 
ATOM      7  S   UNL     1       7.092   5.040  14.968  0.00  0.00    +0.000 S 
ATOM      8  N   UNL     1       6.054   3.737  15.064  0.00  0.00    +0.000 NA
ATOM      9  N   UNL     1       5.437   3.656  16.228  0.00  0.00    +0.000 NA
ATOM     10  C   UNL     1       5.809   4.691  17.096  0.00  0.00    +0.000 A 
ENDBRANCH   1  10
BRANCH   3  11
ATOM     11  C   UNL     1       3.324   5.762  19.691  0.00  0.00    +0.000 C 
BRANCH  11  12
ATOM     12  C   UNL     1       2.421   4.600  19.957  0.00  0.00    +0.000 A 
ATOM     13  C   UNL     1       2.147   3.992  21.167  0.00  0.00    +0.000 A 
ATOM     14  C   UNL     1       1.210   2.926  21.041  0.00  0.00    +0.000 A 
ATOM     15  C   UNL     1       0.803   2.749  19.737  0.00  0.00    +0.000 A 
ATOM     16  S   UNL     1       1.552   3.862  18.675  0.00  0.00    +0.000 S 
ENDBRANCH  11  12
ENDBRANCH   3  11
TORSDOF 3
ENDMDL
MODEL 6
REMARK VINA RESULT:      -6.1      2.262      2.517
REMARK  Name = 
REMARK  4 active torsions:
REMARK  status: ('A' for Active; 'I' for Inactive)
REMARK    1  A    between atoms: C_1  and  C_2
REMARK    2  A    between atoms: C_6  and  C_7
REMARK    3  A    between atoms: N_9  and  C_10
REMARK    4  A    between atoms: C_10  and  C_11
REMARK                            x       y       z     vdW  Elec       q    Type
REMARK                         _______ _______ _______ _____ _____    ______ ____
ROOT
ATOM      1  C   UNL     1       5.231   5.592  18.536  0.00  0.00    +0.000 C 
ATOM      2  O   UNL     1       5.751   5.404  19.631  0.00  0.00    +0.000 OA
ATOM      3  N   UNL     1       3.919   5.974  18.375  0.00  0.00    +0.000 N 
ATOM      4  H   UNL     1       3.576   6.102  17.429  0.00  0.00    +0.000 HD
ENDROOT
BRANCH   1  10
ATOM      5  C   UNL     1       4.703   3.381  16.243  0.00  0.00    +0.000 C 
ATOM      6  C   UNL     1       5.705   4.475  16.303  0.00  0.00    +0.000 A 
ATOM      7  S   UNL     1       6.833   4.727  15.033  0.00  0.00    +0.000 S 
ATOM      8  N   UNL     1       7.553   6.027  15.791  0.00  0.00    +0.000 NA
ATOM      9  N   UNL     1       7.006   6.308  16.959  0.00  0.00    +0.000 NA
ATOM     10  C   UNL     1       5.953   5.439  17.272  0.00  0.00    +0.000 A 
ENDBRANCH   1  10
BRANCH   3  11
ATOM     11  C   UNL     1       3.026   6.229  19.477  0.00  0.00    +0.000 C 
BRANCH  11  12
ATOM     12  C   UNL     1       2.292   4.967  19.800  0.00  0.00    +0.000 A 
ATOM     13  C   UNL     1       2.046   4.418  21.044  0.00  0.00    +0.000 A 
ATOM     14  C   UNL     1       1.285   3.216  20.968  0.00  0.00    +0.000 A 
ATOM     15  C   UNL     1       0.980   2.880  19.668  0.00  0.00    +0.000 A 
ATOM     16  S   UNL     1       1.611   4.010  18.550  0.00  0.00    +0.000 S 
ENDBRANCH  11  12
ENDBRANCH   3  11
TORSDOF 3
ENDMDL
MODEL 7
REMARK VINA RESULT:      -6.1      2.268      2.555
REMARK  Name = 
REMARK  4 active torsions:
REMARK  status: ('A' for Active; 'I' for Inactive)
REMARK    1  A    between atoms: C_1  and  C_2
REMARK    2  A    between atoms: C_6  and  C_7
REMARK    3  A    between atoms: N_9  and  C_10
REMARK    4  A    between atoms: C_10  and  C_11
REMARK                            x       y       z     vdW  Elec       q    Type
REMARK                         _______ _______ _______ _____ _____    ______ ____
ROOT
ATOM      1  C   UNL     1       4.238   6.540  17.751  0.00  0.00    +0.000 C 
ATOM      2  O   UNL     1       3.515   7.459  17.382  0.00  0.00    +0.000 OA
ATOM      3  N   UNL     1       4.029   5.826  18.908  0.00  0.00    +0.000 N 
ATOM      4  H   UNL     1       4.684   5.085  19.132  0.00  0.00    +0.000 HD
ENDROOT
BRANCH   1  10
ATOM      5  C   UNL     1       4.597   3.728  16.206  0.00  0.00    +0.000 C 
ATOM      6  C   UNL     1       5.534   4.872  16.337  0.00  0.00    +0.000 A 
ATOM      7  S   UNL     1       7.092   4.841  15.616  0.00  0.00    +0.000 S 
ATOM      8  N   UNL     1       7.496   6.359  16.178  0.00  0.00    +0.000 NA
ATOM      9  N   UNL     1       6.532   6.918  16.887  0.00  0.00    +0.000 NA
ATOM     10  C   UNL     1       5.407   6.091  16.992  0.00  0.00    +0.000 A 
ENDBRANCH   1  10
BRANCH   3  11
ATOM     11  C   UNL     1       2.916   6.059  19.793  0.00  0.00    +0.000 C 
BRANCH  11  12
ATOM     12  C   UNL     1       2.215   4.760  20.035  0.00  0.00    +0.000 A 
ATOM     13  C   UNL     1       2.017   4.108  21.237  0.00  0.00    +0.000 A 
ATOM     14  C   UNL     1       1.277   2.900  21.086  0.00  0.00    +0.000 A 
ATOM     15  C   UNL     1       0.940   2.663  19.772  0.00  0.00    +0.000 A 
ATOM     16  S   UNL     1       1.516   3.891  18.731  0.00  0.00    +0.000 S 
ENDBRANCH  11  12
ENDBRANCH   3  11
TORSDOF 3
ENDMDL
MODEL 8
REMARK VINA RESULT:      -6.0      2.408      2.728
REMARK  Name = 
REMARK  4 active torsions:
REMARK  status: ('A' for Active; 'I' for Inactive)
REMARK    1  A    between atoms: C_1  and  C_2
REMARK    2  A    between atoms: C_6  and  C_7
REMARK    3  A    between atoms: N_9  and  C_10
REMARK    4  A    between atoms: C_10  and  C_11
REMARK                            x       y       z     vdW  Elec       q    Type
REMARK                         _______ _______ _______ _____ _____    ______ ____
ROOT
ATOM      1  C   UNL     1       5.157   4.770  18.388  0.00  0.00    +0.000 C 
ATOM      2  O   UNL     1       5.635   4.235  19.382  0.00  0.00    +0.000 OA
ATOM      3  N   UNL     1       3.999   5.513  18.408  0.00  0.00    +0.000 N 
ATOM      4  H   UNL     1       3.679   5.915  17.533  0.00  0.00    +0.000 HD
ENDROOT
BRANCH   1  10
ATOM      5  C   UNL     1       7.394   6.743  17.151  0.00  0.00    +0.000 C 
ATOM      6  C   UNL     1       6.735   5.554  16.556  0.00  0.00    +0.000 A 
ATOM      7  S   UNL     1       7.111   5.024  14.967  0.00  0.00    +0.000 S 
ATOM      8  N   UNL     1       6.041   3.746  15.029  0.00  0.00    +0.000 NA
ATOM      9  N   UNL     1       5.396   3.670  16.178  0.00  0.00    +0.000 NA
ATOM     10  C   UNL     1       5.774   4.688  17.063  0.00  0.00    +0.000 A 
ENDBRANCH   1  10
BRANCH   3  11
ATOM     11  C   UNL     1       3.242   5.770  19.607  0.00  0.00    +0.000 C 
BRANCH  11  12
ATOM     12  C   UNL     1       2.339   4.605  19.862  0.00  0.00    +0.000 A 
ATOM     13  C   UNL     1       1.494   3.969  18.973  0.00  0.00    +0.000 A 
ATOM     14  C   UNL     1       0.805   2.873  19.565  0.00  0.00    +0.000 A 
ATOM     15  C   UNL     1       1.140   2.709  20.891  0.00  0.00    +0.000 A 
ATOM     16  S   UNL     1       2.276   3.876  21.414  0.00  0.00    +0.000 S 
ENDBRANCH  11  12
ENDBRANCH   3  11
TORSDOF 3
ENDMDL
MODEL 9
REMARK VINA RESULT:      -6.0      2.112      2.383
REMARK  Name = 
REMARK  4 active torsions:
REMARK  status: ('A' for Active; 'I' for Inactive)
REMARK    1  A    between atoms: C_1  and  C_2
REMARK    2  A    between atoms: C_6  and  C_7
REMARK    3  A    between atoms: N_9  and  C_10
REMARK    4  A    between atoms: C_10  and  C_11
REMARK                            x       y       z     vdW  Elec       q    Type
REMARK                         _______ _______ _______ _____ _____    ______ ____
ROOT
ATOM      1  C   UNL     1       5.317   4.307  18.496  0.00  0.00    +0.000 C 
ATOM      2  O   UNL     1       5.040   5.264  19.211  0.00  0.00    +0.000 OA
ATOM      3  N   UNL     1       5.098   2.998  18.861  0.00  0.00    +0.000 N 
ATOM      4  H   UNL     1       5.363   2.272  18.205  0.00  0.00    +0.000 HD
ENDROOT
BRANCH   1  10
ATOM      5  C   UNL     1       7.481   6.505  17.544  0.00  0.00    +0.000 C 
ATOM      6  C   UNL     1       6.834   5.408  16.780  0.00  0.00    +0.000 A 
ATOM      7  S   UNL     1       7.185   5.145  15.121  0.00  0.00    +0.000 S 
ATOM      8  N   UNL     1       6.144   3.847  15.000  0.00  0.00    +0.000 NA
ATOM      9  N   UNL     1       5.528   3.575  16.136  0.00  0.00    +0.000 NA
ATOM     10  C   UNL     1       5.904   4.449  17.163  0.00  0.00    +0.000 A 
ENDBRANCH   1  10
BRANCH   3  11
ATOM     11  C   UNL     1       4.488   2.615  20.110  0.00  0.00    +0.000 C 
BRANCH  11  12
ATOM     12  C   UNL     1       3.006   2.765  19.985  0.00  0.00    +0.000 A 
ATOM     13  C   UNL     1       2.167   2.201  19.043  0.00  0.00    +0.000 A 
ATOM     14  C   UNL     1       0.801   2.544  19.255  0.00  0.00    +0.000 A 
ATOM     15  C   UNL     1       0.639   3.366  20.348  0.00  0.00    +0.000 A 
ATOM     16  S   UNL     1       2.130   3.720  21.109  0.00  0.00    +0.000 S 
ENDBRANCH  11  12
ENDBRANCH   3  11
TORSDOF 3
ENDMDL
