MODEL 1
REMARK VINA RESULT:      -7.1      0.000      0.000
REMARK  Name = 
REMARK  4 active torsions:
REMARK  status: ('A' for Active; 'I' for Inactive)
REMARK    1  A    between atoms: C_1  and  C_2
REMARK    2  A    between atoms: C_7  and  N_8
REMARK    3  A    between atoms: C_14  and  O_15
REMARK    4  A    between atoms: C_16  and  C_17
REMARK                            x       y       z     vdW  Elec       q    Type
REMARK                         _______ _______ _______ _____ _____    ______ ____
ROOT
ATOM      1  N   UNL     1       1.727   7.992  19.642  0.00  0.00    +0.000 N 
ATOM      2  C   UNL     1       2.671   7.117  19.175  0.00  0.00    +0.000 C 
ATOM      3  O   UNL     1       3.616   7.491  18.490  0.00  0.00    +0.000 OA
ATOM      4  N   UNL     1       2.497   5.809  19.599  0.00  0.00    +0.000 N 
ATOM      5  C   UNL     1       1.477   5.355  20.541  0.00  0.00    +0.000 C 
ATOM      6  C   UNL     1       2.086   4.179  21.288  0.00  0.00    +0.000 C 
ATOM      7  C   UNL     1       3.079   3.604  20.290  0.00  0.00    +0.000 C 
ATOM      8  C   UNL     1       3.634   4.878  19.599  0.00  0.00    +0.000 C 
ATOM      9  H   UNL     1       0.880   7.611  20.026  0.00  0.00    +0.000 HD
ENDROOT
BRANCH   1  16
ATOM     10  C   UNL     1      -2.415  11.413  17.256  0.00  0.00    +0.000 C 
ATOM     11  C   UNL     1      -1.973  11.163  18.673  0.00  0.00    +0.000 C 
ATOM     12  O   UNL     1      -2.521  11.763  19.600  0.00  0.00    +0.000 OA
ATOM     13  N   UNL     1      -0.966  10.232  18.878  0.00  0.00    +0.000 N 
ATOM     14  C   UNL     1      -0.582   9.901  20.246  0.00  0.00    +0.000 C 
ATOM     15  C   UNL     1       0.906  10.154  20.465  0.00  0.00    +0.000 C 
ATOM     16  C   UNL     1       1.763   9.434  19.413  0.00  0.00    +0.000 C 
ATOM     17  C   UNL     1       1.287   9.773  17.995  0.00  0.00    +0.000 C 
ATOM     18  C   UNL     1      -0.216   9.540  17.828  0.00  0.00    +0.000 C 
ENDBRANCH   1  16
BRANCH   8  19
ATOM     19  C   UNL     1       4.340   4.598  18.286  0.00  0.00    +0.000 A 
ATOM     20  C   UNL     1       3.657   4.248  17.111  0.00  0.00    +0.000 A 
ATOM     21  C   UNL     1       4.360   4.033  15.924  0.00  0.00    +0.000 A 
ATOM     22  C   UNL     1       5.751   4.158  15.892  0.00  0.00    +0.000 A 
ATOM     23 CL   UNL     1       6.607   3.932  14.424  0.00  0.00    +0.000 Cl
ATOM     24  C   UNL     1       6.446   4.482  17.058  0.00  0.00    +0.000 A 
ATOM     25  C   UNL     1       5.740   4.692  18.244  0.00  0.00    +0.000 A 
ENDBRANCH   8  19
BRANCH   7  26
ATOM     26  O   UNL     1       2.363   2.713  19.428  0.00  0.00    +0.000 OA
ATOM     27  H   UNL     1       2.626   1.803  19.651  0.00  0.00    +0.000 HD
ENDBRANCH   7  26
TORSDOF 3
ENDMDL
MODEL 2
REMARK VINA RESULT:      -6.8      3.448      7.893
REMARK  Name = 
REMARK  4 active torsions:
REMARK  status: ('A' for Active; 'I' for Inactive)
REMARK    1  A    between atoms: C_1  and  C_2
REMARK    2  A    between atoms: C_7  and  N_8
REMARK    3  A    between atoms: C_14  and  O_15
REMARK    4  A    between atoms: C_16  and  C_17
REMARK                            x       y       z     vdW  Elec       q    Type
REMARK                         _______ _______ _______ _____ _____    ______ ____
ROOT
ATOM      1  N   UNL     1       2.214   7.398  19.499  0.00  0.00    +0.000 N 
ATOM      2  C   UNL     1       1.695   8.659  19.368  0.00  0.00    +0.000 C 
ATOM      3  O   UNL     1       1.772   9.282  18.316  0.00  0.00    +0.000 OA
ATOM      4  N   UNL     1       1.031   9.124  20.492  0.00  0.00    +0.000 N 
ATOM      5  C   UNL     1       0.782   8.350  21.706  0.00  0.00    +0.000 C 
ATOM      6  C   UNL     1      -0.532   8.866  22.273  0.00  0.00    +0.000 C 
ATOM      7  C   UNL     1      -0.585  10.306  21.785  0.00  0.00    +0.000 C 
ATOM      8  C   UNL     1       0.040  10.201  20.368  0.00  0.00    +0.000 C 
ATOM      9  H   UNL     1       2.295   7.017  20.425  0.00  0.00    +0.000 HD
ENDROOT
BRANCH   1  16
ATOM     10  C   UNL     1       4.505   1.987  19.627  0.00  0.00    +0.000 C 
ATOM     11  C   UNL     1       3.216   2.550  19.089  0.00  0.00    +0.000 C 
ATOM     12  O   UNL     1       2.410   1.806  18.527  0.00  0.00    +0.000 OA
ATOM     13  N   UNL     1       2.977   3.903  19.277  0.00  0.00    +0.000 N 
ATOM     14  C   UNL     1       1.697   4.457  18.850  0.00  0.00    +0.000 C 
ATOM     15  C   UNL     1       1.907   5.598  17.859  0.00  0.00    +0.000 C 
ATOM     16  C   UNL     1       2.862   6.663  18.417  0.00  0.00    +0.000 C 
ATOM     17  C   UNL     1       4.171   6.024  18.901  0.00  0.00    +0.000 C 
ATOM     18  C   UNL     1       3.915   4.863  19.863  0.00  0.00    +0.000 C 
ENDBRANCH   1  16
BRANCH   8  19
ATOM     19  C   UNL     1       0.487  11.535  19.802  0.00  0.00    +0.000 A 
ATOM     20  C   UNL     1      -0.233  12.225  18.814  0.00  0.00    +0.000 A 
ATOM     21  C   UNL     1       0.213  13.466  18.354  0.00  0.00    +0.000 A 
ATOM     22  C   UNL     1       1.381  14.033  18.868  0.00  0.00    +0.000 A 
ATOM     23 CL   UNL     1       1.904  15.575  18.330  0.00  0.00    +0.000 Cl
ATOM     24  C   UNL     1       2.120  13.349  19.834  0.00  0.00    +0.000 A 
ATOM     25  C   UNL     1       1.674  12.106  20.288  0.00  0.00    +0.000 A 
ENDBRANCH   8  19
BRANCH   7  26
ATOM     26  O   UNL     1       0.154  11.107  22.713  0.00  0.00    +0.000 OA
ATOM     27  H   UNL     1       0.936  11.457  22.251  0.00  0.00    +0.000 HD
ENDBRANCH   7  26
TORSDOF 3
ENDMDL
MODEL 3
REMARK VINA RESULT:      -6.7      1.320      1.563
REMARK  Name = 
REMARK  4 active torsions:
REMARK  status: ('A' for Active; 'I' for Inactive)
REMARK    1  A    between atoms: C_1  and  C_2
REMARK    2  A    between atoms: C_7  and  N_8
REMARK    3  A    between atoms: C_14  and  O_15
REMARK    4  A    between atoms: C_16  and  C_17
REMARK                            x       y       z     vdW  Elec       q    Type
REMARK                         _______ _______ _______ _____ _____    ______ ____
ROOT
ATOM      1  N   UNL     1       1.320   8.476  18.567  0.00  0.00    +0.000 N 
ATOM      2  C   UNL     1       2.454   7.753  18.310  0.00  0.00    +0.000 C 
ATOM      3  O   UNL     1       3.352   8.191  17.600  0.00  0.00    +0.000 OA
ATOM      4  N   UNL     1       2.517   6.535  18.969  0.00  0.00    +0.000 N 
ATOM      5  C   UNL     1       1.543   6.050  19.943  0.00  0.00    +0.000 C 
ATOM      6  C   UNL     1       2.320   5.183  20.921  0.00  0.00    +0.000 C 
ATOM      7  C   UNL     1       3.481   4.664  20.087  0.00  0.00    +0.000 C 
ATOM      8  C   UNL     1       3.816   5.882  19.186  0.00  0.00    +0.000 C 
ATOM      9  H   UNL     1       0.542   7.998  18.987  0.00  0.00    +0.000 HD
ENDROOT
BRANCH   1  16
ATOM     10  C   UNL     1      -2.650  12.395  20.420  0.00  0.00    +0.000 C 
ATOM     11  C   UNL     1      -1.168  12.243  20.640  0.00  0.00    +0.000 C 
ATOM     12  O   UNL     1      -0.563  13.070  21.324  0.00  0.00    +0.000 OA
ATOM     13  N   UNL     1      -0.542  11.144  20.071  0.00  0.00    +0.000 N 
ATOM     14  C   UNL     1       0.874  10.921  20.344  0.00  0.00    +0.000 C 
ATOM     15  C   UNL     1       1.670  10.857  19.045  0.00  0.00    +0.000 C 
ATOM     16  C   UNL     1       1.081   9.827  18.070  0.00  0.00    +0.000 C 
ATOM     17  C   UNL     1      -0.419  10.072  17.857  0.00  0.00    +0.000 C 
ATOM     18  C   UNL     1      -1.174  10.165  19.184  0.00  0.00    +0.000 C 
ENDBRANCH   1  16
BRANCH   8  19
ATOM     19  C   UNL     1       4.660   5.529  17.977  0.00  0.00    +0.000 A 
ATOM     20  C   UNL     1       4.175   4.766  16.903  0.00  0.00    +0.000 A 
ATOM     21  C   UNL     1       4.991   4.500  15.801  0.00  0.00    +0.000 A 
ATOM     22  C   UNL     1       6.300   4.984  15.757  0.00  0.00    +0.000 A 
ATOM     23 CL   UNL     1       7.285   4.688  14.385  0.00  0.00    +0.000 Cl
ATOM     24  C   UNL     1       6.804   5.724  16.827  0.00  0.00    +0.000 A 
ATOM     25  C   UNL     1       5.987   5.985  17.929  0.00  0.00    +0.000 A 
ENDBRANCH   8  19
BRANCH   7  26
ATOM     26  O   UNL     1       3.026   3.501  19.385  0.00  0.00    +0.000 OA
ATOM     27  H   UNL     1       2.828   2.812  20.043  0.00  0.00    +0.000 HD
ENDBRANCH   7  26
TORSDOF 3
ENDMDL
MODEL 4
REMARK VINA RESULT:      -6.4      1.650      1.872
REMARK  Name = 
REMARK  4 active torsions:
REMARK  status: ('A' for Active; 'I' for Inactive)
REMARK    1  A    between atoms: C_1  and  C_2
REMARK    2  A    between atoms: C_7  and  N_8
REMARK    3  A    between atoms: C_14  and  O_15
REMARK    4  A    between atoms: C_16  and  C_17
REMARK                            x       y       z     vdW  Elec       q    Type
REMARK                         _______ _______ _______ _____ _____    ______ ____
ROOT
ATOM      1  N   UNL     1       1.656   7.471  20.467  0.00  0.00    +0.000 N 
ATOM      2  C   UNL     1       2.533   6.600  19.877  0.00  0.00    +0.000 C 
ATOM      3  O   UNL     1       3.631   6.964  19.475  0.00  0.00    +0.000 OA
ATOM      4  N   UNL     1       2.096   5.285  19.843  0.00  0.00    +0.000 N 
ATOM      5  C   UNL     1       0.865   4.788  20.453  0.00  0.00    +0.000 C 
ATOM      6  C   UNL     1       1.150   3.351  20.865  0.00  0.00    +0.000 C 
ATOM      7  C   UNL     1       2.216   2.905  19.875  0.00  0.00    +0.000 C 
ATOM      8  C   UNL     1       3.066   4.191  19.698  0.00  0.00    +0.000 C 
ATOM      9  H   UNL     1       0.707   7.167  20.599  0.00  0.00    +0.000 HD
ENDROOT
BRANCH   1  16
ATOM     10  C   UNL     1      -2.148  11.877  21.284  0.00  0.00    +0.000 C 
ATOM     11  C   UNL     1      -1.289  11.068  22.219  0.00  0.00    +0.000 C 
ATOM     12  O   UNL     1      -1.302  11.311  23.427  0.00  0.00    +0.000 OA
ATOM     13  N   UNL     1      -0.525  10.049  21.671  0.00  0.00    +0.000 N 
ATOM     14  C   UNL     1       0.245   9.189  22.564  0.00  0.00    +0.000 C 
ATOM     15  C   UNL     1       1.725   9.214  22.193  0.00  0.00    +0.000 C 
ATOM     16  C   UNL     1       1.942   8.882  20.710  0.00  0.00    +0.000 C 
ATOM     17  C   UNL     1       1.072   9.776  19.816  0.00  0.00    +0.000 C 
ATOM     18  C   UNL     1      -0.396   9.750  20.243  0.00  0.00    +0.000 C 
ENDBRANCH   1  16
BRANCH   8  19
ATOM     19  C   UNL     1       3.953   4.167  18.469  0.00  0.00    +0.000 A 
ATOM     20  C   UNL     1       3.445   4.113  17.162  0.00  0.00    +0.000 A 
ATOM     21  C   UNL     1       4.312   4.125  16.067  0.00  0.00    +0.000 A 
ATOM     22  C   UNL     1       5.694   4.186  16.259  0.00  0.00    +0.000 A 
ATOM     23 CL   UNL     1       6.753   4.241  14.912  0.00  0.00    +0.000 Cl
ATOM     24  C   UNL     1       6.215   4.217  17.553  0.00  0.00    +0.000 A 
ATOM     25  C   UNL     1       5.346   4.200  18.645  0.00  0.00    +0.000 A 
ENDBRANCH   8  19
BRANCH   7  26
ATOM     26  O   UNL     1       1.549   2.455  18.692  0.00  0.00    +0.000 OA
ATOM     27  H   UNL     1       0.596   2.617  18.804  0.00  0.00    +0.000 HD
ENDBRANCH   7  26
TORSDOF 3
ENDMDL
MODEL 5
REMARK VINA RESULT:      -6.4      0.731      1.227
REMARK  Name = 
REMARK  4 active torsions:
REMARK  status: ('A' for Active; 'I' for Inactive)
REMARK    1  A    between atoms: C_1  and  C_2
REMARK    2  A    between atoms: C_7  and  N_8
REMARK    3  A    between atoms: C_14  and  O_15
REMARK    4  A    between atoms: C_16  and  C_17
REMARK                            x       y       z     vdW  Elec       q    Type
REMARK                         _______ _______ _______ _____ _____    ______ ____
ROOT
ATOM      1  N   UNL     1       1.623   7.526  20.316  0.00  0.00    +0.000 N 
ATOM      2  C   UNL     1       2.557   6.687  19.769  0.00  0.00    +0.000 C 
ATOM      3  O   UNL     1       3.615   7.107  19.315  0.00  0.00    +0.000 OA
ATOM      4  N   UNL     1       2.229   5.343  19.840  0.00  0.00    +0.000 N 
ATOM      5  C   UNL     1       1.054   4.794  20.514  0.00  0.00    +0.000 C 
ATOM      6  C   UNL     1       1.463   3.420  21.022  0.00  0.00    +0.000 C 
ATOM      7  C   UNL     1       2.544   2.989  20.042  0.00  0.00    +0.000 C 
ATOM      8  C   UNL     1       3.283   4.322  19.752  0.00  0.00    +0.000 C 
ATOM      9  H   UNL     1       0.704   7.157  20.491  0.00  0.00    +0.000 HD
ENDROOT
BRANCH   1  16
ATOM     10  C   UNL     1      -1.594  11.825  17.923  0.00  0.00    +0.000 C 
ATOM     11  C   UNL     1      -1.533  11.227  19.304  0.00  0.00    +0.000 C 
ATOM     12  O   UNL     1      -2.259  11.670  20.196  0.00  0.00    +0.000 OA
ATOM     13  N   UNL     1      -0.664  10.166  19.508  0.00  0.00    +0.000 N 
ATOM     14  C   UNL     1      -0.651   9.507  20.809  0.00  0.00    +0.000 C 
ATOM     15  C   UNL     1       0.748   9.538  21.416  0.00  0.00    +0.000 C 
ATOM     16  C   UNL     1       1.797   8.969  20.449  0.00  0.00    +0.000 C 
ATOM     17  C   UNL     1       1.708   9.658  19.080  0.00  0.00    +0.000 C 
ATOM     18  C   UNL     1       0.283   9.636  18.524  0.00  0.00    +0.000 C 
ENDBRANCH   1  16
BRANCH   8  19
ATOM     19  C   UNL     1       4.147   4.279  18.507  0.00  0.00    +0.000 A 
ATOM     20  C   UNL     1       5.550   4.323  18.549  0.00  0.00    +0.000 A 
ATOM     21  C   UNL     1       6.294   4.247  17.370  0.00  0.00    +0.000 A 
ATOM     22  C   UNL     1       5.652   4.133  16.134  0.00  0.00    +0.000 A 
ATOM     23 CL   UNL     1       6.569   4.001  14.692  0.00  0.00    +0.000 Cl
ATOM     24  C   UNL     1       4.258   4.111  16.075  0.00  0.00    +0.000 A 
ATOM     25  C   UNL     1       3.517   4.192  17.255  0.00  0.00    +0.000 A 
ENDBRANCH   8  19
BRANCH   7  26
ATOM     26  O   UNL     1       1.895   2.400  18.910  0.00  0.00    +0.000 OA
ATOM     27  H   UNL     1       2.556   2.300  18.203  0.00  0.00    +0.000 HD
ENDBRANCH   7  26
TORSDOF 3
ENDMDL
MODEL 6
REMARK VINA RESULT:      -6.2      3.551      8.020
REMARK  Name = 
REMARK  4 active torsions:
REMARK  status: ('A' for Active; 'I' for Inactive)
REMARK    1  A    between atoms: C_1  and  C_2
REMARK    2  A    between atoms: C_7  and  N_8
REMARK    3  A    between atoms: C_14  and  O_15
REMARK    4  A    between atoms: C_16  and  C_17
REMARK                            x       y       z     vdW  Elec       q    Type
REMARK                         _______ _______ _______ _____ _____    ______ ____
ROOT
ATOM      1  N   UNL     1       1.910   7.629  19.028  0.00  0.00    +0.000 N 
ATOM      2  C   UNL     1       1.384   8.893  19.031  0.00  0.00    +0.000 C 
ATOM      3  O   UNL     1       1.336   9.574  18.014  0.00  0.00    +0.000 OA
ATOM      4  N   UNL     1       0.861   9.292  20.251  0.00  0.00    +0.000 N 
ATOM      5  C   UNL     1       0.758   8.451  21.441  0.00  0.00    +0.000 C 
ATOM      6  C   UNL     1      -0.476   8.930  22.190  0.00  0.00    +0.000 C 
ATOM      7  C   UNL     1      -0.583  10.395  21.793  0.00  0.00    +0.000 C 
ATOM      8  C   UNL     1      -0.134  10.371  20.307  0.00  0.00    +0.000 C 
ATOM      9  H   UNL     1       2.102   7.197  19.915  0.00  0.00    +0.000 HD
ENDROOT
BRANCH   1  16
ATOM     10  C   UNL     1       7.120   5.017  18.266  0.00  0.00    +0.000 C 
ATOM     11  C   UNL     1       5.732   4.495  18.525  0.00  0.00    +0.000 C 
ATOM     12  O   UNL     1       5.538   3.280  18.595  0.00  0.00    +0.000 OA
ATOM     13  N   UNL     1       4.718   5.424  18.701  0.00  0.00    +0.000 N 
ATOM     14  C   UNL     1       3.382   4.951  19.046  0.00  0.00    +0.000 C 
ATOM     15  C   UNL     1       2.358   5.435  18.024  0.00  0.00    +0.000 C 
ATOM     16  C   UNL     1       2.422   6.958  17.837  0.00  0.00    +0.000 C 
ATOM     17  C   UNL     1       3.855   7.411  17.529  0.00  0.00    +0.000 C 
ATOM     18  C   UNL     1       4.854   6.876  18.556  0.00  0.00    +0.000 C 
ENDBRANCH   1  16
BRANCH   8  19
ATOM     19  C   UNL     1       0.246  11.736  19.767  0.00  0.00    +0.000 A 
ATOM     20  C   UNL     1      -0.592  12.484  18.924  0.00  0.00    +0.000 A 
ATOM     21  C   UNL     1      -0.200  13.750  18.484  0.00  0.00    +0.000 A 
ATOM     22  C   UNL     1       1.030  14.285  18.871  0.00  0.00    +0.000 A 
ATOM     23 CL   UNL     1       1.490  15.856  18.361  0.00  0.00    +0.000 Cl
ATOM     24  C   UNL     1       1.883  13.544  19.690  0.00  0.00    +0.000 A 
ATOM     25  C   UNL     1       1.491  12.277  20.125  0.00  0.00    +0.000 A 
ENDBRANCH   8  19
BRANCH   7  26
ATOM     26  O   UNL     1       0.264  11.146  22.668  0.00  0.00    +0.000 OA
ATOM     27  H   UNL     1       0.420  12.017  22.262  0.00  0.00    +0.000 HD
ENDBRANCH   7  26
TORSDOF 3
ENDMDL
MODEL 7
REMARK VINA RESULT:      -5.8      4.857      7.424
REMARK  Name = 
REMARK  4 active torsions:
REMARK  status: ('A' for Active; 'I' for Inactive)
REMARK    1  A    between atoms: C_1  and  C_2
REMARK    2  A    between atoms: C_7  and  N_8
REMARK    3  A    between atoms: C_14  and  O_15
REMARK    4  A    between atoms: C_16  and  C_17
REMARK                            x       y       z     vdW  Elec       q    Type
REMARK                         _______ _______ _______ _____ _____    ______ ____
ROOT
ATOM      1  N   UNL     1       1.243  14.009  20.499  0.00  0.00    +0.000 N 
ATOM      2  C   UNL     1       1.089  12.648  20.489  0.00  0.00    +0.000 C 
ATOM      3  O   UNL     1       1.642  11.930  21.313  0.00  0.00    +0.000 OA
ATOM      4  N   UNL     1       0.214  12.179  19.522  0.00  0.00    +0.000 N 
ATOM      5  C   UNL     1      -0.583  13.015  18.627  0.00  0.00    +0.000 C 
ATOM      6  C   UNL     1      -1.861  12.237  18.351  0.00  0.00    +0.000 C 
ATOM      7  C   UNL     1      -1.431  10.786  18.505  0.00  0.00    +0.000 C 
ATOM      8  C   UNL     1      -0.416  10.861  19.677  0.00  0.00    +0.000 C 
ATOM      9  H   UNL     1       0.930  14.524  19.695  0.00  0.00    +0.000 HD
ENDROOT
BRANCH   1  16
ATOM     10  C   UNL     1       6.565  16.423  19.876  0.00  0.00    +0.000 C 
ATOM     11  C   UNL     1       5.170  16.989  19.894  0.00  0.00    +0.000 C 
ATOM     12  O   UNL     1       5.001  18.204  19.775  0.00  0.00    +0.000 OA
ATOM     13  N   UNL     1       4.116  16.098  20.021  0.00  0.00    +0.000 N 
ATOM     14  C   UNL     1       2.751  16.608  19.947  0.00  0.00    +0.000 C 
ATOM     15  C   UNL     1       1.970  16.244  21.205  0.00  0.00    +0.000 C 
ATOM     16  C   UNL     1       2.029  14.736  21.491  0.00  0.00    +0.000 C 
ATOM     17  C   UNL     1       3.481  14.239  21.506  0.00  0.00    +0.000 C 
ATOM     18  C   UNL     1       4.238  14.656  20.244  0.00  0.00    +0.000 C 
ENDBRANCH   1  16
BRANCH   8  19
ATOM     19  C   UNL     1       0.475   9.640  19.786  0.00  0.00    +0.000 A 
ATOM     20  C   UNL     1       0.460   8.780  20.896  0.00  0.00    +0.000 A 
ATOM     21  C   UNL     1       1.282   7.651  20.926  0.00  0.00    +0.000 A 
ATOM     22  C   UNL     1       2.134   7.368  19.856  0.00  0.00    +0.000 A 
ATOM     23 CL   UNL     1       3.113   5.961  19.878  0.00  0.00    +0.000 Cl
ATOM     24  C   UNL     1       2.177   8.226  18.756  0.00  0.00    +0.000 A 
ATOM     25  C   UNL     1       1.357   9.356  18.731  0.00  0.00    +0.000 A 
ENDBRANCH   8  19
BRANCH   7  26
ATOM     26  O   UNL     1      -0.878  10.362  17.254  0.00  0.00    +0.000 OA
ATOM     27  H   UNL     1       0.029  10.710  17.193  0.00  0.00    +0.000 HD
ENDBRANCH   7  26
TORSDOF 3
ENDMDL
MODEL 8
REMARK VINA RESULT:      -5.8      6.238      9.462
REMARK  Name = 
REMARK  4 active torsions:
REMARK  status: ('A' for Active; 'I' for Inactive)
REMARK    1  A    between atoms: C_1  and  C_2
REMARK    2  A    between atoms: C_7  and  N_8
REMARK    3  A    between atoms: C_14  and  O_15
REMARK    4  A    between atoms: C_16  and  C_17
REMARK                            x       y       z     vdW  Elec       q    Type
REMARK                         _______ _______ _______ _____ _____    ______ ____
ROOT
ATOM      1  N   UNL     1       2.185  13.867  18.949  0.00  0.00    +0.000 N 
ATOM      2  C   UNL     1       0.971  13.504  19.468  0.00  0.00    +0.000 C 
ATOM      3  O   UNL     1       0.175  14.333  19.890  0.00  0.00    +0.000 OA
ATOM      4  N   UNL     1       0.707  12.145  19.406  0.00  0.00    +0.000 N 
ATOM      5  C   UNL     1       1.561  11.146  18.767  0.00  0.00    +0.000 C 
ATOM      6  C   UNL     1       0.628  10.063  18.246  0.00  0.00    +0.000 C 
ATOM      7  C   UNL     1      -0.560  10.137  19.194  0.00  0.00    +0.000 C 
ATOM      8  C   UNL     1      -0.679  11.661  19.462  0.00  0.00    +0.000 C 
ATOM      9  H   UNL     1       2.868  13.145  18.801  0.00  0.00    +0.000 HD
ENDROOT
BRANCH   1  16
ATOM     10  C   UNL     1       7.386  16.172  20.426  0.00  0.00    +0.000 C 
ATOM     11  C   UNL     1       6.776  15.757  19.114  0.00  0.00    +0.000 C 
ATOM     12  O   UNL     1       7.413  15.903  18.069  0.00  0.00    +0.000 OA
ATOM     13  N   UNL     1       5.509  15.194  19.142  0.00  0.00    +0.000 N 
ATOM     14  C   UNL     1       4.932  14.697  17.898  0.00  0.00    +0.000 C 
ATOM     15  C   UNL     1       3.593  15.372  17.618  0.00  0.00    +0.000 C 
ATOM     16  C   UNL     1       2.636  15.249  18.812  0.00  0.00    +0.000 C 
ATOM     17  C   UNL     1       3.307  15.734  20.103  0.00  0.00    +0.000 C 
ATOM     18  C   UNL     1       4.661  15.060  20.329  0.00  0.00    +0.000 C 
ENDBRANCH   1  16
BRANCH   8  19
ATOM     19  C   UNL     1      -1.515  11.998  20.681  0.00  0.00    +0.000 A 
ATOM     20  C   UNL     1      -2.799  12.561  20.595  0.00  0.00    +0.000 A 
ATOM     21  C   UNL     1      -3.534  12.820  21.754  0.00  0.00    +0.000 A 
ATOM     22  C   UNL     1      -3.000  12.529  23.011  0.00  0.00    +0.000 A 
ATOM     23 CL   UNL     1      -3.922  12.813  24.429  0.00  0.00    +0.000 Cl
ATOM     24  C   UNL     1      -1.717  11.991  23.114  0.00  0.00    +0.000 A 
ATOM     25  C   UNL     1      -0.983  11.737  21.954  0.00  0.00    +0.000 A 
ENDBRANCH   8  19
BRANCH   7  26
ATOM     26  O   UNL     1      -0.248   9.344  20.345  0.00  0.00    +0.000 OA
ATOM     27  H   UNL     1      -0.794   9.661  21.085  0.00  0.00    +0.000 HD
ENDBRANCH   7  26
TORSDOF 3
ENDMDL
MODEL 9
REMARK VINA RESULT:      -5.7      7.630      8.542
REMARK  Name = 
REMARK  4 active torsions:
REMARK  status: ('A' for Active; 'I' for Inactive)
REMARK    1  A    between atoms: C_1  and  C_2
REMARK    2  A    between atoms: C_7  and  N_8
REMARK    3  A    between atoms: C_14  and  O_15
REMARK    4  A    between atoms: C_16  and  C_17
REMARK                            x       y       z     vdW  Elec       q    Type
REMARK                         _______ _______ _______ _____ _____    ______ ____
ROOT
ATOM      1  N   UNL     1       5.087  14.591  21.590  0.00  0.00    +0.000 N 
ATOM      2  C   UNL     1       6.398  14.220  21.449  0.00  0.00    +0.000 C 
ATOM      3  O   UNL     1       7.092  14.639  20.530  0.00  0.00    +0.000 OA
ATOM      4  N   UNL     1       6.872  13.399  22.460  0.00  0.00    +0.000 N 
ATOM      5  C   UNL     1       6.122  13.008  23.652  0.00  0.00    +0.000 C 
ATOM      6  C   UNL     1       7.151  12.833  24.758  0.00  0.00    +0.000 C 
ATOM      7  C   UNL     1       8.416  12.446  24.005  0.00  0.00    +0.000 C 
ATOM      8  C   UNL     1       8.315  13.309  22.719  0.00  0.00    +0.000 C 
ATOM      9  H   UNL     1       4.519  14.073  22.237  0.00  0.00    +0.000 HD
ENDROOT
BRANCH   1  16
ATOM     10  C   UNL     1      -0.007  13.881  18.745  0.00  0.00    +0.000 C 
ATOM     11  C   UNL     1       0.383  14.625  19.994  0.00  0.00    +0.000 C 
ATOM     12  O   UNL     1      -0.467  15.264  20.617  0.00  0.00    +0.000 OA
ATOM     13  N   UNL     1       1.703  14.538  20.411  0.00  0.00    +0.000 N 
ATOM     14  C   UNL     1       2.088  15.171  21.667  0.00  0.00    +0.000 C 
ATOM     15  C   UNL     1       3.217  16.173  21.442  0.00  0.00    +0.000 C 
ATOM     16  C   UNL     1       4.403  15.532  20.708  0.00  0.00    +0.000 C 
ATOM     17  C   UNL     1       3.939  14.835  19.423  0.00  0.00    +0.000 C 
ATOM     18  C   UNL     1       2.784  13.867  19.686  0.00  0.00    +0.000 C 
ENDBRANCH   1  16
BRANCH   8  19
ATOM     19  C   UNL     1       9.224  12.837  21.600  0.00  0.00    +0.000 A 
ATOM     20  C   UNL     1       9.043  11.615  20.933  0.00  0.00    +0.000 A 
ATOM     21  C   UNL     1       9.894  11.248  19.888  0.00  0.00    +0.000 A 
ATOM     22  C   UNL     1      10.938  12.090  19.498  0.00  0.00    +0.000 A 
ATOM     23 CL   UNL     1      11.956  11.655  18.189  0.00  0.00    +0.000 Cl
ATOM     24  C   UNL     1      11.144  13.298  20.166  0.00  0.00    +0.000 A 
ATOM     25  C   UNL     1      10.294  13.659  21.213  0.00  0.00    +0.000 A 
ENDBRANCH   8  19
BRANCH   7  26
ATOM     26  O   UNL     1       8.377  11.032  23.789  0.00  0.00    +0.000 OA
ATOM     27  H   UNL     1       7.523  10.701  24.116  0.00  0.00    +0.000 HD
ENDBRANCH   7  26
TORSDOF 3
ENDMDL
