MODEL 1
REMARK VINA RESULT:      -7.9      0.000      0.000
REMARK  Name = 
REMARK  5 active torsions:
REMARK  status: ('A' for Active; 'I' for Inactive)
REMARK    1  A    between atoms: C_2  and  C_3
REMARK    2  A    between atoms: C_2  and  C_9
REMARK    3  A    between atoms: C_11  and  O_12
REMARK    4  A    between atoms: C_13  and  C_14
REMARK    5  A    between atoms: C_22  and  O_23
REMARK                            x       y       z     vdW  Elec       q    Type
REMARK                         _______ _______ _______ _____ _____    ______ ____
ROOT
ATOM      1  C   UNL     1       2.334   7.188  19.545  0.00  0.00    +0.000 A 
ATOM      2  C   UNL     1       2.369   8.012  18.426  0.00  0.00    +0.000 A 
ATOM      3  C   UNL     1       1.731   9.261  18.461  0.00  0.00    +0.000 A 
ATOM      4  C   UNL     1       0.995   9.724  19.587  0.00  0.00    +0.000 A 
ATOM      5  C   UNL     1       0.945   8.820  20.671  0.00  0.00    +0.000 A 
ATOM      6  C   UNL     1       1.646   7.611  20.677  0.00  0.00    +0.000 A 
ENDROOT
BRANCH   4   7
ATOM      7  C   UNL     1       0.315  11.064  19.579  0.00  0.00    +0.000 A 
ATOM      8  C   UNL     1       0.885  12.135  20.309  0.00  0.00    +0.000 A 
ATOM      9  C   UNL     1       0.261  13.381  20.418  0.00  0.00    +0.000 A 
ATOM     10 CL   UNL     1       0.930  14.588  21.446  0.00  0.00    +0.000 Cl
ATOM     11  C   UNL     1      -0.911  13.643  19.728  0.00  0.00    +0.000 A 
ATOM     12  C   UNL     1      -1.487  12.632  18.966  0.00  0.00    +0.000 A 
ATOM     13  C   UNL     1      -0.910  11.351  18.929  0.00  0.00    +0.000 A 
ATOM     14 CL   UNL     1      -1.845  10.158  18.085  0.00  0.00    +0.000 Cl
ENDBRANCH   4   7
BRANCH   1  16
ATOM     15  O   UNL     1       4.268   5.859  19.425  0.00  0.00    +0.000 OA
ATOM     16  C   UNL     1       3.039   5.876  19.506  0.00  0.00    +0.000 C 
BRANCH  16  17
ATOM     17  C   UNL     1       2.286   4.600  19.566  0.00  0.00    +0.000 A 
ATOM     18  C   UNL     1       2.042   4.018  20.815  0.00  0.00    +0.000 A 
ATOM     19  C   UNL     1       1.311   2.831  20.900  0.00  0.00    +0.000 A 
ATOM     20  C   UNL     1       0.828   2.226  19.740  0.00  0.00    +0.000 A 
ATOM     21  C   UNL     1       1.082   2.791  18.493  0.00  0.00    +0.000 A 
ATOM     22  C   UNL     1       1.825   3.968  18.404  0.00  0.00    +0.000 A 
ENDBRANCH  16  17
ENDBRANCH   1  16
BRANCH   3  23
ATOM     23  O   UNL     1       1.841  10.052  17.342  0.00  0.00    +0.000 OA
ATOM     24  H   UNL     1       1.843  10.990  17.604  0.00  0.00    +0.000 HD
ENDBRANCH   3  23
BRANCH   5  25
ATOM     25  O   UNL     1       0.182   8.992  21.797  0.00  0.00    +0.000 OA
ATOM     26  H   UNL     1       0.692   9.497  22.451  0.00  0.00    +0.000 HD
ENDBRANCH   5  25
TORSDOF 5
ENDMDL
MODEL 2
REMARK VINA RESULT:      -7.9      0.185      1.985
REMARK  Name = 
REMARK  5 active torsions:
REMARK  status: ('A' for Active; 'I' for Inactive)
REMARK    1  A    between atoms: C_2  and  C_3
REMARK    2  A    between atoms: C_2  and  C_9
REMARK    3  A    between atoms: C_11  and  O_12
REMARK    4  A    between atoms: C_13  and  C_14
REMARK    5  A    between atoms: C_22  and  O_23
REMARK                            x       y       z     vdW  Elec       q    Type
REMARK                         _______ _______ _______ _____ _____    ______ ____
ROOT
ATOM      1  C   UNL     1       2.298   7.244  19.516  0.00  0.00    +0.000 A 
ATOM      2  C   UNL     1       1.637   7.630  20.677  0.00  0.00    +0.000 A 
ATOM      3  C   UNL     1       0.950   8.852  20.712  0.00  0.00    +0.000 A 
ATOM      4  C   UNL     1       0.927   9.761  19.618  0.00  0.00    +0.000 A 
ATOM      5  C   UNL     1       1.663   9.341  18.488  0.00  0.00    +0.000 A 
ATOM      6  C   UNL     1       2.281   8.091  18.413  0.00  0.00    +0.000 A 
ENDROOT
BRANCH   4   7
ATOM      7  C   UNL     1       0.188  11.067  19.702  0.00  0.00    +0.000 A 
ATOM      8  C   UNL     1       0.734  12.125  20.467  0.00  0.00    +0.000 A 
ATOM      9  C   UNL     1       0.060  13.333  20.662  0.00  0.00    +0.000 A 
ATOM     10 CL   UNL     1       0.711  14.517  21.729  0.00  0.00    +0.000 Cl
ATOM     11  C   UNL     1      -1.147  13.575  20.026  0.00  0.00    +0.000 A 
ATOM     12  C   UNL     1      -1.704  12.578  19.233  0.00  0.00    +0.000 A 
ATOM     13  C   UNL     1      -1.072  11.328  19.110  0.00  0.00    +0.000 A 
ATOM     14 CL   UNL     1      -1.982  10.137  18.237  0.00  0.00    +0.000 Cl
ENDBRANCH   4   7
BRANCH   1  16
ATOM     15  O   UNL     1       4.227   5.913  19.357  0.00  0.00    +0.000 OA
ATOM     16  C   UNL     1       3.002   5.931  19.481  0.00  0.00    +0.000 C 
BRANCH  16  17
ATOM     17  C   UNL     1       2.253   4.657  19.596  0.00  0.00    +0.000 A 
ATOM     18  C   UNL     1       1.747   4.062  18.435  0.00  0.00    +0.000 A 
ATOM     19  C   UNL     1       1.063   2.847  18.515  0.00  0.00    +0.000 A 
ATOM     20  C   UNL     1       0.881   2.230  19.753  0.00  0.00    +0.000 A 
ATOM     21  C   UNL     1       1.367   2.826  20.914  0.00  0.00    +0.000 A 
ATOM     22  C   UNL     1       2.037   4.047  20.839  0.00  0.00    +0.000 A 
ENDBRANCH  16  17
ENDBRANCH   1  16
BRANCH   3  23
ATOM     23  O   UNL     1       0.275   9.158  21.871  0.00  0.00    +0.000 OA
ATOM     24  H   UNL     1       0.909   9.446  22.551  0.00  0.00    +0.000 HD
ENDBRANCH   3  23
BRANCH   5  25
ATOM     25  O   UNL     1       1.897  10.112  17.379  0.00  0.00    +0.000 OA
ATOM     26  H   UNL     1       1.566   9.646  16.594  0.00  0.00    +0.000 HD
ENDBRANCH   5  25
TORSDOF 5
ENDMDL
MODEL 3
REMARK VINA RESULT:      -7.7      0.666      1.827
REMARK  Name = 
REMARK  5 active torsions:
REMARK  status: ('A' for Active; 'I' for Inactive)
REMARK    1  A    between atoms: C_2  and  C_3
REMARK    2  A    between atoms: C_2  and  C_9
REMARK    3  A    between atoms: C_11  and  O_12
REMARK    4  A    between atoms: C_13  and  C_14
REMARK    5  A    between atoms: C_22  and  O_23
REMARK                            x       y       z     vdW  Elec       q    Type
REMARK                         _______ _______ _______ _____ _____    ______ ____
ROOT
ATOM      1  C   UNL     1       2.545   7.267  18.914  0.00  0.00    +0.000 A 
ATOM      2  C   UNL     1       1.845   7.445  20.101  0.00  0.00    +0.000 A 
ATOM      3  C   UNL     1       1.109   8.622  20.306  0.00  0.00    +0.000 A 
ATOM      4  C   UNL     1       1.075   9.688  19.365  0.00  0.00    +0.000 A 
ATOM      5  C   UNL     1       1.852   9.476  18.205  0.00  0.00    +0.000 A 
ATOM      6  C   UNL     1       2.520   8.274  17.955  0.00  0.00    +0.000 A 
ENDROOT
BRANCH   4   7
ATOM      7  C   UNL     1       0.284  10.938  19.630  0.00  0.00    +0.000 A 
ATOM      8  C   UNL     1       0.843  11.955  20.440  0.00  0.00    +0.000 A 
ATOM      9  C   UNL     1       0.131  13.102  20.801  0.00  0.00    +0.000 A 
ATOM     10 CL   UNL     1       0.815  14.223  21.913  0.00  0.00    +0.000 Cl
ATOM     11  C   UNL     1      -1.138  13.330  20.292  0.00  0.00    +0.000 A 
ATOM     12  C   UNL     1      -1.713  12.375  19.460  0.00  0.00    +0.000 A 
ATOM     13  C   UNL     1      -1.034  11.179  19.171  0.00  0.00    +0.000 A 
ATOM     14 CL   UNL     1      -1.958  10.019  18.271  0.00  0.00    +0.000 Cl
ENDBRANCH   4   7
BRANCH   1  16
ATOM     15  O   UNL     1       4.460   6.061  18.281  0.00  0.00    +0.000 OA
ATOM     16  C   UNL     1       3.301   6.002  18.696  0.00  0.00    +0.000 C 
BRANCH  16  17
ATOM     17  C   UNL     1       2.683   4.683  18.972  0.00  0.00    +0.000 A 
ATOM     18  C   UNL     1       3.150   3.931  20.056  0.00  0.00    +0.000 A 
ATOM     19  C   UNL     1       2.565   2.699  20.354  0.00  0.00    +0.000 A 
ATOM     20  C   UNL     1       1.517   2.218  19.569  0.00  0.00    +0.000 A 
ATOM     21  C   UNL     1       1.059   2.953  18.478  0.00  0.00    +0.000 A 
ATOM     22  C   UNL     1       1.652   4.177  18.169  0.00  0.00    +0.000 A 
ENDBRANCH  16  17
ENDBRANCH   1  16
BRANCH   3  23
ATOM     23  O   UNL     1       0.398   8.720  21.479  0.00  0.00    +0.000 OA
ATOM     24  H   UNL     1      -0.448   9.169  21.311  0.00  0.00    +0.000 HD
ENDBRANCH   3  23
BRANCH   5  25
ATOM     25  O   UNL     1       2.080  10.417  17.235  0.00  0.00    +0.000 OA
ATOM     26  H   UNL     1       2.451  11.214  17.647  0.00  0.00    +0.000 HD
ENDBRANCH   5  25
TORSDOF 5
ENDMDL
MODEL 4
REMARK VINA RESULT:      -7.7      0.655      1.098
REMARK  Name = 
REMARK  5 active torsions:
REMARK  status: ('A' for Active; 'I' for Inactive)
REMARK    1  A    between atoms: C_2  and  C_3
REMARK    2  A    between atoms: C_2  and  C_9
REMARK    3  A    between atoms: C_11  and  O_12
REMARK    4  A    between atoms: C_13  and  C_14
REMARK    5  A    between atoms: C_22  and  O_23
REMARK                            x       y       z     vdW  Elec       q    Type
REMARK                         _______ _______ _______ _____ _____    ______ ____
ROOT
ATOM      1  C   UNL     1       2.571   7.202  19.043  0.00  0.00    +0.000 A 
ATOM      2  C   UNL     1       2.545   8.186  18.062  0.00  0.00    +0.000 A 
ATOM      3  C   UNL     1       1.836   9.375  18.286  0.00  0.00    +0.000 A 
ATOM      4  C   UNL     1       1.087   9.619  19.471  0.00  0.00    +0.000 A 
ATOM      5  C   UNL     1       1.103   8.561  20.407  0.00  0.00    +0.000 A 
ATOM      6  C   UNL     1       1.873   7.409  20.229  0.00  0.00    +0.000 A 
ENDROOT
BRANCH   4   7
ATOM      7  C   UNL     1       0.331  10.903  19.667  0.00  0.00    +0.000 A 
ATOM      8  C   UNL     1       0.896  11.927  20.464  0.00  0.00    +0.000 A 
ATOM      9  C   UNL     1       0.212  13.108  20.761  0.00  0.00    +0.000 A 
ATOM     10 CL   UNL     1       0.894  14.242  21.861  0.00  0.00    +0.000 Cl
ATOM     11  C   UNL     1      -1.030  13.361  20.200  0.00  0.00    +0.000 A 
ATOM     12  C   UNL     1      -1.608  12.400  19.378  0.00  0.00    +0.000 A 
ATOM     13  C   UNL     1      -0.961  11.172  19.152  0.00  0.00    +0.000 A 
ATOM     14 CL   UNL     1      -1.892  10.015  18.257  0.00  0.00    +0.000 Cl
ENDBRANCH   4   7
BRANCH   1  16
ATOM     15  O   UNL     1       4.512   6.043  18.402  0.00  0.00    +0.000 OA
ATOM     16  C   UNL     1       3.350   5.955  18.805  0.00  0.00    +0.000 C 
BRANCH  16  17
ATOM     17  C   UNL     1       2.753   4.620  19.049  0.00  0.00    +0.000 A 
ATOM     18  C   UNL     1       1.678   4.205  18.255  0.00  0.00    +0.000 A 
ATOM     19  C   UNL     1       1.117   2.941  18.447  0.00  0.00    +0.000 A 
ATOM     20  C   UNL     1       1.626   2.095  19.432  0.00  0.00    +0.000 A 
ATOM     21  C   UNL     1       2.685   2.509  20.237  0.00  0.00    +0.000 A 
ATOM     22  C   UNL     1       3.237   3.777  20.058  0.00  0.00    +0.000 A 
ENDBRANCH  16  17
ENDBRANCH   1  16
BRANCH   3  23
ATOM     23  O   UNL     1       1.886  10.330  17.299  0.00  0.00    +0.000 OA
ATOM     24  H   UNL     1       2.806  10.448  17.004  0.00  0.00    +0.000 HD
ENDBRANCH   3  23
BRANCH   5  25
ATOM     25  O   UNL     1       0.345   8.517  21.548  0.00  0.00    +0.000 OA
ATOM     26  H   UNL     1       0.084   9.420  21.791  0.00  0.00    +0.000 HD
ENDBRANCH   5  25
TORSDOF 5
ENDMDL
MODEL 5
REMARK VINA RESULT:      -7.6      0.915      2.547
REMARK  Name = 
REMARK  5 active torsions:
REMARK  status: ('A' for Active; 'I' for Inactive)
REMARK    1  A    between atoms: C_2  and  C_3
REMARK    2  A    between atoms: C_2  and  C_9
REMARK    3  A    between atoms: C_11  and  O_12
REMARK    4  A    between atoms: C_13  and  C_14
REMARK    5  A    between atoms: C_22  and  O_23
REMARK                            x       y       z     vdW  Elec       q    Type
REMARK                         _______ _______ _______ _____ _____    ______ ____
ROOT
ATOM      1  C   UNL     1       2.246   7.363  19.520  0.00  0.00    +0.000 A 
ATOM      2  C   UNL     1       1.607   7.727  20.699  0.00  0.00    +0.000 A 
ATOM      3  C   UNL     1       0.879   8.925  20.754  0.00  0.00    +0.000 A 
ATOM      4  C   UNL     1       0.792   9.830  19.660  0.00  0.00    +0.000 A 
ATOM      5  C   UNL     1       1.508   9.435  18.509  0.00  0.00    +0.000 A 
ATOM      6  C   UNL     1       2.167   8.206  18.417  0.00  0.00    +0.000 A 
ENDROOT
BRANCH   4   7
ATOM      7  C   UNL     1       0.010  11.110  19.765  0.00  0.00    +0.000 A 
ATOM      8  C   UNL     1      -1.392  11.084  19.575  0.00  0.00    +0.000 A 
ATOM      9  C   UNL     1      -2.169  12.245  19.569  0.00  0.00    +0.000 A 
ATOM     10 CL   UNL     1      -3.842  12.158  19.179  0.00  0.00    +0.000 Cl
ATOM     11  C   UNL     1      -1.594  13.476  19.847  0.00  0.00    +0.000 A 
ATOM     12  C   UNL     1      -0.225  13.544  20.080  0.00  0.00    +0.000 A 
ATOM     13  C   UNL     1       0.572  12.390  19.994  0.00  0.00    +0.000 A 
ATOM     14 CL   UNL     1       2.278  12.673  20.130  0.00  0.00    +0.000 Cl
ENDBRANCH   4   7
BRANCH   1  16
ATOM     15  O   UNL     1       4.220   6.101  19.340  0.00  0.00    +0.000 OA
ATOM     16  C   UNL     1       2.994   6.075  19.464  0.00  0.00    +0.000 C 
BRANCH  16  17
ATOM     17  C   UNL     1       2.289   4.775  19.561  0.00  0.00    +0.000 A 
ATOM     18  C   UNL     1       2.148   4.174  20.816  0.00  0.00    +0.000 A 
ATOM     19  C   UNL     1       1.463   2.963  20.937  0.00  0.00    +0.000 A 
ATOM     20  C   UNL     1       0.924   2.352  19.805  0.00  0.00    +0.000 A 
ATOM     21  C   UNL     1       1.076   2.937  18.549  0.00  0.00    +0.000 A 
ATOM     22  C   UNL     1       1.773   4.138  18.425  0.00  0.00    +0.000 A 
ENDBRANCH  16  17
ENDBRANCH   1  16
BRANCH   3  23
ATOM     23  O   UNL     1       0.229   9.210  21.932  0.00  0.00    +0.000 OA
ATOM     24  H   UNL     1      -0.274   8.430  22.224  0.00  0.00    +0.000 HD
ENDBRANCH   3  23
BRANCH   5  25
ATOM     25  O   UNL     1       1.681  10.211  17.393  0.00  0.00    +0.000 OA
ATOM     26  H   UNL     1       2.617  10.189  17.133  0.00  0.00    +0.000 HD
ENDBRANCH   5  25
TORSDOF 5
ENDMDL
MODEL 6
REMARK VINA RESULT:      -7.5      1.505      2.268
REMARK  Name = 
REMARK  5 active torsions:
REMARK  status: ('A' for Active; 'I' for Inactive)
REMARK    1  A    between atoms: C_2  and  C_3
REMARK    2  A    between atoms: C_2  and  C_9
REMARK    3  A    between atoms: C_11  and  O_12
REMARK    4  A    between atoms: C_13  and  C_14
REMARK    5  A    between atoms: C_22  and  O_23
REMARK                            x       y       z     vdW  Elec       q    Type
REMARK                         _______ _______ _______ _____ _____    ______ ____
ROOT
ATOM      1  C   UNL     1       2.936   7.185  18.644  0.00  0.00    +0.000 A 
ATOM      2  C   UNL     1       2.165   7.108  19.798  0.00  0.00    +0.000 A 
ATOM      3  C   UNL     1       1.227   8.114  20.076  0.00  0.00    +0.000 A 
ATOM      4  C   UNL     1       1.049   9.257  19.249  0.00  0.00    +0.000 A 
ATOM      5  C   UNL     1       1.900   9.309  18.123  0.00  0.00    +0.000 A 
ATOM      6  C   UNL     1       2.777   8.273  17.793  0.00  0.00    +0.000 A 
ENDROOT
BRANCH   4   7
ATOM      7  C   UNL     1       0.041  10.319  19.591  0.00  0.00    +0.000 A 
ATOM      8  C   UNL     1       0.165  11.026  20.811  0.00  0.00    +0.000 A 
ATOM      9  C   UNL     1      -0.784  11.961  21.234  0.00  0.00    +0.000 A 
ATOM     10 CL   UNL     1      -0.653  12.670  22.796  0.00  0.00    +0.000 Cl
ATOM     11  C   UNL     1      -1.849  12.300  20.415  0.00  0.00    +0.000 A 
ATOM     12  C   UNL     1      -1.990  11.658  19.189  0.00  0.00    +0.000 A 
ATOM     13  C   UNL     1      -1.088  10.652  18.803  0.00  0.00    +0.000 A 
ATOM     14 CL   UNL     1      -1.506   9.826  17.336  0.00  0.00    +0.000 Cl
ENDBRANCH   4   7
BRANCH   1  16
ATOM     15  O   UNL     1       5.055   6.396  18.004  0.00  0.00    +0.000 OA
ATOM     16  C   UNL     1       3.909   6.097  18.344  0.00  0.00    +0.000 C 
BRANCH  16  17
ATOM     17  C   UNL     1       3.521   4.670  18.453  0.00  0.00    +0.000 A 
ATOM     18  C   UNL     1       4.164   3.865  19.399  0.00  0.00    +0.000 A 
ATOM     19  C   UNL     1       3.797   2.525  19.540  0.00  0.00    +0.000 A 
ATOM     20  C   UNL     1       2.791   1.991  18.735  0.00  0.00    +0.000 A 
ATOM     21  C   UNL     1       2.158   2.783  17.780  0.00  0.00    +0.000 A 
ATOM     22  C   UNL     1       2.535   4.117  17.626  0.00  0.00    +0.000 A 
ENDBRANCH  16  17
ENDBRANCH   1  16
BRANCH   3  23
ATOM     23  O   UNL     1       0.460   7.959  21.207  0.00  0.00    +0.000 OA
ATOM     24  H   UNL     1       0.938   8.314  21.977  0.00  0.00    +0.000 HD
ENDBRANCH   3  23
BRANCH   5  25
ATOM     25  O   UNL     1       2.001  10.378  17.271  0.00  0.00    +0.000 OA
ATOM     26  H   UNL     1       2.631  11.018  17.638  0.00  0.00    +0.000 HD
ENDBRANCH   5  25
TORSDOF 5
ENDMDL
MODEL 7
REMARK VINA RESULT:      -7.5      3.226      7.530
REMARK  Name = 
REMARK  5 active torsions:
REMARK  status: ('A' for Active; 'I' for Inactive)
REMARK    1  A    between atoms: C_2  and  C_3
REMARK    2  A    between atoms: C_2  and  C_9
REMARK    3  A    between atoms: C_11  and  O_12
REMARK    4  A    between atoms: C_13  and  C_14
REMARK    5  A    between atoms: C_22  and  O_23
REMARK                            x       y       z     vdW  Elec       q    Type
REMARK                         _______ _______ _______ _____ _____    ______ ____
ROOT
ATOM      1  C   UNL     1       1.168   9.037  20.148  0.00  0.00    +0.000 A 
ATOM      2  C   UNL     1       1.364   7.833  20.813  0.00  0.00    +0.000 A 
ATOM      3  C   UNL     1       2.126   6.820  20.210  0.00  0.00    +0.000 A 
ATOM      4  C   UNL     1       2.683   6.942  18.907  0.00  0.00    +0.000 A 
ATOM      5  C   UNL     1       2.402   8.164  18.257  0.00  0.00    +0.000 A 
ATOM      6  C   UNL     1       1.716   9.209  18.881  0.00  0.00    +0.000 A 
ENDROOT
BRANCH   4   7
ATOM      7  C   UNL     1       3.483   5.827  18.293  0.00  0.00    +0.000 A 
ATOM      8  C   UNL     1       4.892   5.942  18.221  0.00  0.00    +0.000 A 
ATOM      9  C   UNL     1       5.689   4.987  17.584  0.00  0.00    +0.000 A 
ATOM     10 CL   UNL     1       7.377   5.265  17.398  0.00  0.00    +0.000 Cl
ATOM     11  C   UNL     1       5.125   3.829  17.072  0.00  0.00    +0.000 A 
ATOM     12  C   UNL     1       3.748   3.656  17.155  0.00  0.00    +0.000 A 
ATOM     13  C   UNL     1       2.934   4.657  17.713  0.00  0.00    +0.000 A 
ATOM     14 CL   UNL     1       1.230   4.368  17.576  0.00  0.00    +0.000 Cl
ENDBRANCH   4   7
BRANCH   1  16
ATOM     15  O   UNL     1       0.699  10.478  21.943  0.00  0.00    +0.000 OA
ATOM     16  C   UNL     1       0.381  10.116  20.809  0.00  0.00    +0.000 C 
BRANCH  16  17
ATOM     17  C   UNL     1      -0.767  10.756  20.125  0.00  0.00    +0.000 A 
ATOM     18  C   UNL     1      -1.226  10.211  18.921  0.00  0.00    +0.000 A 
ATOM     19  C   UNL     1      -2.324  10.780  18.271  0.00  0.00    +0.000 A 
ATOM     20  C   UNL     1      -2.959  11.893  18.822  0.00  0.00    +0.000 A 
ATOM     21  C   UNL     1      -2.496  12.451  20.011  0.00  0.00    +0.000 A 
ATOM     22  C   UNL     1      -1.390  11.894  20.653  0.00  0.00    +0.000 A 
ENDBRANCH  16  17
ENDBRANCH   1  16
BRANCH   3  23
ATOM     23  O   UNL     1       2.325   5.670  20.936  0.00  0.00    +0.000 OA
ATOM     24  H   UNL     1       3.252   5.385  20.847  0.00  0.00    +0.000 HD
ENDBRANCH   3  23
BRANCH   5  25
ATOM     25  O   UNL     1       2.715   8.444  16.952  0.00  0.00    +0.000 OA
ATOM     26  H   UNL     1       1.918   8.756  16.495  0.00  0.00    +0.000 HD
ENDBRANCH   5  25
TORSDOF 5
ENDMDL
MODEL 8
REMARK VINA RESULT:      -7.5      0.954      1.083
REMARK  Name = 
REMARK  5 active torsions:
REMARK  status: ('A' for Active; 'I' for Inactive)
REMARK    1  A    between atoms: C_2  and  C_3
REMARK    2  A    between atoms: C_2  and  C_9
REMARK    3  A    between atoms: C_11  and  O_12
REMARK    4  A    between atoms: C_13  and  C_14
REMARK    5  A    between atoms: C_22  and  O_23
REMARK                            x       y       z     vdW  Elec       q    Type
REMARK                         _______ _______ _______ _____ _____    ______ ____
ROOT
ATOM      1  C   UNL     1       2.770   7.003  19.071  0.00  0.00    +0.000 A 
ATOM      2  C   UNL     1       2.739   7.946  18.050  0.00  0.00    +0.000 A 
ATOM      3  C   UNL     1       1.976   9.113  18.203  0.00  0.00    +0.000 A 
ATOM      4  C   UNL     1       1.177   9.371  19.352  0.00  0.00    +0.000 A 
ATOM      5  C   UNL     1       1.203   8.353  20.329  0.00  0.00    +0.000 A 
ATOM      6  C   UNL     1       2.023   7.226  20.223  0.00  0.00    +0.000 A 
ENDROOT
BRANCH   4   7
ATOM      7  C   UNL     1       0.364  10.630  19.471  0.00  0.00    +0.000 A 
ATOM      8  C   UNL     1       0.736  11.609  20.423  0.00  0.00    +0.000 A 
ATOM      9  C   UNL     1      -0.024  12.759  20.650  0.00  0.00    +0.000 A 
ATOM     10 CL   UNL     1       0.400  13.830  21.929  0.00  0.00    +0.000 Cl
ATOM     11  C   UNL     1      -1.137  13.031  19.871  0.00  0.00    +0.000 A 
ATOM     12  C   UNL     1      -1.518  12.116  18.895  0.00  0.00    +0.000 A 
ATOM     13  C   UNL     1      -0.808  10.914  18.728  0.00  0.00    +0.000 A 
ATOM     14 CL   UNL     1      -1.516   9.803  17.600  0.00  0.00    +0.000 Cl
ENDBRANCH   4   7
BRANCH   1  16
ATOM     15  O   UNL     1       4.832   5.892  18.887  0.00  0.00    +0.000 OA
ATOM     16  C   UNL     1       3.605   5.780  18.908  0.00  0.00    +0.000 C 
BRANCH  16  17
ATOM     17  C   UNL     1       2.985   4.440  18.778  0.00  0.00    +0.000 A 
ATOM     18  C   UNL     1       3.806   3.308  18.814  0.00  0.00    +0.000 A 
ATOM     19  C   UNL     1       3.243   2.034  18.721  0.00  0.00    +0.000 A 
ATOM     20  C   UNL     1       1.862   1.891  18.588  0.00  0.00    +0.000 A 
ATOM     21  C   UNL     1       1.040   3.015  18.534  0.00  0.00    +0.000 A 
ATOM     22  C   UNL     1       1.602   4.289  18.611  0.00  0.00    +0.000 A 
ENDBRANCH  16  17
ENDBRANCH   1  16
BRANCH   3  23
ATOM     23  O   UNL     1       2.022  10.030  17.180  0.00  0.00    +0.000 OA
ATOM     24  H   UNL     1       2.853  10.533  17.230  0.00  0.00    +0.000 HD
ENDBRANCH   3  23
BRANCH   5  25
ATOM     25  O   UNL     1       0.408   8.322  21.446  0.00  0.00    +0.000 OA
ATOM     26  H   UNL     1       0.908   8.672  22.201  0.00  0.00    +0.000 HD
ENDBRANCH   5  25
TORSDOF 5
ENDMDL
MODEL 9
REMARK VINA RESULT:      -7.5      1.560      2.385
REMARK  Name = 
REMARK  5 active torsions:
REMARK  status: ('A' for Active; 'I' for Inactive)
REMARK    1  A    between atoms: C_2  and  C_3
REMARK    2  A    between atoms: C_2  and  C_9
REMARK    3  A    between atoms: C_11  and  O_12
REMARK    4  A    between atoms: C_13  and  C_14
REMARK    5  A    between atoms: C_22  and  O_23
REMARK                            x       y       z     vdW  Elec       q    Type
REMARK                         _______ _______ _______ _____ _____    ______ ____
ROOT
ATOM      1  C   UNL     1       2.266   6.946  19.706  0.00  0.00    +0.000 A 
ATOM      2  C   UNL     1       2.394   7.678  18.532  0.00  0.00    +0.000 A 
ATOM      3  C   UNL     1       1.835   8.962  18.448  0.00  0.00    +0.000 A 
ATOM      4  C   UNL     1       1.089   9.553  19.505  0.00  0.00    +0.000 A 
ATOM      5  C   UNL     1       0.943   8.740  20.650  0.00  0.00    +0.000 A 
ATOM      6  C   UNL     1       1.565   7.495  20.775  0.00  0.00    +0.000 A 
ENDROOT
BRANCH   4   7
ATOM      7  C   UNL     1       0.496  10.928  19.370  0.00  0.00    +0.000 A 
ATOM      8  C   UNL     1       1.083  12.009  20.070  0.00  0.00    +0.000 A 
ATOM      9  C   UNL     1       0.533  13.293  20.062  0.00  0.00    +0.000 A 
ATOM     10 CL   UNL     1       1.209  14.523  21.058  0.00  0.00    +0.000 Cl
ATOM     11  C   UNL     1      -0.574  13.578  19.279  0.00  0.00    +0.000 A 
ATOM     12  C   UNL     1      -1.161  12.555  18.543  0.00  0.00    +0.000 A 
ATOM     13  C   UNL     1      -0.665  11.243  18.622  0.00  0.00    +0.000 A 
ATOM     14 CL   UNL     1      -1.616  10.055  17.790  0.00  0.00    +0.000 Cl
ENDBRANCH   4   7
BRANCH   1  16
ATOM     15  O   UNL     1       2.529   4.828  20.689  0.00  0.00    +0.000 OA
ATOM     16  C   UNL     1       2.887   5.594  19.793  0.00  0.00    +0.000 C 
BRANCH  16  17
ATOM     17  C   UNL     1       3.918   5.161  18.820  0.00  0.00    +0.000 A 
ATOM     18  C   UNL     1       3.512   4.526  17.642  0.00  0.00    +0.000 A 
ATOM     19  C   UNL     1       4.463   4.134  16.697  0.00  0.00    +0.000 A 
ATOM     20  C   UNL     1       5.817   4.373  16.931  0.00  0.00    +0.000 A 
ATOM     21  C   UNL     1       6.229   4.989  18.110  0.00  0.00    +0.000 A 
ATOM     22  C   UNL     1       5.283   5.367  19.062  0.00  0.00    +0.000 A 
ENDBRANCH  16  17
ENDBRANCH   1  16
BRANCH   3  23
ATOM     23  O   UNL     1       2.034   9.658  17.279  0.00  0.00    +0.000 OA
ATOM     24  H   UNL     1       2.140   9.032  16.541  0.00  0.00    +0.000 HD
ENDBRANCH   3  23
BRANCH   5  25
ATOM     25  O   UNL     1       0.152   9.043  21.728  0.00  0.00    +0.000 OA
ATOM     26  H   UNL     1      -0.730   9.298  21.412  0.00  0.00    +0.000 HD
ENDBRANCH   5  25
TORSDOF 5
ENDMDL
