MODEL 1
REMARK VINA RESULT:      -8.9      0.000      0.000
REMARK  Name = 
REMARK  7 active torsions:
REMARK  status: ('A' for Active; 'I' for Inactive)
REMARK    1  A    between atoms: C_1  and  C_2
REMARK    2  A    between atoms: C_5  and  N_6
REMARK    3  A    between atoms: C_7  and  C_9
REMARK    4  A    between atoms: C_14  and  C_15
REMARK    5  A    between atoms: C_21  and  N_22
REMARK    6  A    between atoms: C_23  and  C_25
REMARK    7  A    between atoms: C_29  and  C_30
REMARK                            x       y       z     vdW  Elec       q    Type
REMARK                         _______ _______ _______ _____ _____    ______ ____
ROOT
ATOM      1  C   UNL     1       3.350   2.010  18.844  0.00  0.00    +0.000 C 
ATOM      2  C   UNL     1       2.790   3.308  19.363  0.00  0.00    +0.000 A 
ATOM      3  C   UNL     1       1.790   3.182  20.352  0.00  0.00    +0.000 A 
ATOM      4  C   UNL     1       1.179   4.302  20.912  0.00  0.00    +0.000 A 
ATOM      5  C   UNL     1       1.538   5.573  20.507  0.00  0.00    +0.000 A 
ATOM      6  C   UNL     1       2.563   5.713  19.553  0.00  0.00    +0.000 A 
ATOM      7  C   UNL     1       3.195   4.596  18.950  0.00  0.00    +0.000 A 
ENDROOT
BRANCH   5   8
ATOM      8  N   UNL     1       0.906   6.734  20.998  0.00  0.00    +0.000 N 
ATOM      9  C   UNL     1       1.055   8.022  20.491  0.00  0.00    +0.000 C 
ATOM     10  O   UNL     1       1.772   8.350  19.550  0.00  0.00    +0.000 OA
ATOM     11  H   UNL     1       0.427   6.629  21.892  0.00  0.00    +0.000 HD
BRANCH   9  12
ATOM     12  C   UNL     1       0.333   9.113  21.209  0.00  0.00    +0.000 A 
ATOM     13  C   UNL     1      -0.042   8.992  22.546  0.00  0.00    +0.000 A 
ATOM     14  C   UNL     1      -0.689  10.055  23.181  0.00  0.00    +0.000 A 
ATOM     15  C   UNL     1      -0.952  11.254  22.503  0.00  0.00    +0.000 A 
ATOM     16 CL   UNL     1      -1.734  12.488  23.420  0.00  0.00    +0.000 Cl
ATOM     17  C   UNL     1      -0.587  11.401  21.161  0.00  0.00    +0.000 A 
ATOM     18  C   UNL     1       0.022  10.299  20.515  0.00  0.00    +0.000 A 
BRANCH  17  19
ATOM     19  C   UNL     1      -0.759  12.677  20.370  0.00  0.00    +0.000 C 
ATOM     20  F   UNL     1      -0.132  13.778  20.858  0.00  0.00    +0.000 F 
ATOM     21  F   UNL     1      -0.287  12.537  19.096  0.00  0.00    +0.000 F 
ATOM     22  F   UNL     1      -2.068  13.031  20.236  0.00  0.00    +0.000 F 
ENDBRANCH  17  19
ENDBRANCH   9  12
ENDBRANCH   5   8
BRANCH   7  23
ATOM     23  N   UNL     1       4.176   4.768  17.922  0.00  0.00    +0.000 N 
ATOM     24  C   UNL     1       5.558   4.816  18.114  0.00  0.00    +0.000 C 
ATOM     25  O   UNL     1       6.113   4.595  19.187  0.00  0.00    +0.000 OA
ATOM     26  H   UNL     1       3.826   4.793  16.978  0.00  0.00    +0.000 HD
BRANCH  24  27
ATOM     27  C   UNL     1       6.403   5.108  16.963  0.00  0.00    +0.000 A 
ATOM     28  C   UNL     1       6.570   4.238  15.849  0.00  0.00    +0.000 A 
ATOM     29  N   UNL     1       7.401   4.726  14.928  0.00  0.00    +0.000 NA
ATOM     30  O   UNL     1       7.822   5.938  15.434  0.00  0.00    +0.000 OA
ATOM     31  C   UNL     1       7.241   6.156  16.653  0.00  0.00    +0.000 A 
ATOM     32  C   UNL     1       7.675   7.396  17.319  0.00  0.00    +0.000 C 
ENDBRANCH  24  27
ENDBRANCH   7  23
TORSDOF 5
ENDMDL
MODEL 2
REMARK VINA RESULT:      -8.7      5.245      9.134
REMARK  Name = 
REMARK  7 active torsions:
REMARK  status: ('A' for Active; 'I' for Inactive)
REMARK    1  A    between atoms: C_1  and  C_2
REMARK    2  A    between atoms: C_5  and  N_6
REMARK    3  A    between atoms: C_7  and  C_9
REMARK    4  A    between atoms: C_14  and  C_15
REMARK    5  A    between atoms: C_21  and  N_22
REMARK    6  A    between atoms: C_23  and  C_25
REMARK    7  A    between atoms: C_29  and  C_30
REMARK                            x       y       z     vdW  Elec       q    Type
REMARK                         _______ _______ _______ _____ _____    ______ ____
ROOT
ATOM      1  C   UNL     1      -1.296  12.699  22.870  0.00  0.00    +0.000 C 
ATOM      2  C   UNL     1      -0.573  11.490  22.340  0.00  0.00    +0.000 A 
ATOM      3  C   UNL     1      -0.722  10.312  23.104  0.00  0.00    +0.000 A 
ATOM      4  C   UNL     1      -0.099   9.123  22.733  0.00  0.00    +0.000 A 
ATOM      5  C   UNL     1       0.689   9.068  21.599  0.00  0.00    +0.000 A 
ATOM      6  C   UNL     1       0.812  10.224  20.806  0.00  0.00    +0.000 A 
ATOM      7  C   UNL     1       0.205  11.455  21.162  0.00  0.00    +0.000 A 
ENDROOT
BRANCH   5   8
ATOM      8  N   UNL     1       1.390   7.906  21.217  0.00  0.00    +0.000 N 
ATOM      9  C   UNL     1       1.928   7.653  19.958  0.00  0.00    +0.000 C 
ATOM     10  O   UNL     1       1.861   8.394  18.981  0.00  0.00    +0.000 OA
ATOM     11  H   UNL     1       1.356   7.133  21.881  0.00  0.00    +0.000 HD
BRANCH   9  12
ATOM     12  C   UNL     1       2.579   6.325  19.761  0.00  0.00    +0.000 A 
ATOM     13  C   UNL     1       3.755   6.182  19.028  0.00  0.00    +0.000 A 
ATOM     14  C   UNL     1       4.342   4.921  18.900  0.00  0.00    +0.000 A 
ATOM     15  C   UNL     1       3.778   3.794  19.513  0.00  0.00    +0.000 A 
ATOM     16 CL   UNL     1       4.624   2.307  19.290  0.00  0.00    +0.000 Cl
ATOM     17  C   UNL     1       2.598   3.908  20.254  0.00  0.00    +0.000 A 
ATOM     18  C   UNL     1       1.987   5.182  20.334  0.00  0.00    +0.000 A 
BRANCH  17  19
ATOM     19  C   UNL     1       1.958   2.769  21.012  0.00  0.00    +0.000 C 
ATOM     20  F   UNL     1       1.576   1.692  20.277  0.00  0.00    +0.000 F 
ATOM     21  F   UNL     1       2.804   2.266  21.959  0.00  0.00    +0.000 F 
ATOM     22  F   UNL     1       0.843   3.160  21.692  0.00  0.00    +0.000 F 
ENDBRANCH  17  19
ENDBRANCH   9  12
ENDBRANCH   5   8
BRANCH   7  23
ATOM     23  N   UNL     1       0.416  12.635  20.380  0.00  0.00    +0.000 N 
ATOM     24  C   UNL     1       1.513  13.494  20.477  0.00  0.00    +0.000 C 
ATOM     25  O   UNL     1       2.501  13.273  21.173  0.00  0.00    +0.000 OA
ATOM     26  H   UNL     1      -0.264  12.814  19.658  0.00  0.00    +0.000 HD
BRANCH  24  27
ATOM     27  C   UNL     1       1.508  14.710  19.676  0.00  0.00    +0.000 A 
ATOM     28  C   UNL     1       0.459  15.673  19.685  0.00  0.00    +0.000 A 
ATOM     29  N   UNL     1       0.684  16.694  18.859  0.00  0.00    +0.000 NA
ATOM     30  O   UNL     1       1.895  16.411  18.263  0.00  0.00    +0.000 OA
ATOM     31  C   UNL     1       2.376  15.222  18.736  0.00  0.00    +0.000 A 
ATOM     32  C   UNL     1       3.638  14.786  18.114  0.00  0.00    +0.000 C 
ENDBRANCH  24  27
ENDBRANCH   7  23
TORSDOF 5
ENDMDL
MODEL 3
REMARK VINA RESULT:      -8.6      5.165     10.151
REMARK  Name = 
REMARK  7 active torsions:
REMARK  status: ('A' for Active; 'I' for Inactive)
REMARK    1  A    between atoms: C_1  and  C_2
REMARK    2  A    between atoms: C_5  and  N_6
REMARK    3  A    between atoms: C_7  and  C_9
REMARK    4  A    between atoms: C_14  and  C_15
REMARK    5  A    between atoms: C_21  and  N_22
REMARK    6  A    between atoms: C_23  and  C_25
REMARK    7  A    between atoms: C_29  and  C_30
REMARK                            x       y       z     vdW  Elec       q    Type
REMARK                         _______ _______ _______ _____ _____    ______ ____
ROOT
ATOM      1  C   UNL     1       0.391  14.297  19.102  0.00  0.00    +0.000 C 
ATOM      2  C   UNL     1       0.696  12.823  19.053  0.00  0.00    +0.000 A 
ATOM      3  C   UNL     1       1.853  12.470  18.326  0.00  0.00    +0.000 A 
ATOM      4  C   UNL     1       2.247  11.140  18.192  0.00  0.00    +0.000 A 
ATOM      5  C   UNL     1       1.508  10.127  18.771  0.00  0.00    +0.000 A 
ATOM      6  C   UNL     1       0.376  10.470  19.534  0.00  0.00    +0.000 A 
ATOM      7  C   UNL     1      -0.063  11.810  19.678  0.00  0.00    +0.000 A 
ENDROOT
BRANCH   5   8
ATOM      8  N   UNL     1       1.831   8.764  18.612  0.00  0.00    +0.000 N 
ATOM      9  C   UNL     1       1.939   7.825  19.635  0.00  0.00    +0.000 C 
ATOM     10  O   UNL     1       1.787   8.042  20.834  0.00  0.00    +0.000 OA
ATOM     11  H   UNL     1       2.160   8.495  17.686  0.00  0.00    +0.000 HD
BRANCH   9  12
ATOM     12  C   UNL     1       2.352   6.447  19.239  0.00  0.00    +0.000 A 
ATOM     13  C   UNL     1       2.909   6.175  17.991  0.00  0.00    +0.000 A 
ATOM     14  C   UNL     1       3.308   4.873  17.681  0.00  0.00    +0.000 A 
ATOM     15  C   UNL     1       3.177   3.833  18.612  0.00  0.00    +0.000 A 
ATOM     16 CL   UNL     1       3.735   2.283  18.101  0.00  0.00    +0.000 Cl
ATOM     17  C   UNL     1       2.621   4.078  19.872  0.00  0.00    +0.000 A 
ATOM     18  C   UNL     1       2.175   5.391  20.155  0.00  0.00    +0.000 A 
BRANCH  17  19
ATOM     19  C   UNL     1       2.510   3.043  20.967  0.00  0.00    +0.000 C 
ATOM     20  F   UNL     1       3.627   2.316  21.227  0.00  0.00    +0.000 F 
ATOM     21  F   UNL     1       2.177   3.617  22.160  0.00  0.00    +0.000 F 
ATOM     22  F   UNL     1       1.529   2.129  20.718  0.00  0.00    +0.000 F 
ENDBRANCH  17  19
ENDBRANCH   9  12
ENDBRANCH   5   8
BRANCH   7  23
ATOM     23  N   UNL     1      -1.265  12.121  20.392  0.00  0.00    +0.000 N 
ATOM     24  C   UNL     1      -1.431  12.057  21.777  0.00  0.00    +0.000 C 
ATOM     25  O   UNL     1      -0.519  11.837  22.570  0.00  0.00    +0.000 OA
ATOM     26  H   UNL     1      -2.029  12.474  19.838  0.00  0.00    +0.000 HD
BRANCH  24  27
ATOM     27  C   UNL     1      -2.759  12.304  22.323  0.00  0.00    +0.000 A 
ATOM     28  C   UNL     1      -3.083  12.225  23.707  0.00  0.00    +0.000 A 
ATOM     29  N   UNL     1      -4.367  12.485  23.954  0.00  0.00    +0.000 NA
ATOM     30  O   UNL     1      -4.928  12.724  22.718  0.00  0.00    +0.000 OA
ATOM     31  C   UNL     1      -3.974  12.598  21.746  0.00  0.00    +0.000 A 
ATOM     32  C   UNL     1      -4.480  12.766  20.373  0.00  0.00    +0.000 C 
ENDBRANCH  24  27
ENDBRANCH   7  23
TORSDOF 5
ENDMDL
MODEL 4
REMARK VINA RESULT:      -8.5      1.720      1.905
REMARK  Name = 
REMARK  7 active torsions:
REMARK  status: ('A' for Active; 'I' for Inactive)
REMARK    1  A    between atoms: C_1  and  C_2
REMARK    2  A    between atoms: C_5  and  N_6
REMARK    3  A    between atoms: C_7  and  C_9
REMARK    4  A    between atoms: C_14  and  C_15
REMARK    5  A    between atoms: C_21  and  N_22
REMARK    6  A    between atoms: C_23  and  C_25
REMARK    7  A    between atoms: C_29  and  C_30
REMARK                            x       y       z     vdW  Elec       q    Type
REMARK                         _______ _______ _______ _____ _____    ______ ____
ROOT
ATOM      1  C   UNL     1       3.951   3.045  19.962  0.00  0.00    +0.000 C 
ATOM      2  C   UNL     1       3.236   4.369  20.006  0.00  0.00    +0.000 A 
ATOM      3  C   UNL     1       2.169   4.450  20.927  0.00  0.00    +0.000 A 
ATOM      4  C   UNL     1       1.416   5.613  21.064  0.00  0.00    +0.000 A 
ATOM      5  C   UNL     1       1.696   6.725  20.294  0.00  0.00    +0.000 A 
ATOM      6  C   UNL     1       2.783   6.672  19.402  0.00  0.00    +0.000 A 
ATOM      7  C   UNL     1       3.561   5.500  19.225  0.00  0.00    +0.000 A 
ENDROOT
BRANCH   5   8
ATOM      8  N   UNL     1       0.924   7.904  20.352  0.00  0.00    +0.000 N 
ATOM      9  C   UNL     1       0.995   8.879  21.343  0.00  0.00    +0.000 C 
ATOM     10  O   UNL     1       1.727   8.856  22.328  0.00  0.00    +0.000 OA
ATOM     11  H   UNL     1       0.148   7.955  19.692  0.00  0.00    +0.000 HD
BRANCH   9  12
ATOM     12  C   UNL     1       0.036  10.018  21.233  0.00  0.00    +0.000 A 
ATOM     13  C   UNL     1      -0.356  10.760  22.345  0.00  0.00    +0.000 A 
ATOM     14  C   UNL     1      -1.231  11.837  22.184  0.00  0.00    +0.000 A 
ATOM     15  C   UNL     1      -1.710  12.199  20.917  0.00  0.00    +0.000 A 
ATOM     16 CL   UNL     1      -2.764  13.564  20.866  0.00  0.00    +0.000 Cl
ATOM     17  C   UNL     1      -1.333  11.471  19.784  0.00  0.00    +0.000 A 
ATOM     18  C   UNL     1      -0.485  10.352  19.968  0.00  0.00    +0.000 A 
BRANCH  17  19
ATOM     19  C   UNL     1      -1.734  11.829  18.372  0.00  0.00    +0.000 C 
ATOM     20  F   UNL     1      -1.181  12.957  17.856  0.00  0.00    +0.000 F 
ATOM     21  F   UNL     1      -1.397  10.838  17.495  0.00  0.00    +0.000 F 
ATOM     22  F   UNL     1      -3.081  11.988  18.241  0.00  0.00    +0.000 F 
ENDBRANCH  17  19
ENDBRANCH   9  12
ENDBRANCH   5   8
BRANCH   7  23
ATOM     23  N   UNL     1       4.609   5.449  18.251  0.00  0.00    +0.000 N 
ATOM     24  C   UNL     1       4.560   4.765  17.035  0.00  0.00    +0.000 C 
ATOM     25  O   UNL     1       3.555   4.212  16.595  0.00  0.00    +0.000 OA
ATOM     26  H   UNL     1       5.420   6.013  18.446  0.00  0.00    +0.000 HD
BRANCH  24  27
ATOM     27  C   UNL     1       5.763   4.733  16.214  0.00  0.00    +0.000 A 
ATOM     28  C   UNL     1       5.763   4.723  14.790  0.00  0.00    +0.000 A 
ATOM     29  N   UNL     1       6.990   4.684  14.271  0.00  0.00    +0.000 NA
ATOM     30  O   UNL     1       7.837   4.645  15.359  0.00  0.00    +0.000 OA
ATOM     31  C   UNL     1       7.106   4.656  16.514  0.00  0.00    +0.000 A 
ATOM     32  C   UNL     1       7.910   4.548  17.743  0.00  0.00    +0.000 C 
ENDBRANCH  24  27
ENDBRANCH   7  23
TORSDOF 5
ENDMDL
MODEL 5
REMARK VINA RESULT:      -8.5      4.998      9.169
REMARK  Name = 
REMARK  7 active torsions:
REMARK  status: ('A' for Active; 'I' for Inactive)
REMARK    1  A    between atoms: C_1  and  C_2
REMARK    2  A    between atoms: C_5  and  N_6
REMARK    3  A    between atoms: C_7  and  C_9
REMARK    4  A    between atoms: C_14  and  C_15
REMARK    5  A    between atoms: C_21  and  N_22
REMARK    6  A    between atoms: C_23  and  C_25
REMARK    7  A    between atoms: C_29  and  C_30
REMARK                            x       y       z     vdW  Elec       q    Type
REMARK                         _______ _______ _______ _____ _____    ______ ____
ROOT
ATOM      1  C   UNL     1      -1.249  12.932  22.942  0.00  0.00    +0.000 C 
ATOM      2  C   UNL     1      -0.569  11.695  22.417  0.00  0.00    +0.000 A 
ATOM      3  C   UNL     1      -0.947  10.487  23.042  0.00  0.00    +0.000 A 
ATOM      4  C   UNL     1      -0.389   9.268  22.662  0.00  0.00    +0.000 A 
ATOM      5  C   UNL     1       0.558   9.213  21.657  0.00  0.00    +0.000 A 
ATOM      6  C   UNL     1       0.912  10.405  20.998  0.00  0.00    +0.000 A 
ATOM      7  C   UNL     1       0.377  11.664  21.370  0.00  0.00    +0.000 A 
ENDROOT
BRANCH   5   8
ATOM      8  N   UNL     1       1.196   8.014  21.279  0.00  0.00    +0.000 N 
ATOM      9  C   UNL     1       1.754   7.743  20.032  0.00  0.00    +0.000 C 
ATOM     10  O   UNL     1       1.762   8.498  19.064  0.00  0.00    +0.000 OA
ATOM     11  H   UNL     1       1.095   7.238  21.931  0.00  0.00    +0.000 HD
BRANCH   9  12
ATOM     12  C   UNL     1       2.327   6.379  19.837  0.00  0.00    +0.000 A 
ATOM     13  C   UNL     1       2.033   5.326  20.700  0.00  0.00    +0.000 A 
ATOM     14  C   UNL     1       2.571   4.060  20.455  0.00  0.00    +0.000 A 
ATOM     15  C   UNL     1       3.388   3.823  19.341  0.00  0.00    +0.000 A 
ATOM     16 CL   UNL     1       3.960   2.207  19.151  0.00  0.00    +0.000 Cl
ATOM     17  C   UNL     1       3.700   4.862  18.459  0.00  0.00    +0.000 A 
ATOM     18  C   UNL     1       3.190   6.151  18.747  0.00  0.00    +0.000 A 
BRANCH  17  19
ATOM     19  C   UNL     1       4.507   4.688  17.193  0.00  0.00    +0.000 C 
ATOM     20  F   UNL     1       4.675   5.798  16.428  0.00  0.00    +0.000 F 
ATOM     21  F   UNL     1       5.773   4.255  17.468  0.00  0.00    +0.000 F 
ATOM     22  F   UNL     1       3.974   3.748  16.363  0.00  0.00    +0.000 F 
ENDBRANCH  17  19
ENDBRANCH   9  12
ENDBRANCH   5   8
BRANCH   7  23
ATOM     23  N   UNL     1       0.818  12.870  20.736  0.00  0.00    +0.000 N 
ATOM     24  C   UNL     1       0.288  13.418  19.566  0.00  0.00    +0.000 C 
ATOM     25  O   UNL     1      -0.711  12.988  18.995  0.00  0.00    +0.000 OA
ATOM     26  H   UNL     1       1.530  13.389  21.223  0.00  0.00    +0.000 HD
BRANCH  24  27
ATOM     27  C   UNL     1       0.935  14.595  19.003  0.00  0.00    +0.000 A 
ATOM     28  C   UNL     1       2.304  14.651  18.615  0.00  0.00    +0.000 A 
ATOM     29  N   UNL     1       2.660  15.842  18.136  0.00  0.00    +0.000 NA
ATOM     30  O   UNL     1       1.521  16.615  18.219  0.00  0.00    +0.000 OA
ATOM     31  C   UNL     1       0.500  15.878  18.751  0.00  0.00    +0.000 A 
ATOM     32  C   UNL     1      -0.752  16.628  18.948  0.00  0.00    +0.000 C 
ENDBRANCH  24  27
ENDBRANCH   7  23
TORSDOF 5
ENDMDL
MODEL 6
REMARK VINA RESULT:      -8.5      4.999     10.168
REMARK  Name = 
REMARK  7 active torsions:
REMARK  status: ('A' for Active; 'I' for Inactive)
REMARK    1  A    between atoms: C_1  and  C_2
REMARK    2  A    between atoms: C_5  and  N_6
REMARK    3  A    between atoms: C_7  and  C_9
REMARK    4  A    between atoms: C_14  and  C_15
REMARK    5  A    between atoms: C_21  and  N_22
REMARK    6  A    between atoms: C_23  and  C_25
REMARK    7  A    between atoms: C_29  and  C_30
REMARK                            x       y       z     vdW  Elec       q    Type
REMARK                         _______ _______ _______ _____ _____    ______ ____
ROOT
ATOM      1  C   UNL     1      -0.227  14.089  19.098  0.00  0.00    +0.000 C 
ATOM      2  C   UNL     1       0.180  12.642  19.176  0.00  0.00    +0.000 A 
ATOM      3  C   UNL     1       1.363  12.309  18.481  0.00  0.00    +0.000 A 
ATOM      4  C   UNL     1       1.850  11.004  18.461  0.00  0.00    +0.000 A 
ATOM      5  C   UNL     1       1.179   9.995  19.125  0.00  0.00    +0.000 A 
ATOM      6  C   UNL     1       0.022  10.322  19.856  0.00  0.00    +0.000 A 
ATOM      7  C   UNL     1      -0.511  11.636  19.885  0.00  0.00    +0.000 A 
ENDROOT
BRANCH   5   8
ATOM      8  N   UNL     1       1.597   8.649  19.083  0.00  0.00    +0.000 N 
ATOM      9  C   UNL     1       1.726   7.799  20.179  0.00  0.00    +0.000 C 
ATOM     10  O   UNL     1       1.514   8.094  21.352  0.00  0.00    +0.000 OA
ATOM     11  H   UNL     1       1.979   8.335  18.192  0.00  0.00    +0.000 HD
BRANCH   9  12
ATOM     12  C   UNL     1       2.245   6.427  19.905  0.00  0.00    +0.000 A 
ATOM     13  C   UNL     1       1.892   5.335  20.695  0.00  0.00    +0.000 A 
ATOM     14  C   UNL     1       2.379   4.065  20.378  0.00  0.00    +0.000 A 
ATOM     15  C   UNL     1       3.204   3.863  19.263  0.00  0.00    +0.000 A 
ATOM     16 CL   UNL     1       3.711   2.239  18.978  0.00  0.00    +0.000 Cl
ATOM     17  C   UNL     1       3.575   4.941  18.453  0.00  0.00    +0.000 A 
ATOM     18  C   UNL     1       3.115   6.230  18.815  0.00  0.00    +0.000 A 
BRANCH  17  19
ATOM     19  C   UNL     1       4.395   4.813  17.190  0.00  0.00    +0.000 C 
ATOM     20  F   UNL     1       3.966   3.898  16.283  0.00  0.00    +0.000 F 
ATOM     21  F   UNL     1       4.441   5.993  16.506  0.00  0.00    +0.000 F 
ATOM     22  F   UNL     1       5.694   4.491  17.447  0.00  0.00    +0.000 F 
ENDBRANCH  17  19
ENDBRANCH   9  12
ENDBRANCH   5   8
BRANCH   7  23
ATOM     23  N   UNL     1      -1.735  11.922  20.570  0.00  0.00    +0.000 N 
ATOM     24  C   UNL     1      -1.856  12.248  21.922  0.00  0.00    +0.000 C 
ATOM     25  O   UNL     1      -0.904  12.449  22.670  0.00  0.00    +0.000 OA
ATOM     26  H   UNL     1      -2.565  11.946  19.999  0.00  0.00    +0.000 HD
BRANCH  24  27
ATOM     27  C   UNL     1      -3.195  12.401  22.476  0.00  0.00    +0.000 A 
ATOM     28  C   UNL     1      -3.514  12.255  23.856  0.00  0.00    +0.000 A 
ATOM     29  N   UNL     1      -4.810  12.434  24.111  0.00  0.00    +0.000 NA
ATOM     30  O   UNL     1      -5.384  12.685  22.883  0.00  0.00    +0.000 OA
ATOM     31  C   UNL     1      -4.426  12.647  21.909  0.00  0.00    +0.000 A 
ATOM     32  C   UNL     1      -4.942  12.835  20.542  0.00  0.00    +0.000 C 
ENDBRANCH  24  27
ENDBRANCH   7  23
TORSDOF 5
ENDMDL
MODEL 7
REMARK VINA RESULT:      -8.4      0.996      1.201
REMARK  Name = 
REMARK  7 active torsions:
REMARK  status: ('A' for Active; 'I' for Inactive)
REMARK    1  A    between atoms: C_1  and  C_2
REMARK    2  A    between atoms: C_5  and  N_6
REMARK    3  A    between atoms: C_7  and  C_9
REMARK    4  A    between atoms: C_14  and  C_15
REMARK    5  A    between atoms: C_21  and  N_22
REMARK    6  A    between atoms: C_23  and  C_25
REMARK    7  A    between atoms: C_29  and  C_30
REMARK                            x       y       z     vdW  Elec       q    Type
REMARK                         _______ _______ _______ _____ _____    ______ ____
ROOT
ATOM      1  C   UNL     1       4.215   2.380  19.238  0.00  0.00    +0.000 C 
ATOM      2  C   UNL     1       3.503   3.624  19.699  0.00  0.00    +0.000 A 
ATOM      3  C   UNL     1       2.495   3.420  20.666  0.00  0.00    +0.000 A 
ATOM      4  C   UNL     1       1.750   4.483  21.172  0.00  0.00    +0.000 A 
ATOM      5  C   UNL     1       1.982   5.773  20.735  0.00  0.00    +0.000 A 
ATOM      6  C   UNL     1       3.013   5.994  19.803  0.00  0.00    +0.000 A 
ATOM      7  C   UNL     1       3.779   4.935  19.254  0.00  0.00    +0.000 A 
ENDROOT
BRANCH   5   8
ATOM      8  N   UNL     1       1.214   6.872  21.171  0.00  0.00    +0.000 N 
ATOM      9  C   UNL     1       1.165   8.126  20.566  0.00  0.00    +0.000 C 
ATOM     10  O   UNL     1       1.794   8.473  19.570  0.00  0.00    +0.000 OA
ATOM     11  H   UNL     1       0.788   6.774  22.091  0.00  0.00    +0.000 HD
BRANCH   9  12
ATOM     12  C   UNL     1       0.326   9.162  21.237  0.00  0.00    +0.000 A 
ATOM     13  C   UNL     1       0.122   9.165  22.616  0.00  0.00    +0.000 A 
ATOM     14  C   UNL     1      -0.645  10.175  23.199  0.00  0.00    +0.000 A 
ATOM     15  C   UNL     1      -1.203  11.202  22.424  0.00  0.00    +0.000 A 
ATOM     16 CL   UNL     1      -2.106  12.395  23.282  0.00  0.00    +0.000 Cl
ATOM     17  C   UNL     1      -1.015  11.223  21.038  0.00  0.00    +0.000 A 
ATOM     18  C   UNL     1      -0.277  10.165  20.454  0.00  0.00    +0.000 A 
BRANCH  17  19
ATOM     19  C   UNL     1      -1.509  12.325  20.131  0.00  0.00    +0.000 C 
ATOM     20  F   UNL     1      -2.848  12.555  20.135  0.00  0.00    +0.000 F 
ATOM     21  F   UNL     1      -0.945  13.525  20.455  0.00  0.00    +0.000 F 
ATOM     22  F   UNL     1      -1.179  12.109  18.826  0.00  0.00    +0.000 F 
ENDBRANCH  17  19
ENDBRANCH   9  12
ENDBRANCH   5   8
BRANCH   7  23
ATOM     23  N   UNL     1       4.765   5.182  18.246  0.00  0.00    +0.000 N 
ATOM     24  C   UNL     1       4.672   4.808  16.904  0.00  0.00    +0.000 C 
ATOM     25  O   UNL     1       3.667   4.320  16.394  0.00  0.00    +0.000 OA
ATOM     26  H   UNL     1       5.561   5.729  18.533  0.00  0.00    +0.000 HD
BRANCH  24  27
ATOM     27  C   UNL     1       5.822   5.045  16.042  0.00  0.00    +0.000 A 
ATOM     28  C   UNL     1       6.002   4.447  14.762  0.00  0.00    +0.000 A 
ATOM     29  N   UNL     1       7.139   4.816  14.172  0.00  0.00    +0.000 NA
ATOM     30  O   UNL     1       7.751   5.661  15.074  0.00  0.00    +0.000 OA
ATOM     31  C   UNL     1       6.975   5.783  16.193  0.00  0.00    +0.000 A 
ATOM     32  C   UNL     1       7.568   6.613  17.255  0.00  0.00    +0.000 C 
ENDBRANCH  24  27
ENDBRANCH   7  23
TORSDOF 5
ENDMDL
MODEL 8
REMARK VINA RESULT:      -8.4      5.077      9.149
REMARK  Name = 
REMARK  7 active torsions:
REMARK  status: ('A' for Active; 'I' for Inactive)
REMARK    1  A    between atoms: C_1  and  C_2
REMARK    2  A    between atoms: C_5  and  N_6
REMARK    3  A    between atoms: C_7  and  C_9
REMARK    4  A    between atoms: C_14  and  C_15
REMARK    5  A    between atoms: C_21  and  N_22
REMARK    6  A    between atoms: C_23  and  C_25
REMARK    7  A    between atoms: C_29  and  C_30
REMARK                            x       y       z     vdW  Elec       q    Type
REMARK                         _______ _______ _______ _____ _____    ______ ____
ROOT
ATOM      1  C   UNL     1      -1.186  12.966  22.751  0.00  0.00    +0.000 C 
ATOM      2  C   UNL     1      -0.523  11.706  22.259  0.00  0.00    +0.000 A 
ATOM      3  C   UNL     1      -0.770  10.552  23.034  0.00  0.00    +0.000 A 
ATOM      4  C   UNL     1      -0.211   9.320  22.698  0.00  0.00    +0.000 A 
ATOM      5  C   UNL     1       0.606   9.199  21.590  0.00  0.00    +0.000 A 
ATOM      6  C   UNL     1       0.825  10.334  20.787  0.00  0.00    +0.000 A 
ATOM      7  C   UNL     1       0.286  11.605  21.108  0.00  0.00    +0.000 A 
ENDROOT
BRANCH   5   8
ATOM      8  N   UNL     1       1.243   7.990  21.245  0.00  0.00    +0.000 N 
ATOM      9  C   UNL     1       1.823   7.695  20.014  0.00  0.00    +0.000 C 
ATOM     10  O   UNL     1       1.855   8.433  19.034  0.00  0.00    +0.000 OA
ATOM     11  H   UNL     1       1.125   7.225  21.909  0.00  0.00    +0.000 HD
BRANCH   9  12
ATOM     12  C   UNL     1       2.391   6.324  19.853  0.00  0.00    +0.000 A 
ATOM     13  C   UNL     1       2.028   5.272  20.692  0.00  0.00    +0.000 A 
ATOM     14  C   UNL     1       2.565   4.000  20.479  0.00  0.00    +0.000 A 
ATOM     15  C   UNL     1       3.451   3.756  19.420  0.00  0.00    +0.000 A 
ATOM     16 CL   UNL     1       4.014   2.133  19.263  0.00  0.00    +0.000 Cl
ATOM     17  C   UNL     1       3.833   4.793  18.563  0.00  0.00    +0.000 A 
ATOM     18  C   UNL     1       3.321   6.087  18.821  0.00  0.00    +0.000 A 
BRANCH  17  19
ATOM     19  C   UNL     1       4.719   4.612  17.353  0.00  0.00    +0.000 C 
ATOM     20  F   UNL     1       5.970   4.137  17.587  0.00  0.00    +0.000 F 
ATOM     21  F   UNL     1       4.170   3.734  16.463  0.00  0.00    +0.000 F 
ATOM     22  F   UNL     1       4.892   5.772  16.659  0.00  0.00    +0.000 F 
ENDBRANCH  17  19
ENDBRANCH   9  12
ENDBRANCH   5   8
BRANCH   7  23
ATOM     23  N   UNL     1       0.594  12.758  20.316  0.00  0.00    +0.000 N 
ATOM     24  C   UNL     1       1.681  13.613  20.509  0.00  0.00    +0.000 C 
ATOM     25  O   UNL     1       2.582  13.410  21.318  0.00  0.00    +0.000 OA
ATOM     26  H   UNL     1       0.001  12.917  19.518  0.00  0.00    +0.000 HD
BRANCH  24  27
ATOM     27  C   UNL     1       1.777  14.803  19.674  0.00  0.00    +0.000 A 
ATOM     28  C   UNL     1       3.000  15.334  19.173  0.00  0.00    +0.000 A 
ATOM     29  N   UNL     1       2.826  16.434  18.440  0.00  0.00    +0.000 NA
ATOM     30  O   UNL     1       1.467  16.666  18.461  0.00  0.00    +0.000 OA
ATOM     31  C   UNL     1       0.846  15.706  19.210  0.00  0.00    +0.000 A 
ATOM     32  C   UNL     1      -0.608  15.894  19.357  0.00  0.00    +0.000 C 
ENDBRANCH  24  27
ENDBRANCH   7  23
TORSDOF 5
ENDMDL
MODEL 9
REMARK VINA RESULT:      -8.4      5.282      9.452
REMARK  Name = 
REMARK  7 active torsions:
REMARK  status: ('A' for Active; 'I' for Inactive)
REMARK    1  A    between atoms: C_1  and  C_2
REMARK    2  A    between atoms: C_5  and  N_6
REMARK    3  A    between atoms: C_7  and  C_9
REMARK    4  A    between atoms: C_14  and  C_15
REMARK    5  A    between atoms: C_21  and  N_22
REMARK    6  A    between atoms: C_23  and  C_25
REMARK    7  A    between atoms: C_29  and  C_30
REMARK                            x       y       z     vdW  Elec       q    Type
REMARK                         _______ _______ _______ _____ _____    ______ ____
ROOT
ATOM      1  C   UNL     1      -1.313  11.692  23.070  0.00  0.00    +0.000 C 
ATOM      2  C   UNL     1      -0.477  10.817  22.174  0.00  0.00    +0.000 A 
ATOM      3  C   UNL     1      -0.506   9.439  22.478  0.00  0.00    +0.000 A 
ATOM      4  C   UNL     1       0.228   8.517  21.736  0.00  0.00    +0.000 A 
ATOM      5  C   UNL     1       1.011   8.934  20.676  0.00  0.00    +0.000 A 
ATOM      6  C   UNL     1       1.015  10.300  20.337  0.00  0.00    +0.000 A 
ATOM      7  C   UNL     1       0.293  11.267  21.080  0.00  0.00    +0.000 A 
ENDROOT
BRANCH   5   8
ATOM      8  N   UNL     1       1.820   8.048  19.934  0.00  0.00    +0.000 N 
ATOM      9  C   UNL     1       2.038   8.097  18.560  0.00  0.00    +0.000 C 
ATOM     10  O   UNL     1       1.547   8.908  17.778  0.00  0.00    +0.000 OA
ATOM     11  H   UNL     1       2.138   7.220  20.435  0.00  0.00    +0.000 HD
BRANCH   9  12
ATOM     12  C   UNL     1       2.887   7.017  17.977  0.00  0.00    +0.000 A 
ATOM     13  C   UNL     1       4.066   7.298  17.289  0.00  0.00    +0.000 A 
ATOM     14  C   UNL     1       4.842   6.249  16.790  0.00  0.00    +0.000 A 
ATOM     15  C   UNL     1       4.465   4.913  16.984  0.00  0.00    +0.000 A 
ATOM     16 CL   UNL     1       5.531   3.723  16.334  0.00  0.00    +0.000 Cl
ATOM     17  C   UNL     1       3.287   4.603  17.670  0.00  0.00    +0.000 A 
ATOM     18  C   UNL     1       2.485   5.676  18.127  0.00  0.00    +0.000 A 
BRANCH  17  19
ATOM     19  C   UNL     1       2.838   3.197  17.994  0.00  0.00    +0.000 C 
ATOM     20  F   UNL     1       3.763   2.386  18.571  0.00  0.00    +0.000 F 
ATOM     21  F   UNL     1       1.783   3.201  18.862  0.00  0.00    +0.000 F 
ATOM     22  F   UNL     1       2.399   2.526  16.893  0.00  0.00    +0.000 F 
ENDBRANCH  17  19
ENDBRANCH   9  12
ENDBRANCH   5   8
BRANCH   7  23
ATOM     23  N   UNL     1       0.382  12.660  20.761  0.00  0.00    +0.000 N 
ATOM     24  C   UNL     1      -0.206  13.284  19.659  0.00  0.00    +0.000 C 
ATOM     25  O   UNL     1      -0.980  12.727  18.884  0.00  0.00    +0.000 OA
ATOM     26  H   UNL     1       0.862  13.237  21.433  0.00  0.00    +0.000 HD
BRANCH  24  27
ATOM     27  C   UNL     1       0.081  14.694  19.432  0.00  0.00    +0.000 A 
ATOM     28  C   UNL     1      -0.833  15.752  19.701  0.00  0.00    +0.000 A 
ATOM     29  N   UNL     1      -0.339  16.953  19.400  0.00  0.00    +0.000 NA
ATOM     30  O   UNL     1       0.922  16.706  18.900  0.00  0.00    +0.000 OA
ATOM     31  C   UNL     1       1.164  15.361  18.903  0.00  0.00    +0.000 A 
ATOM     32  C   UNL     1       2.462  14.975  18.323  0.00  0.00    +0.000 C 
ENDBRANCH  24  27
ENDBRANCH   7  23
TORSDOF 5
ENDMDL
