MODEL 1
REMARK VINA RESULT:      -7.6      0.000      0.000
REMARK  Name = 
REMARK  4 active torsions:
REMARK  status: ('A' for Active; 'I' for Inactive)
REMARK    1  A    between atoms: C_1  and  C_2
REMARK    2  A    between atoms: C_2  and  C_3
REMARK    3  A    between atoms: C_6  and  C_8
REMARK    4  A    between atoms: N_11  and  C_12
REMARK                            x       y       z     vdW  Elec       q    Type
REMARK                         _______ _______ _______ _____ _____    ______ ____
ROOT
ATOM      1  C   UNL     1       2.711   7.331  18.507  0.00  0.00    +0.000 A 
ATOM      2  C   UNL     1       2.256   8.347  17.646  0.00  0.00    +0.000 A 
ATOM      3  N   UNL     1       1.520   9.238  18.313  0.00  0.00    +0.000 NA
ATOM      4  N   UNL     1       1.515   8.718  19.568  0.00  0.00    +0.000 N 
ATOM      5  N   UNL     1       2.222   7.571  19.738  0.00  0.00    +0.000 NA
ENDROOT
BRANCH   1   9
ATOM      6  C   UNL     1       1.442   3.340  19.117  0.00  0.00    +0.000 C 
ATOM      7  C   UNL     1       1.497   4.588  18.215  0.00  0.00    +0.000 C 
ATOM      8  N   UNL     1       2.884   4.938  17.891  0.00  0.00    +0.000 N 
ATOM      9  C   UNL     1       3.511   6.163  18.120  0.00  0.00    +0.000 C 
ATOM     10  O   UNL     1       4.733   6.280  18.015  0.00  0.00    +0.000 OA
ATOM     11  C   UNL     1       3.654   3.821  17.344  0.00  0.00    +0.000 C 
ATOM     12  C   UNL     1       3.536   2.574  18.227  0.00  0.00    +0.000 C 
ATOM     13  O   UNL     1       2.172   2.249  18.526  0.00  0.00    +0.000 OA
BRANCH   6  15
ATOM     14  C   UNL     1       1.577   2.541  21.530  0.00  0.00    +0.000 C 
ATOM     15  C   UNL     1       1.908   3.656  20.550  0.00  0.00    +0.000 C 
ENDBRANCH   6  15
ENDBRANCH   1   9
BRANCH   4  16
ATOM     16  C   UNL     1       0.811   9.323  20.641  0.00  0.00    +0.000 A 
ATOM     17  C   UNL     1      -0.025  10.422  20.401  0.00  0.00    +0.000 A 
ATOM     18  C   UNL     1      -0.738  10.996  21.457  0.00  0.00    +0.000 A 
ATOM     19  C   UNL     1      -0.610  10.485  22.748  0.00  0.00    +0.000 A 
ATOM     20  C   UNL     1       0.230   9.397  22.992  0.00  0.00    +0.000 A 
ATOM     21  C   UNL     1       0.939   8.813  21.942  0.00  0.00    +0.000 A 
ENDBRANCH   4  16
TORSDOF 3
ENDMDL
MODEL 2
REMARK VINA RESULT:      -7.6      0.095      1.061
REMARK  Name = 
REMARK  4 active torsions:
REMARK  status: ('A' for Active; 'I' for Inactive)
REMARK    1  A    between atoms: C_1  and  C_2
REMARK    2  A    between atoms: C_2  and  C_3
REMARK    3  A    between atoms: C_6  and  C_8
REMARK    4  A    between atoms: N_11  and  C_12
REMARK                            x       y       z     vdW  Elec       q    Type
REMARK                         _______ _______ _______ _____ _____    ______ ____
ROOT
ATOM      1  C   UNL     1       2.768   7.263  18.504  0.00  0.00    +0.000 A 
ATOM      2  C   UNL     1       2.369   8.292  17.630  0.00  0.00    +0.000 A 
ATOM      3  N   UNL     1       1.628   9.197  18.272  0.00  0.00    +0.000 NA
ATOM      4  N   UNL     1       1.563   8.673  19.524  0.00  0.00    +0.000 N 
ATOM      5  N   UNL     1       2.238   7.510  19.716  0.00  0.00    +0.000 NA
ENDROOT
BRANCH   1   9
ATOM      6  C   UNL     1       1.431   3.299  19.141  0.00  0.00    +0.000 C 
ATOM      7  C   UNL     1       1.518   4.535  18.225  0.00  0.00    +0.000 C 
ATOM      8  N   UNL     1       2.915   4.860  17.918  0.00  0.00    +0.000 N 
ATOM      9  C   UNL     1       3.556   6.079  18.142  0.00  0.00    +0.000 C 
ATOM     10  O   UNL     1       4.781   6.177  18.054  0.00  0.00    +0.000 OA
ATOM     11  C   UNL     1       3.676   3.726  17.396  0.00  0.00    +0.000 C 
ATOM     12  C   UNL     1       3.526   2.491  18.292  0.00  0.00    +0.000 C 
ATOM     13  O   UNL     1       2.152   2.190  18.574  0.00  0.00    +0.000 OA
BRANCH   6  15
ATOM     14  C   UNL     1       1.520   2.526  21.565  0.00  0.00    +0.000 C 
ATOM     15  C   UNL     1       1.880   3.626  20.577  0.00  0.00    +0.000 C 
ENDBRANCH   6  15
ENDBRANCH   1   9
BRANCH   4  16
ATOM     16  C   UNL     1       0.832   9.290  20.572  0.00  0.00    +0.000 A 
ATOM     17  C   UNL     1       0.926   8.796  21.880  0.00  0.00    +0.000 A 
ATOM     18  C   UNL     1       0.226   9.426  22.911  0.00  0.00    +0.000 A 
ATOM     19  C   UNL     1      -0.574  10.536  22.641  0.00  0.00    +0.000 A 
ATOM     20  C   UNL     1      -0.678  11.024  21.337  0.00  0.00    +0.000 A 
ATOM     21  C   UNL     1       0.025  10.406  20.302  0.00  0.00    +0.000 A 
ENDBRANCH   4  16
TORSDOF 3
ENDMDL
MODEL 3
REMARK VINA RESULT:      -7.6      4.379      7.475
REMARK  Name = 
REMARK  4 active torsions:
REMARK  status: ('A' for Active; 'I' for Inactive)
REMARK    1  A    between atoms: C_1  and  C_2
REMARK    2  A    between atoms: C_2  and  C_3
REMARK    3  A    between atoms: C_6  and  C_8
REMARK    4  A    between atoms: N_11  and  C_12
REMARK                            x       y       z     vdW  Elec       q    Type
REMARK                         _______ _______ _______ _____ _____    ______ ____
ROOT
ATOM      1  C   UNL     1       5.428   4.699  17.589  0.00  0.00    +0.000 A 
ATOM      2  C   UNL     1       5.305   6.046  17.197  0.00  0.00    +0.000 A 
ATOM      3  N   UNL     1       5.573   6.186  15.898  0.00  0.00    +0.000 NA
ATOM      4  N   UNL     1       5.891   4.916  15.535  0.00  0.00    +0.000 N 
ATOM      5  N   UNL     1       5.814   3.982  16.519  0.00  0.00    +0.000 NA
ENDROOT
BRANCH   1   9
ATOM      6  C   UNL     1       1.934   2.676  18.857  0.00  0.00    +0.000 C 
ATOM      7  C   UNL     1       3.345   2.621  18.238  0.00  0.00    +0.000 C 
ATOM      8  N   UNL     1       4.347   3.136  19.178  0.00  0.00    +0.000 N 
ATOM      9  C   UNL     1       5.249   4.175  18.949  0.00  0.00    +0.000 C 
ATOM     10  O   UNL     1       5.892   4.673  19.873  0.00  0.00    +0.000 OA
ATOM     11  C   UNL     1       4.291   2.502  20.494  0.00  0.00    +0.000 C 
ATOM     12  C   UNL     1       2.867   2.516  21.063  0.00  0.00    +0.000 C 
ATOM     13  O   UNL     1       1.907   2.004  20.129  0.00  0.00    +0.000 OA
BRANCH   6  15
ATOM     14  C   UNL     1       1.768   4.942  17.710  0.00  0.00    +0.000 C 
ATOM     15  C   UNL     1       1.407   4.121  18.938  0.00  0.00    +0.000 C 
ENDBRANCH   6  15
ENDBRANCH   1   9
BRANCH   4  16
ATOM     16  C   UNL     1       6.287   4.576  14.216  0.00  0.00    +0.000 A 
ATOM     17  C   UNL     1       5.552   3.636  13.482  0.00  0.00    +0.000 A 
ATOM     18  C   UNL     1       5.931   3.327  12.173  0.00  0.00    +0.000 A 
ATOM     19  C   UNL     1       7.044   3.942  11.602  0.00  0.00    +0.000 A 
ATOM     20  C   UNL     1       7.784   4.872  12.334  0.00  0.00    +0.000 A 
ATOM     21  C   UNL     1       7.408   5.192  13.639  0.00  0.00    +0.000 A 
ENDBRANCH   4  16
TORSDOF 3
ENDMDL
MODEL 4
REMARK VINA RESULT:      -7.6      4.344      7.442
REMARK  Name = 
REMARK  4 active torsions:
REMARK  status: ('A' for Active; 'I' for Inactive)
REMARK    1  A    between atoms: C_1  and  C_2
REMARK    2  A    between atoms: C_2  and  C_3
REMARK    3  A    between atoms: C_6  and  C_8
REMARK    4  A    between atoms: N_11  and  C_12
REMARK                            x       y       z     vdW  Elec       q    Type
REMARK                         _______ _______ _______ _____ _____    ______ ____
ROOT
ATOM      1  C   UNL     1       5.343   4.709  17.580  0.00  0.00    +0.000 A 
ATOM      2  C   UNL     1       5.106   6.036  17.174  0.00  0.00    +0.000 A 
ATOM      3  N   UNL     1       5.382   6.191  15.878  0.00  0.00    +0.000 NA
ATOM      4  N   UNL     1       5.817   4.951  15.532  0.00  0.00    +0.000 N 
ATOM      5  N   UNL     1       5.809   4.022  16.522  0.00  0.00    +0.000 NA
ENDROOT
BRANCH   1   9
ATOM      6  C   UNL     1       1.874   2.683  18.909  0.00  0.00    +0.000 C 
ATOM      7  C   UNL     1       3.272   2.630  18.263  0.00  0.00    +0.000 C 
ATOM      8  N   UNL     1       4.292   3.141  19.185  0.00  0.00    +0.000 N 
ATOM      9  C   UNL     1       5.190   4.181  18.941  0.00  0.00    +0.000 C 
ATOM     10  O   UNL     1       5.851   4.676  19.855  0.00  0.00    +0.000 OA
ATOM     11  C   UNL     1       4.261   2.504  20.501  0.00  0.00    +0.000 C 
ATOM     12  C   UNL     1       2.849   2.517  21.096  0.00  0.00    +0.000 C 
ATOM     13  O   UNL     1       1.871   2.007  20.179  0.00  0.00    +0.000 OA
BRANCH   6  15
ATOM     14  C   UNL     1       1.578   4.916  17.724  0.00  0.00    +0.000 C 
ATOM     15  C   UNL     1       1.349   4.127  19.004  0.00  0.00    +0.000 C 
ENDBRANCH   6  15
ENDBRANCH   1   9
BRANCH   4  16
ATOM     16  C   UNL     1       6.263   4.639  14.222  0.00  0.00    +0.000 A 
ATOM     17  C   UNL     1       7.387   5.285  13.689  0.00  0.00    +0.000 A 
ATOM     18  C   UNL     1       7.837   4.953  12.410  0.00  0.00    +0.000 A 
ATOM     19  C   UNL     1       7.166   3.989  11.658  0.00  0.00    +0.000 A 
ATOM     20  C   UNL     1       6.041   3.351  12.181  0.00  0.00    +0.000 A 
ATOM     21  C   UNL     1       5.588   3.671  13.462  0.00  0.00    +0.000 A 
ENDBRANCH   4  16
TORSDOF 3
ENDMDL
MODEL 5
REMARK VINA RESULT:      -7.5      3.666      7.389
REMARK  Name = 
REMARK  4 active torsions:
REMARK  status: ('A' for Active; 'I' for Inactive)
REMARK    1  A    between atoms: C_1  and  C_2
REMARK    2  A    between atoms: C_2  and  C_3
REMARK    3  A    between atoms: C_6  and  C_8
REMARK    4  A    between atoms: N_11  and  C_12
REMARK                            x       y       z     vdW  Elec       q    Type
REMARK                         _______ _______ _______ _____ _____    ______ ____
ROOT
ATOM      1  C   UNL     1       4.906   5.286  17.708  0.00  0.00    +0.000 A 
ATOM      2  C   UNL     1       6.197   4.873  18.088  0.00  0.00    +0.000 A 
ATOM      3  N   UNL     1       6.932   4.573  17.016  0.00  0.00    +0.000 NA
ATOM      4  N   UNL     1       6.051   4.778  16.002  0.00  0.00    +0.000 N 
ATOM      5  N   UNL     1       4.817   5.213  16.368  0.00  0.00    +0.000 NA
ENDROOT
BRANCH   1   9
ATOM      6  C   UNL     1       2.466   2.444  19.679  0.00  0.00    +0.000 C 
ATOM      7  C   UNL     1       3.732   3.324  19.672  0.00  0.00    +0.000 C 
ATOM      8  N   UNL     1       3.379   4.745  19.582  0.00  0.00    +0.000 N 
ATOM      9  C   UNL     1       3.814   5.654  18.618  0.00  0.00    +0.000 C 
ATOM     10  O   UNL     1       3.287   6.761  18.505  0.00  0.00    +0.000 OA
ATOM     11  C   UNL     1       2.411   5.170  20.593  0.00  0.00    +0.000 C 
ATOM     12  C   UNL     1       1.189   4.245  20.622  0.00  0.00    +0.000 C 
ATOM     13  O   UNL     1       1.559   2.862  20.715  0.00  0.00    +0.000 OA
BRANCH   6  15
ATOM     14  C   UNL     1       2.814   2.268  17.164  0.00  0.00    +0.000 C 
ATOM     15  C   UNL     1       1.801   2.398  18.291  0.00  0.00    +0.000 C 
ENDBRANCH   6  15
ENDBRANCH   1   9
BRANCH   4  16
ATOM     16  C   UNL     1       6.386   4.548  14.643  0.00  0.00    +0.000 A 
ATOM     17  C   UNL     1       5.625   3.658  13.872  0.00  0.00    +0.000 A 
ATOM     18  C   UNL     1       5.943   3.458  12.527  0.00  0.00    +0.000 A 
ATOM     19  C   UNL     1       7.021   4.131  11.954  0.00  0.00    +0.000 A 
ATOM     20  C   UNL     1       7.787   5.010  12.720  0.00  0.00    +0.000 A 
ATOM     21  C   UNL     1       7.471   5.223  14.063  0.00  0.00    +0.000 A 
ENDBRANCH   4  16
TORSDOF 3
ENDMDL
MODEL 6
REMARK VINA RESULT:      -7.5      3.658      7.366
REMARK  Name = 
REMARK  4 active torsions:
REMARK  status: ('A' for Active; 'I' for Inactive)
REMARK    1  A    between atoms: C_1  and  C_2
REMARK    2  A    between atoms: C_2  and  C_3
REMARK    3  A    between atoms: C_6  and  C_8
REMARK    4  A    between atoms: N_11  and  C_12
REMARK                            x       y       z     vdW  Elec       q    Type
REMARK                         _______ _______ _______ _____ _____    ______ ____
ROOT
ATOM      1  C   UNL     1       4.883   5.308  17.733  0.00  0.00    +0.000 A 
ATOM      2  C   UNL     1       6.176   4.900  18.112  0.00  0.00    +0.000 A 
ATOM      3  N   UNL     1       6.914   4.609  17.040  0.00  0.00    +0.000 NA
ATOM      4  N   UNL     1       6.033   4.814  16.026  0.00  0.00    +0.000 N 
ATOM      5  N   UNL     1       4.796   5.241  16.392  0.00  0.00    +0.000 NA
ENDROOT
BRANCH   1   9
ATOM      6  C   UNL     1       2.474   2.443  19.709  0.00  0.00    +0.000 C 
ATOM      7  C   UNL     1       3.730   3.337  19.700  0.00  0.00    +0.000 C 
ATOM      8  N   UNL     1       3.363   4.753  19.609  0.00  0.00    +0.000 N 
ATOM      9  C   UNL     1       3.788   5.666  18.642  0.00  0.00    +0.000 C 
ATOM     10  O   UNL     1       3.249   6.767  18.528  0.00  0.00    +0.000 OA
ATOM     11  C   UNL     1       2.391   5.169  20.620  0.00  0.00    +0.000 C 
ATOM     12  C   UNL     1       1.179   4.232  20.651  0.00  0.00    +0.000 C 
ATOM     13  O   UNL     1       1.563   2.853  20.745  0.00  0.00    +0.000 OA
BRANCH   6  15
ATOM     14  C   UNL     1       2.823   2.284  17.193  0.00  0.00    +0.000 C 
ATOM     15  C   UNL     1       1.809   2.388  18.322  0.00  0.00    +0.000 C 
ENDBRANCH   6  15
ENDBRANCH   1   9
BRANCH   4  16
ATOM     16  C   UNL     1       6.371   4.593  14.666  0.00  0.00    +0.000 A 
ATOM     17  C   UNL     1       7.454   5.272  14.091  0.00  0.00    +0.000 A 
ATOM     18  C   UNL     1       7.799   5.029  12.760  0.00  0.00    +0.000 A 
ATOM     19  C   UNL     1       7.062   4.122  11.999  0.00  0.00    +0.000 A 
ATOM     20  C   UNL     1       5.976   3.452  12.565  0.00  0.00    +0.000 A 
ATOM     21  C   UNL     1       5.629   3.683  13.897  0.00  0.00    +0.000 A 
ENDBRANCH   4  16
TORSDOF 3
ENDMDL
MODEL 7
REMARK VINA RESULT:      -7.3      3.492      7.454
REMARK  Name = 
REMARK  4 active torsions:
REMARK  status: ('A' for Active; 'I' for Inactive)
REMARK    1  A    between atoms: C_1  and  C_2
REMARK    2  A    between atoms: C_2  and  C_3
REMARK    3  A    between atoms: C_6  and  C_8
REMARK    4  A    between atoms: N_11  and  C_12
REMARK                            x       y       z     vdW  Elec       q    Type
REMARK                         _______ _______ _______ _____ _____    ______ ____
ROOT
ATOM      1  C   UNL     1       5.120   4.141  17.828  0.00  0.00    +0.000 A 
ATOM      2  C   UNL     1       5.634   5.451  17.838  0.00  0.00    +0.000 A 
ATOM      3  N   UNL     1       6.124   5.776  16.641  0.00  0.00    +0.000 NA
ATOM      4  N   UNL     1       5.926   4.633  15.933  0.00  0.00    +0.000 N 
ATOM      5  N   UNL     1       5.320   3.619  16.604  0.00  0.00    +0.000 NA
ENDROOT
BRANCH   1   9
ATOM      6  C   UNL     1       1.303   5.031  19.423  0.00  0.00    +0.000 C 
ATOM      7  C   UNL     1       2.170   4.227  18.434  0.00  0.00    +0.000 C 
ATOM      8  N   UNL     1       3.156   3.411  19.150  0.00  0.00    +0.000 N 
ATOM      9  C   UNL     1       4.540   3.430  18.974  0.00  0.00    +0.000 C 
ATOM     10  O   UNL     1       5.290   2.871  19.775  0.00  0.00    +0.000 OA
ATOM     11  C   UNL     1       2.570   2.567  20.191  0.00  0.00    +0.000 C 
ATOM     12  C   UNL     1       1.666   3.378  21.125  0.00  0.00    +0.000 C 
ATOM     13  O   UNL     1       0.706   4.163  20.404  0.00  0.00    +0.000 OA
BRANCH   6  15
ATOM     14  C   UNL     1       2.556   7.211  19.032  0.00  0.00    +0.000 C 
ATOM     15  C   UNL     1       2.095   6.188  20.058  0.00  0.00    +0.000 C 
ENDBRANCH   6  15
ENDBRANCH   1   9
BRANCH   4  16
ATOM     16  C   UNL     1       6.330   4.494  14.581  0.00  0.00    +0.000 A 
ATOM     17  C   UNL     1       5.644   3.617  13.729  0.00  0.00    +0.000 A 
ATOM     18  C   UNL     1       6.029   3.505  12.392  0.00  0.00    +0.000 A 
ATOM     19  C   UNL     1       7.100   4.255  11.905  0.00  0.00    +0.000 A 
ATOM     20  C   UNL     1       7.792   5.121  12.753  0.00  0.00    +0.000 A 
ATOM     21  C   UNL     1       7.408   5.245  14.089  0.00  0.00    +0.000 A 
ENDBRANCH   4  16
TORSDOF 3
ENDMDL
MODEL 8
REMARK VINA RESULT:      -7.3      3.544      7.517
REMARK  Name = 
REMARK  4 active torsions:
REMARK  status: ('A' for Active; 'I' for Inactive)
REMARK    1  A    between atoms: C_1  and  C_2
REMARK    2  A    between atoms: C_2  and  C_3
REMARK    3  A    between atoms: C_6  and  C_8
REMARK    4  A    between atoms: N_11  and  C_12
REMARK                            x       y       z     vdW  Elec       q    Type
REMARK                         _______ _______ _______ _____ _____    ______ ____
ROOT
ATOM      1  C   UNL     1       5.309   4.581  17.670  0.00  0.00    +0.000 A 
ATOM      2  C   UNL     1       5.687   5.924  17.481  0.00  0.00    +0.000 A 
ATOM      3  N   UNL     1       6.084   6.132  16.225  0.00  0.00    +0.000 NA
ATOM      4  N   UNL     1       5.971   4.891  15.683  0.00  0.00    +0.000 N 
ATOM      5  N   UNL     1       5.504   3.922  16.513  0.00  0.00    +0.000 NA
ENDROOT
BRANCH   1   9
ATOM      6  C   UNL     1       1.493   5.294  19.354  0.00  0.00    +0.000 C 
ATOM      7  C   UNL     1       2.396   4.454  18.430  0.00  0.00    +0.000 C 
ATOM      8  N   UNL     1       3.494   3.844  19.187  0.00  0.00    +0.000 N 
ATOM      9  C   UNL     1       4.859   3.978  18.930  0.00  0.00    +0.000 C 
ATOM     10  O   UNL     1       5.699   3.609  19.753  0.00  0.00    +0.000 OA
ATOM     11  C   UNL     1       3.048   3.095  20.360  0.00  0.00    +0.000 C 
ATOM     12  C   UNL     1       2.104   3.931  21.233  0.00  0.00    +0.000 C 
ATOM     13  O   UNL     1       1.036   4.511  20.472  0.00  0.00    +0.000 OA
BRANCH   6  15
ATOM     14  C   UNL     1       2.526   7.497  18.607  0.00  0.00    +0.000 C 
ATOM     15  C   UNL     1       2.185   6.599  19.787  0.00  0.00    +0.000 C 
ENDBRANCH   6  15
ENDBRANCH   1   9
BRANCH   4  16
ATOM     16  C   UNL     1       6.323   4.611  14.338  0.00  0.00    +0.000 A 
ATOM     17  C   UNL     1       7.408   5.270  13.744  0.00  0.00    +0.000 A 
ATOM     18  C   UNL     1       7.768   4.970  12.429  0.00  0.00    +0.000 A 
ATOM     19  C   UNL     1       7.043   4.027  11.702  0.00  0.00    +0.000 A 
ATOM     20  C   UNL     1       5.955   3.376  12.286  0.00  0.00    +0.000 A 
ATOM     21  C   UNL     1       5.594   3.664  13.603  0.00  0.00    +0.000 A 
ENDBRANCH   4  16
TORSDOF 3
ENDMDL
MODEL 9
REMARK VINA RESULT:      -7.2      0.838      1.034
REMARK  Name = 
REMARK  4 active torsions:
REMARK  status: ('A' for Active; 'I' for Inactive)
REMARK    1  A    between atoms: C_1  and  C_2
REMARK    2  A    between atoms: C_2  and  C_3
REMARK    3  A    between atoms: C_6  and  C_8
REMARK    4  A    between atoms: N_11  and  C_12
REMARK                            x       y       z     vdW  Elec       q    Type
REMARK                         _______ _______ _______ _____ _____    ______ ____
ROOT
ATOM      1  C   UNL     1       3.091   6.898  18.421  0.00  0.00    +0.000 A 
ATOM      2  C   UNL     1       3.049   7.787  17.331  0.00  0.00    +0.000 A 
ATOM      3  N   UNL     1       2.285   8.844  17.611  0.00  0.00    +0.000 NA
ATOM      4  N   UNL     1       1.848   8.552  18.864  0.00  0.00    +0.000 N 
ATOM      5  N   UNL     1       2.309   7.392  19.398  0.00  0.00    +0.000 NA
ENDROOT
BRANCH   1   9
ATOM      6  C   UNL     1       1.155   3.207  19.154  0.00  0.00    +0.000 C 
ATOM      7  C   UNL     1       1.641   4.270  18.150  0.00  0.00    +0.000 C 
ATOM      8  N   UNL     1       3.097   4.428  18.222  0.00  0.00    +0.000 N 
ATOM      9  C   UNL     1       3.797   5.611  18.461  0.00  0.00    +0.000 C 
ATOM     10  O   UNL     1       5.001   5.595  18.720  0.00  0.00    +0.000 OA
ATOM     11  C   UNL     1       3.828   3.167  18.095  0.00  0.00    +0.000 C 
ATOM     12  C   UNL     1       3.287   2.108  19.062  0.00  0.00    +0.000 C 
ATOM     13  O   UNL     1       1.863   1.967  18.970  0.00  0.00    +0.000 OA
BRANCH   6  15
ATOM     14  C   UNL     1       1.393   2.597  21.613  0.00  0.00    +0.000 C 
ATOM     15  C   UNL     1       1.228   3.722  20.603  0.00  0.00    +0.000 C 
ENDBRANCH   6  15
ENDBRANCH   1   9
BRANCH   4  16
ATOM     16  C   UNL     1       0.958   9.397  19.576  0.00  0.00    +0.000 A 
ATOM     17  C   UNL     1       0.183  10.340  18.889  0.00  0.00    +0.000 A 
ATOM     18  C   UNL     1      -0.712  11.149  19.592  0.00  0.00    +0.000 A 
ATOM     19  C   UNL     1      -0.826  11.029  20.977  0.00  0.00    +0.000 A 
ATOM     20  C   UNL     1      -0.048  10.098  21.666  0.00  0.00    +0.000 A 
ATOM     21  C   UNL     1       0.842   9.279  20.970  0.00  0.00    +0.000 A 
ENDBRANCH   4  16
TORSDOF 3
ENDMDL
