MODEL 1
REMARK VINA RESULT:      -8.9      0.000      0.000
REMARK  Name = 
REMARK  4 active torsions:
REMARK  status: ('A' for Active; 'I' for Inactive)
REMARK    1  A    between atoms: C_11  and  C_12
REMARK    2  A    between atoms: C_12  and  O_13
REMARK    3  A    between atoms: O_13  and  C_14
REMARK    4  A    between atoms: C_19  and  N_20
REMARK                            x       y       z     vdW  Elec       q    Type
REMARK                         _______ _______ _______ _____ _____    ______ ____
ROOT
ATOM      1  C   UNL     1       2.770   5.751  19.031  0.00  0.00    +0.000 C 
ENDROOT
BRANCH   1  12
ATOM      2  O   UNL     1       2.529  12.121  18.173  0.00  0.00    +0.000 OA
ATOM      3  C   UNL     1       1.392  12.157  18.645  0.00  0.00    +0.000 C 
ATOM      4  C   UNL     1       0.690  13.506  18.732  0.00  0.00    +0.000 C 
ATOM      5  C   UNL     1      -0.479  13.578  19.697  0.00  0.00    +0.000 C 
ATOM      6  C   UNL     1      -1.374  12.373  19.491  0.00  0.00    +0.000 C 
ATOM      7  C   UNL     1      -0.568  11.124  19.812  0.00  0.00    +0.000 C 
ATOM      8  N   UNL     1       0.673  11.041  19.047  0.00  0.00    +0.000 N 
ATOM      9  C   UNL     1       1.303   9.762  19.048  0.00  0.00    +0.000 A 
ATOM     10  C   UNL     1       1.947   9.295  17.906  0.00  0.00    +0.000 A 
ATOM     11  C   UNL     1       2.450   7.993  17.890  0.00  0.00    +0.000 A 
ATOM     12  C   UNL     1       2.337   7.192  19.025  0.00  0.00    +0.000 A 
ATOM     13  C   UNL     1       1.735   7.763  20.138  0.00  0.00    +0.000 A 
ATOM     14  N   UNL     1       1.171   8.994  20.155  0.00  0.00    +0.000 NA
ENDBRANCH   1  12
BRANCH   1  15
ATOM     15  O   UNL     1       4.042   5.588  19.657  0.00  0.00    +0.000 OA
BRANCH  15  16
ATOM     16  C   UNL     1       4.964   4.793  18.881  0.00  0.00    +0.000 C 
ATOM     17  C   UNL     1       6.405   5.330  18.998  0.00  0.00    +0.000 C 
ATOM     18  O   UNL     1       7.314   4.814  18.032  0.00  0.00    +0.000 OA
ATOM     19  C   UNL     1       6.871   4.841  16.785  0.00  0.00    +0.000 A 
ATOM     20  N   UNL     1       7.643   4.850  15.727  0.00  0.00    +0.000 NA
ATOM     21  C   UNL     1       6.768   4.792  14.660  0.00  0.00    +0.000 A 
ATOM     22  C   UNL     1       5.454   4.723  15.094  0.00  0.00    +0.000 A 
ATOM     23  N   UNL     1       5.549   4.787  16.455  0.00  0.00    +0.000 N 
ATOM     24  C   UNL     1       4.477   4.774  17.421  0.00  0.00    +0.000 C 
BRANCH  21  25
ATOM     25  N   UNL     1       7.243   4.788  13.295  0.00  0.00    +0.000 N 
ATOM     26  O   UNL     1       6.776   3.917  12.547  0.00  0.00    +0.000 OA
ATOM     27  O   UNL     1       8.070   5.652  12.965  0.00  0.00    +0.000 OA
ENDBRANCH  21  25
ENDBRANCH  15  16
ENDBRANCH   1  15
TORSDOF 4
ENDMDL
MODEL 2
REMARK VINA RESULT:      -8.5      1.052      1.653
REMARK  Name = 
REMARK  4 active torsions:
REMARK  status: ('A' for Active; 'I' for Inactive)
REMARK    1  A    between atoms: C_11  and  C_12
REMARK    2  A    between atoms: C_12  and  O_13
REMARK    3  A    between atoms: O_13  and  C_14
REMARK    4  A    between atoms: C_19  and  N_20
REMARK                            x       y       z     vdW  Elec       q    Type
REMARK                         _______ _______ _______ _____ _____    ______ ____
ROOT
ATOM      1  C   UNL     1       2.928   5.377  19.358  0.00  0.00    +0.000 C 
ENDROOT
BRANCH   1  12
ATOM      2  O   UNL     1      -0.935  10.476  20.029  0.00  0.00    +0.000 OA
ATOM      3  C   UNL     1      -0.077  11.210  19.537  0.00  0.00    +0.000 C 
ATOM      4  C   UNL     1      -0.390  12.694  19.399  0.00  0.00    +0.000 C 
ATOM      5  C   UNL     1       0.472  13.459  18.413  0.00  0.00    +0.000 C 
ATOM      6  C   UNL     1       1.927  13.104  18.637  0.00  0.00    +0.000 C 
ATOM      7  C   UNL     1       2.099  11.617  18.366  0.00  0.00    +0.000 C 
ATOM      8  N   UNL     1       1.190  10.791  19.155  0.00  0.00    +0.000 N 
ATOM      9  C   UNL     1       1.515   9.404  19.201  0.00  0.00    +0.000 A 
ATOM     10  C   UNL     1       1.309   8.672  20.367  0.00  0.00    +0.000 A 
ATOM     11  C   UNL     1       1.746   7.348  20.429  0.00  0.00    +0.000 A 
ATOM     12  C   UNL     1       2.347   6.763  19.316  0.00  0.00    +0.000 A 
ATOM     13  C   UNL     1       2.455   7.550  18.176  0.00  0.00    +0.000 A 
ATOM     14  N   UNL     1       2.110   8.857  18.115  0.00  0.00    +0.000 NA
ENDBRANCH   1  12
BRANCH   1  15
ATOM     15  O   UNL     1       4.281   5.388  19.812  0.00  0.00    +0.000 OA
BRANCH  15  16
ATOM     16  C   UNL     1       5.169   4.608  18.983  0.00  0.00    +0.000 C 
ATOM     17  C   UNL     1       6.611   5.149  19.042  0.00  0.00    +0.000 C 
ATOM     18  O   UNL     1       7.477   4.651  18.028  0.00  0.00    +0.000 OA
ATOM     19  C   UNL     1       6.977   4.694  16.803  0.00  0.00    +0.000 A 
ATOM     20  N   UNL     1       7.701   4.722  15.711  0.00  0.00    +0.000 NA
ATOM     21  C   UNL     1       6.777   4.675  14.684  0.00  0.00    +0.000 A 
ATOM     22  C   UNL     1       5.485   4.594  15.177  0.00  0.00    +0.000 A 
ATOM     23  N   UNL     1       5.642   4.639  16.533  0.00  0.00    +0.000 N 
ATOM     24  C   UNL     1       4.615   4.608  17.547  0.00  0.00    +0.000 C 
BRANCH  21  25
ATOM     25  N   UNL     1       7.190   4.692  13.299  0.00  0.00    +0.000 N 
ATOM     26  O   UNL     1       6.686   3.835  12.559  0.00  0.00    +0.000 OA
ATOM     27  O   UNL     1       8.004   5.560  12.946  0.00  0.00    +0.000 OA
ENDBRANCH  21  25
ENDBRANCH  15  16
ENDBRANCH   1  15
TORSDOF 4
ENDMDL
MODEL 3
REMARK VINA RESULT:      -8.5      1.250      1.480
REMARK  Name = 
REMARK  4 active torsions:
REMARK  status: ('A' for Active; 'I' for Inactive)
REMARK    1  A    between atoms: C_11  and  C_12
REMARK    2  A    between atoms: C_12  and  O_13
REMARK    3  A    between atoms: O_13  and  C_14
REMARK    4  A    between atoms: C_19  and  N_20
REMARK                            x       y       z     vdW  Elec       q    Type
REMARK                         _______ _______ _______ _____ _____    ______ ____
ROOT
ATOM      1  C   UNL     1       2.590   6.076  18.832  0.00  0.00    +0.000 C 
ENDROOT
BRANCH   1  12
ATOM      2  O   UNL     1       1.731  12.364  19.883  0.00  0.00    +0.000 OA
ATOM      3  C   UNL     1       0.807  12.123  20.662  0.00  0.00    +0.000 C 
ATOM      4  C   UNL     1       0.097  13.297  21.323  0.00  0.00    +0.000 C 
ATOM      5  C   UNL     1      -0.699  12.965  22.571  0.00  0.00    +0.000 C 
ATOM      6  C   UNL     1      -1.544  11.735  22.315  0.00  0.00    +0.000 C 
ATOM      7  C   UNL     1      -0.609  10.571  22.023  0.00  0.00    +0.000 C 
ATOM      8  N   UNL     1       0.320  10.853  20.933  0.00  0.00    +0.000 N 
ATOM      9  C   UNL     1       0.987   9.714  20.393  0.00  0.00    +0.000 A 
ATOM     10  C   UNL     1       1.252   9.636  19.029  0.00  0.00    +0.000 A 
ATOM     11  C   UNL     1       1.794   8.462  18.505  0.00  0.00    +0.000 A 
ATOM     12  C   UNL     1       2.099   7.399  19.353  0.00  0.00    +0.000 A 
ATOM     13  C   UNL     1       1.858   7.590  20.708  0.00  0.00    +0.000 A 
ATOM     14  N   UNL     1       1.263   8.687  21.231  0.00  0.00    +0.000 NA
ENDBRANCH   1  12
BRANCH   1  15
ATOM     15  O   UNL     1       3.672   5.573  19.614  0.00  0.00    +0.000 OA
BRANCH  15  16
ATOM     16  C   UNL     1       4.588   4.749  18.862  0.00  0.00    +0.000 C 
ATOM     17  C   UNL     1       6.054   5.110  19.173  0.00  0.00    +0.000 C 
ATOM     18  O   UNL     1       7.006   4.580  18.258  0.00  0.00    +0.000 OA
ATOM     19  C   UNL     1       6.707   4.761  16.981  0.00  0.00    +0.000 A 
ATOM     20  N   UNL     1       7.588   4.773  16.011  0.00  0.00    +0.000 NA
ATOM     21  C   UNL     1       6.833   4.903  14.861  0.00  0.00    +0.000 A 
ATOM     22  C   UNL     1       5.479   4.944  15.154  0.00  0.00    +0.000 A 
ATOM     23  N   UNL     1       5.431   4.882  16.518  0.00  0.00    +0.000 N 
ATOM     24  C   UNL     1       4.264   4.907  17.366  0.00  0.00    +0.000 C 
BRANCH  21  25
ATOM     25  N   UNL     1       7.452   4.961  13.557  0.00  0.00    +0.000 N 
ATOM     26  O   UNL     1       8.421   5.724  13.434  0.00  0.00    +0.000 OA
ATOM     27  O   UNL     1       6.982   4.244  12.658  0.00  0.00    +0.000 OA
ENDBRANCH  21  25
ENDBRANCH  15  16
ENDBRANCH   1  15
TORSDOF 4
ENDMDL
MODEL 4
REMARK VINA RESULT:      -8.1      1.569      2.038
REMARK  Name = 
REMARK  4 active torsions:
REMARK  status: ('A' for Active; 'I' for Inactive)
REMARK    1  A    between atoms: C_11  and  C_12
REMARK    2  A    between atoms: C_12  and  O_13
REMARK    3  A    between atoms: O_13  and  C_14
REMARK    4  A    between atoms: C_19  and  N_20
REMARK                            x       y       z     vdW  Elec       q    Type
REMARK                         _______ _______ _______ _____ _____    ______ ____
ROOT
ATOM      1  C   UNL     1       2.808   5.517  18.186  0.00  0.00    +0.000 C 
ENDROOT
BRANCH   1  12
ATOM      2  O   UNL     1      -0.670   9.349  22.007  0.00  0.00    +0.000 OA
ATOM      3  C   UNL     1      -0.114  10.344  21.540  0.00  0.00    +0.000 C 
ATOM      4  C   UNL     1      -0.518  11.712  22.074  0.00  0.00    +0.000 C 
ATOM      5  C   UNL     1      -0.159  12.894  21.193  0.00  0.00    +0.000 C 
ATOM      6  C   UNL     1       1.277  12.757  20.732  0.00  0.00    +0.000 C 
ATOM      7  C   UNL     1       1.388  11.490  19.897  0.00  0.00    +0.000 C 
ATOM      8  N   UNL     1       0.908  10.306  20.603  0.00  0.00    +0.000 N 
ATOM      9  C   UNL     1       1.282   9.059  20.022  0.00  0.00    +0.000 A 
ATOM     10  C   UNL     1       1.594   7.971  20.833  0.00  0.00    +0.000 A 
ATOM     11  C   UNL     1       2.075   6.798  20.248  0.00  0.00    +0.000 A 
ATOM     12  C   UNL     1       2.201   6.716  18.862  0.00  0.00    +0.000 A 
ATOM     13  C   UNL     1       1.809   7.829  18.130  0.00  0.00    +0.000 A 
ATOM     14  N   UNL     1       1.413   9.003  18.676  0.00  0.00    +0.000 NA
ENDBRANCH   1  12
BRANCH   1  15
ATOM     15  O   UNL     1       3.757   4.864  19.028  0.00  0.00    +0.000 OA
BRANCH  15  16
ATOM     16  C   UNL     1       4.861   4.282  18.303  0.00  0.00    +0.000 C 
ATOM     17  C   UNL     1       6.161   5.082  18.523  0.00  0.00    +0.000 C 
ATOM     18  O   UNL     1       7.211   4.777  17.612  0.00  0.00    +0.000 OA
ATOM     19  C   UNL     1       6.848   4.753  16.338  0.00  0.00    +0.000 A 
ATOM     20  N   UNL     1       7.669   4.939  15.334  0.00  0.00    +0.000 NA
ATOM     21  C   UNL     1       6.889   4.744  14.210  0.00  0.00    +0.000 A 
ATOM     22  C   UNL     1       5.588   4.412  14.556  0.00  0.00    +0.000 A 
ATOM     23  N   UNL     1       5.585   4.455  15.921  0.00  0.00    +0.000 N 
ATOM     24  C   UNL     1       4.478   4.210  16.814  0.00  0.00    +0.000 C 
BRANCH  21  25
ATOM     25  N   UNL     1       7.439   4.868  12.880  0.00  0.00    +0.000 N 
ATOM     26  O   UNL     1       7.076   4.025  12.047  0.00  0.00    +0.000 OA
ATOM     27  O   UNL     1       8.222   5.806  12.661  0.00  0.00    +0.000 OA
ENDBRANCH  21  25
ENDBRANCH  15  16
ENDBRANCH   1  15
TORSDOF 4
ENDMDL
MODEL 5
REMARK VINA RESULT:      -8.1      1.120      1.350
REMARK  Name = 
REMARK  4 active torsions:
REMARK  status: ('A' for Active; 'I' for Inactive)
REMARK    1  A    between atoms: C_11  and  C_12
REMARK    2  A    between atoms: C_12  and  O_13
REMARK    3  A    between atoms: O_13  and  C_14
REMARK    4  A    between atoms: C_19  and  N_20
REMARK                            x       y       z     vdW  Elec       q    Type
REMARK                         _______ _______ _______ _____ _____    ______ ____
ROOT
ATOM      1  C   UNL     1       2.423   5.724  20.481  0.00  0.00    +0.000 C 
ENDROOT
BRANCH   1  12
ATOM      2  O   UNL     1       2.260  11.774  18.303  0.00  0.00    +0.000 OA
ATOM      3  C   UNL     1       1.084  11.884  18.652  0.00  0.00    +0.000 C 
ATOM      4  C   UNL     1       0.376  13.208  18.393  0.00  0.00    +0.000 C 
ATOM      5  C   UNL     1      -0.877  13.454  19.213  0.00  0.00    +0.000 C 
ATOM      6  C   UNL     1      -1.749  12.216  19.181  0.00  0.00    +0.000 C 
ATOM      7  C   UNL     1      -0.975  11.076  19.826  0.00  0.00    +0.000 C 
ATOM      8  N   UNL     1       0.331  10.861  19.210  0.00  0.00    +0.000 N 
ATOM      9  C   UNL     1       0.959   9.623  19.533  0.00  0.00    +0.000 A 
ATOM     10  C   UNL     1       1.706   8.942  18.576  0.00  0.00    +0.000 A 
ATOM     11  C   UNL     1       2.209   7.675  18.875  0.00  0.00    +0.000 A 
ATOM     12  C   UNL     1       1.993   7.124  20.137  0.00  0.00    +0.000 A 
ATOM     13  C   UNL     1       1.289   7.901  21.049  0.00  0.00    +0.000 A 
ATOM     14  N   UNL     1       0.726   9.097  20.759  0.00  0.00    +0.000 NA
ENDBRANCH   1  12
BRANCH   1  15
ATOM     15  O   UNL     1       2.039   4.794  19.469  0.00  0.00    +0.000 OA
BRANCH  15  16
ATOM     16  C   UNL     1       3.152   4.064  18.910  0.00  0.00    +0.000 C 
ATOM     17  C   UNL     1       4.489   4.516  19.531  0.00  0.00    +0.000 C 
ATOM     18  O   UNL     1       5.649   4.087  18.827  0.00  0.00    +0.000 OA
ATOM     19  C   UNL     1       5.611   4.293  17.520  0.00  0.00    +0.000 A 
ATOM     20  N   UNL     1       6.671   4.403  16.758  0.00  0.00    +0.000 NA
ATOM     21  C   UNL     1       6.166   4.522  15.477  0.00  0.00    +0.000 A 
ATOM     22  C   UNL     1       4.781   4.457  15.479  0.00  0.00    +0.000 A 
ATOM     23  N   UNL     1       4.454   4.342  16.800  0.00  0.00    +0.000 N 
ATOM     24  C   UNL     1       3.137   4.253  17.383  0.00  0.00    +0.000 C 
BRANCH  21  25
ATOM     25  N   UNL     1       7.037   4.670  14.335  0.00  0.00    +0.000 N 
ATOM     26  O   UNL     1       7.949   5.503  14.436  0.00  0.00    +0.000 OA
ATOM     27  O   UNL     1       6.821   3.956  13.342  0.00  0.00    +0.000 OA
ENDBRANCH  21  25
ENDBRANCH  15  16
ENDBRANCH   1  15
TORSDOF 4
ENDMDL
MODEL 6
REMARK VINA RESULT:      -8.1      3.030      4.041
REMARK  Name = 
REMARK  4 active torsions:
REMARK  status: ('A' for Active; 'I' for Inactive)
REMARK    1  A    between atoms: C_11  and  C_12
REMARK    2  A    between atoms: C_12  and  O_13
REMARK    3  A    between atoms: O_13  and  C_14
REMARK    4  A    between atoms: C_19  and  N_20
REMARK                            x       y       z     vdW  Elec       q    Type
REMARK                         _______ _______ _______ _____ _____    ______ ____
ROOT
ATOM      1  C   UNL     1       1.297   8.047  21.039  0.00  0.00    +0.000 C 
ENDROOT
BRANCH   1  12
ATOM      2  O   UNL     1       0.118  14.118  22.808  0.00  0.00    +0.000 OA
ATOM      3  C   UNL     1      -1.025  13.812  23.151  0.00  0.00    +0.000 C 
ATOM      4  C   UNL     1      -1.926  14.904  23.712  0.00  0.00    +0.000 C 
ATOM      5  C   UNL     1      -3.120  14.423  24.515  0.00  0.00    +0.000 C 
ATOM      6  C   UNL     1      -3.815  13.309  23.762  0.00  0.00    +0.000 C 
ATOM      7  C   UNL     1      -2.839  12.151  23.621  0.00  0.00    +0.000 C 
ATOM      8  N   UNL     1      -1.578  12.548  23.002  0.00  0.00    +0.000 N 
ATOM      9  C   UNL     1      -0.761  11.474  22.543  0.00  0.00    +0.000 A 
ATOM     10  C   UNL     1      -0.021  11.604  21.372  0.00  0.00    +0.000 A 
ATOM     11  C   UNL     1       0.674  10.500  20.876  0.00  0.00    +0.000 A 
ATOM     12  C   UNL     1       0.651   9.295  21.576  0.00  0.00    +0.000 A 
ATOM     13  C   UNL     1      -0.064   9.275  22.767  0.00  0.00    +0.000 A 
ATOM     14  N   UNL     1      -0.808  10.307  23.229  0.00  0.00    +0.000 NA
ENDBRANCH   1  12
BRANCH   1  15
ATOM     15  O   UNL     1       1.951   8.289  19.794  0.00  0.00    +0.000 OA
BRANCH  15  16
ATOM     16  C   UNL     1       2.195   7.088  19.032  0.00  0.00    +0.000 C 
ATOM     17  C   UNL     1       2.677   5.937  19.937  0.00  0.00    +0.000 C 
ATOM     18  O   UNL     1       3.238   4.827  19.245  0.00  0.00    +0.000 OA
ATOM     19  C   UNL     1       4.134   5.146  18.324  0.00  0.00    +0.000 A 
ATOM     20  N   UNL     1       5.073   4.339  17.896  0.00  0.00    +0.000 NA
ATOM     21  C   UNL     1       5.708   5.047  16.894  0.00  0.00    +0.000 A 
ATOM     22  C   UNL     1       5.119   6.288  16.709  0.00  0.00    +0.000 A 
ATOM     23  N   UNL     1       4.137   6.336  17.657  0.00  0.00    +0.000 N 
ATOM     24  C   UNL     1       3.217   7.414  17.928  0.00  0.00    +0.000 C 
BRANCH  21  25
ATOM     25  N   UNL     1       6.824   4.488  16.167  0.00  0.00    +0.000 N 
ATOM     26  O   UNL     1       6.595   4.098  15.012  0.00  0.00    +0.000 OA
ATOM     27  O   UNL     1       7.926   4.442  16.736  0.00  0.00    +0.000 OA
ENDBRANCH  21  25
ENDBRANCH  15  16
ENDBRANCH   1  15
TORSDOF 4
ENDMDL
MODEL 7
REMARK VINA RESULT:      -8.0      2.991      4.095
REMARK  Name = 
REMARK  4 active torsions:
REMARK  status: ('A' for Active; 'I' for Inactive)
REMARK    1  A    between atoms: C_11  and  C_12
REMARK    2  A    between atoms: C_12  and  O_13
REMARK    3  A    between atoms: O_13  and  C_14
REMARK    4  A    between atoms: C_19  and  N_20
REMARK                            x       y       z     vdW  Elec       q    Type
REMARK                         _______ _______ _______ _____ _____    ______ ____
ROOT
ATOM      1  C   UNL     1       1.215   7.778  20.959  0.00  0.00    +0.000 C 
ENDROOT
BRANCH   1  12
ATOM      2  O   UNL     1      -3.178  11.709  23.532  0.00  0.00    +0.000 OA
ATOM      3  C   UNL     1      -2.445  12.680  23.336  0.00  0.00    +0.000 C 
ATOM      4  C   UNL     1      -2.941  14.055  23.765  0.00  0.00    +0.000 C 
ATOM      5  C   UNL     1      -2.239  15.236  23.123  0.00  0.00    +0.000 C 
ATOM      6  C   UNL     1      -0.741  15.021  23.180  0.00  0.00    +0.000 C 
ATOM      7  C   UNL     1      -0.410  13.776  22.372  0.00  0.00    +0.000 C 
ATOM      8  N   UNL     1      -1.164  12.604  22.809  0.00  0.00    +0.000 N 
ATOM      9  C   UNL     1      -0.674  11.354  22.331  0.00  0.00    +0.000 A 
ATOM     10  C   UNL     1      -0.719  10.224  23.143  0.00  0.00    +0.000 A 
ATOM     11  C   UNL     1      -0.124   9.041  22.702  0.00  0.00    +0.000 A 
ATOM     12  C   UNL     1       0.472   8.992  21.443  0.00  0.00    +0.000 A 
ATOM     13  C   UNL     1       0.415  10.150  20.677  0.00  0.00    +0.000 A 
ATOM     14  N   UNL     1      -0.087  11.329  21.111  0.00  0.00    +0.000 NA
ENDBRANCH   1  12
BRANCH   1  15
ATOM     15  O   UNL     1       2.122   8.103  19.906  0.00  0.00    +0.000 OA
BRANCH  15  16
ATOM     16  C   UNL     1       2.259   7.055  18.923  0.00  0.00    +0.000 C 
ATOM     17  C   UNL     1       2.737   5.739  19.569  0.00  0.00    +0.000 C 
ATOM     18  O   UNL     1       3.199   4.756  18.649  0.00  0.00    +0.000 OA
ATOM     19  C   UNL     1       4.052   5.206  17.741  0.00  0.00    +0.000 A 
ATOM     20  N   UNL     1       4.921   4.456  17.110  0.00  0.00    +0.000 NA
ATOM     21  C   UNL     1       5.529   5.313  16.212  0.00  0.00    +0.000 A 
ATOM     22  C   UNL     1       4.992   6.588  16.297  0.00  0.00    +0.000 A 
ATOM     23  N   UNL     1       4.073   6.497  17.303  0.00  0.00    +0.000 N 
ATOM     24  C   UNL     1       3.227   7.541  17.829  0.00  0.00    +0.000 C 
BRANCH  21  25
ATOM     25  N   UNL     1       6.568   4.856  15.318  0.00  0.00    +0.000 N 
ATOM     26  O   UNL     1       7.560   5.589  15.199  0.00  0.00    +0.000 OA
ATOM     27  O   UNL     1       6.403   3.768  14.744  0.00  0.00    +0.000 OA
ENDBRANCH  21  25
ENDBRANCH  15  16
ENDBRANCH   1  15
TORSDOF 4
ENDMDL
MODEL 8
REMARK VINA RESULT:      -8.0      2.930      4.279
REMARK  Name = 
REMARK  4 active torsions:
REMARK  status: ('A' for Active; 'I' for Inactive)
REMARK    1  A    between atoms: C_11  and  C_12
REMARK    2  A    between atoms: C_12  and  O_13
REMARK    3  A    between atoms: O_13  and  C_14
REMARK    4  A    between atoms: C_19  and  N_20
REMARK                            x       y       z     vdW  Elec       q    Type
REMARK                         _______ _______ _______ _____ _____    ______ ____
ROOT
ATOM      1  C   UNL     1       1.594   9.775  18.562  0.00  0.00    +0.000 C 
ENDROOT
BRANCH   1  12
ATOM      2  O   UNL     1      -4.124  11.399  16.106  0.00  0.00    +0.000 OA
ATOM      3  C   UNL     1      -4.517  11.759  17.217  0.00  0.00    +0.000 C 
ATOM      4  C   UNL     1      -5.935  12.298  17.340  0.00  0.00    +0.000 C 
ATOM      5  C   UNL     1      -6.219  13.123  18.582  0.00  0.00    +0.000 C 
ATOM      6  C   UNL     1      -5.672  12.403  19.797  0.00  0.00    +0.000 C 
ATOM      7  C   UNL     1      -4.164  12.285  19.639  0.00  0.00    +0.000 C 
ATOM      8  N   UNL     1      -3.777  11.646  18.385  0.00  0.00    +0.000 N 
ATOM      9  C   UNL     1      -2.422  11.208  18.319  0.00  0.00    +0.000 A 
ATOM     10  C   UNL     1      -2.096  10.028  17.657  0.00  0.00    +0.000 A 
ATOM     11  C   UNL     1      -0.784   9.555  17.709  0.00  0.00    +0.000 A 
ATOM     12  C   UNL     1       0.190  10.285  18.388  0.00  0.00    +0.000 A 
ATOM     13  C   UNL     1      -0.214  11.482  18.967  0.00  0.00    +0.000 A 
ATOM     14  N   UNL     1      -1.493  11.923  18.996  0.00  0.00    +0.000 NA
ENDBRANCH   1  12
BRANCH   1  15
ATOM     15  O   UNL     1       1.631   8.613  19.391  0.00  0.00    +0.000 OA
BRANCH  15  16
ATOM     16  C   UNL     1       2.043   7.421  18.690  0.00  0.00    +0.000 C 
ATOM     17  C   UNL     1       2.485   6.317  19.670  0.00  0.00    +0.000 C 
ATOM     18  O   UNL     1       3.197   5.239  19.073  0.00  0.00    +0.000 OA
ATOM     19  C   UNL     1       4.176   5.605  18.260  0.00  0.00    +0.000 A 
ATOM     20  N   UNL     1       5.210   4.857  17.965  0.00  0.00    +0.000 NA
ATOM     21  C   UNL     1       5.914   5.594  17.032  0.00  0.00    +0.000 A 
ATOM     22  C   UNL     1       5.273   6.790  16.752  0.00  0.00    +0.000 A 
ATOM     23  N   UNL     1       4.181   6.783  17.573  0.00  0.00    +0.000 N 
ATOM     24  C   UNL     1       3.168   7.801  17.710  0.00  0.00    +0.000 C 
BRANCH  21  25
ATOM     25  N   UNL     1       7.143   5.100  16.455  0.00  0.00    +0.000 N 
ATOM     26  O   UNL     1       7.390   5.448  15.291  0.00  0.00    +0.000 OA
ATOM     27  O   UNL     1       7.866   4.376  17.158  0.00  0.00    +0.000 OA
ENDBRANCH  21  25
ENDBRANCH  15  16
ENDBRANCH   1  15
TORSDOF 4
ENDMDL
MODEL 9
REMARK VINA RESULT:      -7.9      1.427      1.989
REMARK  Name = 
REMARK  4 active torsions:
REMARK  status: ('A' for Active; 'I' for Inactive)
REMARK    1  A    between atoms: C_11  and  C_12
REMARK    2  A    between atoms: C_12  and  O_13
REMARK    3  A    between atoms: O_13  and  C_14
REMARK    4  A    between atoms: C_19  and  N_20
REMARK                            x       y       z     vdW  Elec       q    Type
REMARK                         _______ _______ _______ _____ _____    ______ ____
ROOT
ATOM      1  C   UNL     1       3.107   4.753  19.474  0.00  0.00    +0.000 C 
ENDROOT
BRANCH   1  12
ATOM      2  O   UNL     1      -0.848   9.731  20.450  0.00  0.00    +0.000 OA
ATOM      3  C   UNL     1      -0.087  10.476  19.831  0.00  0.00    +0.000 C 
ATOM      4  C   UNL     1      -0.474  11.942  19.685  0.00  0.00    +0.000 C 
ATOM      5  C   UNL     1       0.229  12.700  18.575  0.00  0.00    +0.000 C 
ATOM      6  C   UNL     1       1.714  12.406  18.630  0.00  0.00    +0.000 C 
ATOM      7  C   UNL     1       1.911  10.918  18.388  0.00  0.00    +0.000 C 
ATOM      8  N   UNL     1       1.139  10.090  19.309  0.00  0.00    +0.000 N 
ATOM      9  C   UNL     1       1.523   8.718  19.361  0.00  0.00    +0.000 A 
ATOM     10  C   UNL     1       1.491   8.023  20.566  0.00  0.00    +0.000 A 
ATOM     11  C   UNL     1       1.986   6.719  20.617  0.00  0.00    +0.000 A 
ATOM     12  C   UNL     1       2.470   6.115  19.458  0.00  0.00    +0.000 A 
ATOM     13  C   UNL     1       2.406   6.862  18.289  0.00  0.00    +0.000 A 
ATOM     14  N   UNL     1       2.003   8.153  18.228  0.00  0.00    +0.000 NA
ENDBRANCH   1  12
BRANCH   1  15
ATOM     15  O   UNL     1       3.185   4.195  18.162  0.00  0.00    +0.000 OA
BRANCH  15  16
ATOM     16  C   UNL     1       4.540   3.966  17.718  0.00  0.00    +0.000 C 
ATOM     17  C   UNL     1       5.473   5.117  18.141  0.00  0.00    +0.000 C 
ATOM     18  O   UNL     1       6.735   5.134  17.485  0.00  0.00    +0.000 OA
ATOM     19  C   UNL     1       6.677   4.996  16.169  0.00  0.00    +0.000 A 
ATOM     20  N   UNL     1       7.603   5.413  15.341  0.00  0.00    +0.000 NA
ATOM     21  C   UNL     1       7.172   4.988  14.099  0.00  0.00    +0.000 A 
ATOM     22  C   UNL     1       5.982   4.285  14.196  0.00  0.00    +0.000 A 
ATOM     23  N   UNL     1       5.674   4.333  15.526  0.00  0.00    +0.000 N 
ATOM     24  C   UNL     1       4.522   3.774  16.190  0.00  0.00    +0.000 C 
BRANCH  21  25
ATOM     25  N   UNL     1       7.934   5.264  12.903  0.00  0.00    +0.000 N 
ATOM     26  O   UNL     1       7.545   4.721  11.859  0.00  0.00    +0.000 OA
ATOM     27  O   UNL     1       8.911   6.024  12.998  0.00  0.00    +0.000 OA
ENDBRANCH  21  25
ENDBRANCH  15  16
ENDBRANCH   1  15
TORSDOF 4
ENDMDL
