MODEL 1
REMARK VINA RESULT:      -7.5      0.000      0.000
REMARK  Name = 
REMARK  8 active torsions:
REMARK  status: ('A' for Active; 'I' for Inactive)
REMARK    1  A    between atoms: C_2  and  C_3
REMARK    2  A    between atoms: C_6  and  O_7
REMARK    3  A    between atoms: O_7  and  C_8
REMARK    4  A    between atoms: C_8  and  C_9
REMARK    5  A    between atoms: C_9  and  O_10
REMARK    6  A    between atoms: C_9  and  C_11
REMARK    7  A    between atoms: C_11  and  N_12
REMARK    8  A    between atoms: C_15  and  C_16
REMARK                            x       y       z     vdW  Elec       q    Type
REMARK                         _______ _______ _______ _____ _____    ______ ____
ROOT
ATOM      1  C   UNL     1       7.361   5.317  17.774  0.00  0.00    +0.000 C 
ENDROOT
BRANCH   1   2
ATOM      2  O   UNL     1       7.808   6.295  18.732  0.00  0.00    +0.000 OA
ATOM      3  H   UNL     1       8.422   6.901  18.284  0.00  0.00    +0.000 HD
ENDBRANCH   1   2
BRANCH   1   4
ATOM      4  C   UNL     1       6.914   6.025  16.494  0.00  0.00    +0.000 C 
BRANCH   4   5
ATOM      5  O   UNL     1       7.686   5.471  15.424  0.00  0.00    +0.000 OA
BRANCH   5   9
ATOM      6  C   UNL     1       5.321   3.739  12.495  0.00  0.00    +0.000 A 
ATOM      7  C   UNL     1       4.834   3.977  13.783  0.00  0.00    +0.000 A 
ATOM      8  C   UNL     1       5.672   4.542  14.743  0.00  0.00    +0.000 A 
ATOM      9  C   UNL     1       6.995   4.856  14.428  0.00  0.00    +0.000 A 
ATOM     10  C   UNL     1       7.489   4.598  13.151  0.00  0.00    +0.000 A 
ATOM     11  C   UNL     1       6.650   4.040  12.184  0.00  0.00    +0.000 A 
BRANCH   6  13
ATOM     12  N   UNL     1       3.754   2.752  10.674  0.00  0.00    +0.000 NA
ATOM     13  C   UNL     1       4.458   3.197  11.495  0.00  0.00    +0.000 C 
ENDBRANCH   6  13
ENDBRANCH   5   9
ENDBRANCH   4   5
ENDBRANCH   1   4
BRANCH   1  14
ATOM     14  C   UNL     1       6.229   4.473  18.398  0.00  0.00    +0.000 C 
BRANCH  14  15
ATOM     15  N   UNL     1       4.844   4.807  17.986  0.00  0.00    +0.000 NA
ATOM     16  C   UNL     1       4.054   3.588  17.742  0.00  0.00    +0.000 C 
ATOM     17  C   UNL     1       2.572   3.857  17.480  0.00  0.00    +0.000 C 
ATOM     18  C   UNL     1       1.940   4.671  18.612  0.00  0.00    +0.000 C 
ATOM     19  C   UNL     1       2.749   5.963  18.771  0.00  0.00    +0.000 C 
ATOM     20  C   UNL     1       4.242   5.699  18.993  0.00  0.00    +0.000 C 
BRANCH  18  21
ATOM     21  C   UNL     1       1.817   3.882  19.895  0.00  0.00    +0.000 A 
ATOM     22  C   UNL     1       1.226   2.673  20.214  0.00  0.00    +0.000 A 
ATOM     23  C   UNL     1       1.456   2.493  21.587  0.00  0.00    +0.000 A 
ATOM     24  N   UNL     1       2.146   3.502  22.116  0.00  0.00    +0.000 NA
ATOM     25  N   UNL     1       2.354   4.328  21.078  0.00  0.00    +0.000 N 
ATOM     26  H   UNL     1       2.860   5.190  21.250  0.00  0.00    +0.000 HD
ENDBRANCH  18  21
ENDBRANCH  14  15
ENDBRANCH   1  14
TORSDOF 8
ENDMDL
MODEL 2
REMARK VINA RESULT:      -7.2      0.585      1.141
REMARK  Name = 
REMARK  8 active torsions:
REMARK  status: ('A' for Active; 'I' for Inactive)
REMARK    1  A    between atoms: C_2  and  C_3
REMARK    2  A    between atoms: C_6  and  O_7
REMARK    3  A    between atoms: O_7  and  C_8
REMARK    4  A    between atoms: C_8  and  C_9
REMARK    5  A    between atoms: C_9  and  O_10
REMARK    6  A    between atoms: C_9  and  C_11
REMARK    7  A    between atoms: C_11  and  N_12
REMARK    8  A    between atoms: C_15  and  C_16
REMARK                            x       y       z     vdW  Elec       q    Type
REMARK                         _______ _______ _______ _____ _____    ______ ____
ROOT
ATOM      1  C   UNL     1       7.360   5.322  17.936  0.00  0.00    +0.000 C 
ENDROOT
BRANCH   1   2
ATOM      2  O   UNL     1       8.078   5.992  18.989  0.00  0.00    +0.000 OA
ATOM      3  H   UNL     1       7.513   6.007  19.780  0.00  0.00    +0.000 HD
ENDBRANCH   1   2
BRANCH   1   4
ATOM      4  C   UNL     1       6.873   6.352  16.916  0.00  0.00    +0.000 C 
BRANCH   4   5
ATOM      5  O   UNL     1       7.592   6.105  15.704  0.00  0.00    +0.000 OA
BRANCH   5   9
ATOM      6  C   UNL     1       6.000   3.587  12.822  0.00  0.00    +0.000 A 
ATOM      7  C   UNL     1       7.269   4.154  12.679  0.00  0.00    +0.000 A 
ATOM      8  C   UNL     1       7.756   5.012  13.663  0.00  0.00    +0.000 A 
ATOM      9  C   UNL     1       6.977   5.319  14.780  0.00  0.00    +0.000 A 
ATOM     10  C   UNL     1       5.701   4.774  14.912  0.00  0.00    +0.000 A 
ATOM     11  C   UNL     1       5.214   3.907  13.933  0.00  0.00    +0.000 A 
BRANCH   6  13
ATOM     12  N   UNL     1       5.106   1.932  11.031  0.00  0.00    +0.000 NA
ATOM     13  C   UNL     1       5.509   2.677  11.838  0.00  0.00    +0.000 C 
ENDBRANCH   6  13
ENDBRANCH   5   9
ENDBRANCH   4   5
ENDBRANCH   1   4
BRANCH   1  14
ATOM     14  C   UNL     1       6.196   4.512  18.547  0.00  0.00    +0.000 C 
BRANCH  14  15
ATOM     15  N   UNL     1       4.824   4.947  18.191  0.00  0.00    +0.000 NA
ATOM     16  C   UNL     1       3.976   3.795  17.841  0.00  0.00    +0.000 C 
ATOM     17  C   UNL     1       2.505   4.154  17.630  0.00  0.00    +0.000 C 
ATOM     18  C   UNL     1       1.924   4.879  18.846  0.00  0.00    +0.000 C 
ATOM     19  C   UNL     1       2.792   6.112  19.120  0.00  0.00    +0.000 C 
ATOM     20  C   UNL     1       4.274   5.760  19.291  0.00  0.00    +0.000 C 
BRANCH  18  21
ATOM     21  C   UNL     1       1.779   3.972  20.047  0.00  0.00    +0.000 A 
ATOM     22  C   UNL     1       1.066   2.811  20.279  0.00  0.00    +0.000 A 
ATOM     23  C   UNL     1       1.349   2.456  21.608  0.00  0.00    +0.000 A 
ATOM     24  N   UNL     1       2.184   3.316  22.190  0.00  0.00    +0.000 NA
ATOM     25  N   UNL     1       2.431   4.222  21.230  0.00  0.00    +0.000 N 
ATOM     26  H   UNL     1       3.045   4.998  21.455  0.00  0.00    +0.000 HD
ENDBRANCH  18  21
ENDBRANCH  14  15
ENDBRANCH   1  14
TORSDOF 8
ENDMDL
MODEL 3
REMARK VINA RESULT:      -6.9      1.475      1.914
REMARK  Name = 
REMARK  8 active torsions:
REMARK  status: ('A' for Active; 'I' for Inactive)
REMARK    1  A    between atoms: C_2  and  C_3
REMARK    2  A    between atoms: C_6  and  O_7
REMARK    3  A    between atoms: O_7  and  C_8
REMARK    4  A    between atoms: C_8  and  C_9
REMARK    5  A    between atoms: C_9  and  O_10
REMARK    6  A    between atoms: C_9  and  C_11
REMARK    7  A    between atoms: C_11  and  N_12
REMARK    8  A    between atoms: C_15  and  C_16
REMARK                            x       y       z     vdW  Elec       q    Type
REMARK                         _______ _______ _______ _____ _____    ______ ____
ROOT
ATOM      1  C   UNL     1       5.991   6.620  16.902  0.00  0.00    +0.000 C 
ENDROOT
BRANCH   1   2
ATOM      2  O   UNL     1       5.176   7.039  15.791  0.00  0.00    +0.000 OA
ATOM      3  H   UNL     1       5.556   6.666  14.978  0.00  0.00    +0.000 HD
ENDBRANCH   1   2
BRANCH   1   4
ATOM      4  C   UNL     1       7.079   5.667  16.406  0.00  0.00    +0.000 C 
BRANCH   4   5
ATOM      5  O   UNL     1       7.262   5.937  15.013  0.00  0.00    +0.000 OA
BRANCH   5   9
ATOM      6  C   UNL     1       6.433   2.939  12.273  0.00  0.00    +0.000 A 
ATOM      7  C   UNL     1       7.355   3.951  11.994  0.00  0.00    +0.000 A 
ATOM      8  C   UNL     1       7.587   4.952  12.937  0.00  0.00    +0.000 A 
ATOM      9  C   UNL     1       6.892   4.955  14.148  0.00  0.00    +0.000 A 
ATOM     10  C   UNL     1       5.954   3.960  14.417  0.00  0.00    +0.000 A 
ATOM     11  C   UNL     1       5.726   2.952  13.479  0.00  0.00    +0.000 A 
BRANCH   6  13
ATOM     12  N   UNL     1       6.040   1.029  10.558  0.00  0.00    +0.000 NA
ATOM     13  C   UNL     1       6.218   1.890  11.330  0.00  0.00    +0.000 C 
ENDBRANCH   6  13
ENDBRANCH   5   9
ENDBRANCH   4   5
ENDBRANCH   1   4
BRANCH   1  14
ATOM     14  C   UNL     1       5.092   5.970  17.976  0.00  0.00    +0.000 C 
BRANCH  14  15
ATOM     15  N   UNL     1       4.115   4.959  17.504  0.00  0.00    +0.000 NA
ATOM     16  C   UNL     1       4.466   3.613  17.989  0.00  0.00    +0.000 C 
ATOM     17  C   UNL     1       3.408   2.553  17.682  0.00  0.00    +0.000 C 
ATOM     18  C   UNL     1       2.034   2.959  18.218  0.00  0.00    +0.000 C 
ATOM     19  C   UNL     1       1.680   4.325  17.622  0.00  0.00    +0.000 C 
ATOM     20  C   UNL     1       2.757   5.381  17.893  0.00  0.00    +0.000 C 
BRANCH  18  21
ATOM     21  C   UNL     1       1.969   2.931  19.728  0.00  0.00    +0.000 A 
ATOM     22  C   UNL     1       1.026   3.353  20.646  0.00  0.00    +0.000 A 
ATOM     23  C   UNL     1       1.564   3.048  21.906  0.00  0.00    +0.000 A 
ATOM     24  N   UNL     1       2.760   2.468  21.813  0.00  0.00    +0.000 NA
ATOM     25  N   UNL     1       2.984   2.407  20.490  0.00  0.00    +0.000 N 
ATOM     26  H   UNL     1       3.862   2.006  20.175  0.00  0.00    +0.000 HD
ENDBRANCH  18  21
ENDBRANCH  14  15
ENDBRANCH   1  14
TORSDOF 8
ENDMDL
MODEL 4
REMARK VINA RESULT:      -6.8      5.484      7.660
REMARK  Name = 
REMARK  8 active torsions:
REMARK  status: ('A' for Active; 'I' for Inactive)
REMARK    1  A    between atoms: C_2  and  C_3
REMARK    2  A    between atoms: C_6  and  O_7
REMARK    3  A    between atoms: O_7  and  C_8
REMARK    4  A    between atoms: C_8  and  C_9
REMARK    5  A    between atoms: C_9  and  O_10
REMARK    6  A    between atoms: C_9  and  C_11
REMARK    7  A    between atoms: C_11  and  N_12
REMARK    8  A    between atoms: C_15  and  C_16
REMARK                            x       y       z     vdW  Elec       q    Type
REMARK                         _______ _______ _______ _____ _____    ______ ____
ROOT
ATOM      1  C   UNL     1       8.194   8.306  17.860  0.00  0.00    +0.000 C 
ENDROOT
BRANCH   1   2
ATOM      2  O   UNL     1       8.650   7.590  19.023  0.00  0.00    +0.000 OA
ATOM      3  H   UNL     1       9.122   8.215  19.598  0.00  0.00    +0.000 HD
ENDBRANCH   1   2
BRANCH   1   4
ATOM      4  C   UNL     1       8.199   9.807  18.150  0.00  0.00    +0.000 C 
BRANCH   4   5
ATOM      5  O   UNL     1       9.521  10.141  18.581  0.00  0.00    +0.000 OA
BRANCH   5   9
ATOM      6  C   UNL     1      10.747  13.948  17.492  0.00  0.00    +0.000 A 
ATOM      7  C   UNL     1       9.396  13.594  17.520  0.00  0.00    +0.000 A 
ATOM      8  C   UNL     1       9.030  12.295  17.871  0.00  0.00    +0.000 A 
ATOM      9  C   UNL     1      10.006  11.347  18.180  0.00  0.00    +0.000 A 
ATOM     10  C   UNL     1      11.356  11.691  18.129  0.00  0.00    +0.000 A 
ATOM     11  C   UNL     1      11.725  12.993  17.786  0.00  0.00    +0.000 A 
BRANCH   6  13
ATOM     12  N   UNL     1      11.439  16.382  16.910  0.00  0.00    +0.000 NA
ATOM     13  C   UNL     1      11.128  15.285  17.171  0.00  0.00    +0.000 C 
ENDBRANCH   6  13
ENDBRANCH   5   9
ENDBRANCH   4   5
ENDBRANCH   1   4
BRANCH   1  14
ATOM     14  C   UNL     1       6.793   7.793  17.463  0.00  0.00    +0.000 C 
BRANCH  14  15
ATOM     15  N   UNL     1       6.745   6.606  16.575  0.00  0.00    +0.000 NA
ATOM     16  C   UNL     1       7.117   5.381  17.305  0.00  0.00    +0.000 C 
ATOM     17  C   UNL     1       6.923   4.099  16.495  0.00  0.00    +0.000 C 
ATOM     18  C   UNL     1       5.492   3.979  15.968  0.00  0.00    +0.000 C 
ATOM     19  C   UNL     1       5.182   5.238  15.151  0.00  0.00    +0.000 C 
ATOM     20  C   UNL     1       5.414   6.527  15.946  0.00  0.00    +0.000 C 
BRANCH  18  21
ATOM     21  C   UNL     1       4.488   3.720  17.069  0.00  0.00    +0.000 A 
ATOM     22  C   UNL     1       3.183   4.124  17.278  0.00  0.00    +0.000 A 
ATOM     23  C   UNL     1       2.802   3.545  18.499  0.00  0.00    +0.000 A 
ATOM     24  N   UNL     1       3.781   2.819  19.037  0.00  0.00    +0.000 NA
ATOM     25  N   UNL     1       4.788   2.938  18.157  0.00  0.00    +0.000 N 
ATOM     26  H   UNL     1       5.662   2.469  18.370  0.00  0.00    +0.000 HD
ENDBRANCH  18  21
ENDBRANCH  14  15
ENDBRANCH   1  14
TORSDOF 8
ENDMDL
MODEL 5
REMARK VINA RESULT:      -6.8      3.538      7.566
REMARK  Name = 
REMARK  8 active torsions:
REMARK  status: ('A' for Active; 'I' for Inactive)
REMARK    1  A    between atoms: C_2  and  C_3
REMARK    2  A    between atoms: C_6  and  O_7
REMARK    3  A    between atoms: O_7  and  C_8
REMARK    4  A    between atoms: C_8  and  C_9
REMARK    5  A    between atoms: C_9  and  O_10
REMARK    6  A    between atoms: C_9  and  C_11
REMARK    7  A    between atoms: C_11  and  N_12
REMARK    8  A    between atoms: C_15  and  C_16
REMARK                            x       y       z     vdW  Elec       q    Type
REMARK                         _______ _______ _______ _____ _____    ______ ____
ROOT
ATOM      1  C   UNL     1       3.187   4.392  19.386  0.00  0.00    +0.000 C 
ENDROOT
BRANCH   1   2
ATOM      2  O   UNL     1       3.096   3.124  20.063  0.00  0.00    +0.000 OA
ATOM      3  H   UNL     1       2.229   2.734  19.862  0.00  0.00    +0.000 HD
ENDBRANCH   1   2
BRANCH   1   4
ATOM      4  C   UNL     1       2.422   5.451  20.182  0.00  0.00    +0.000 C 
BRANCH   4   5
ATOM      5  O   UNL     1       2.868   6.725  19.710  0.00  0.00    +0.000 OA
BRANCH   5   9
ATOM      6  C   UNL     1       0.139   9.844  19.802  0.00  0.00    +0.000 A 
ATOM      7  C   UNL     1       0.909   9.578  18.666  0.00  0.00    +0.000 A 
ATOM      8  C   UNL     1       1.830   8.532  18.687  0.00  0.00    +0.000 A 
ATOM      9  C   UNL     1       1.997   7.762  19.839  0.00  0.00    +0.000 A 
ATOM     10  C   UNL     1       1.247   8.041  20.980  0.00  0.00    +0.000 A 
ATOM     11  C   UNL     1       0.317   9.082  20.960  0.00  0.00    +0.000 A 
BRANCH   6  13
ATOM     12  N   UNL     1      -1.630  11.745  19.757  0.00  0.00    +0.000 NA
ATOM     13  C   UNL     1      -0.833  10.888  19.776  0.00  0.00    +0.000 C 
ENDBRANCH   6  13
ENDBRANCH   5   9
ENDBRANCH   4   5
ENDBRANCH   1   4
BRANCH   1  14
ATOM     14  C   UNL     1       2.647   4.242  17.948  0.00  0.00    +0.000 C 
BRANCH  14  15
ATOM     15  N   UNL     1       3.602   4.516  16.847  0.00  0.00    +0.000 NA
ATOM     16  C   UNL     1       4.050   5.919  16.868  0.00  0.00    +0.000 C 
ATOM     17  C   UNL     1       5.164   6.225  15.867  0.00  0.00    +0.000 C 
ATOM     18  C   UNL     1       6.362   5.293  16.057  0.00  0.00    +0.000 C 
ATOM     19  C   UNL     1       5.858   3.850  15.946  0.00  0.00    +0.000 C 
ATOM     20  C   UNL     1       4.714   3.550  16.920  0.00  0.00    +0.000 C 
BRANCH  18  21
ATOM     21  C   UNL     1       7.112   5.566  17.341  0.00  0.00    +0.000 A 
ATOM     22  C   UNL     1       7.508   6.726  17.980  0.00  0.00    +0.000 A 
ATOM     23  C   UNL     1       8.177   6.305  19.140  0.00  0.00    +0.000 A 
ATOM     24  N   UNL     1       8.208   4.977  19.247  0.00  0.00    +0.000 NA
ATOM     25  N   UNL     1       7.559   4.552  18.152  0.00  0.00    +0.000 N 
ATOM     26  H   UNL     1       7.470   3.551  18.011  0.00  0.00    +0.000 HD
ENDBRANCH  18  21
ENDBRANCH  14  15
ENDBRANCH   1  14
TORSDOF 8
ENDMDL
MODEL 6
REMARK VINA RESULT:      -6.8      4.357      6.683
REMARK  Name = 
REMARK  8 active torsions:
REMARK  status: ('A' for Active; 'I' for Inactive)
REMARK    1  A    between atoms: C_2  and  C_3
REMARK    2  A    between atoms: C_6  and  O_7
REMARK    3  A    between atoms: O_7  and  C_8
REMARK    4  A    between atoms: C_8  and  C_9
REMARK    5  A    between atoms: C_9  and  O_10
REMARK    6  A    between atoms: C_9  and  C_11
REMARK    7  A    between atoms: C_11  and  N_12
REMARK    8  A    between atoms: C_15  and  C_16
REMARK                            x       y       z     vdW  Elec       q    Type
REMARK                         _______ _______ _______ _____ _____    ______ ____
ROOT
ATOM      1  C   UNL     1       6.833   7.015  17.259  0.00  0.00    +0.000 C 
ENDROOT
BRANCH   1   2
ATOM      2  O   UNL     1       7.449   6.252  16.205  0.00  0.00    +0.000 OA
ATOM      3  H   UNL     1       8.238   6.732  15.903  0.00  0.00    +0.000 HD
ENDBRANCH   1   2
BRANCH   1   4
ATOM      4  C   UNL     1       7.913   7.751  18.053  0.00  0.00    +0.000 C 
BRANCH   4   5
ATOM      5  O   UNL     1       8.216   8.947  17.327  0.00  0.00    +0.000 OA
BRANCH   5   9
ATOM      6  C   UNL     1       9.498  12.097  19.696  0.00  0.00    +0.000 A 
ATOM      7  C   UNL     1       9.579  10.772  20.133  0.00  0.00    +0.000 A 
ATOM      8  C   UNL     1       9.115   9.746  19.312  0.00  0.00    +0.000 A 
ATOM      9  C   UNL     1       8.560  10.036  18.065  0.00  0.00    +0.000 A 
ATOM     10  C   UNL     1       8.457  11.359  17.637  0.00  0.00    +0.000 A 
ATOM     11  C   UNL     1       8.928  12.388  18.453  0.00  0.00    +0.000 A 
BRANCH   6  13
ATOM     12  N   UNL     1      10.423  14.014  21.185  0.00  0.00    +0.000 NA
ATOM     13  C   UNL     1      10.006  13.151  20.514  0.00  0.00    +0.000 C 
ENDBRANCH   6  13
ENDBRANCH   5   9
ENDBRANCH   4   5
ENDBRANCH   1   4
BRANCH   1  14
ATOM     14  C   UNL     1       5.998   6.071  18.150  0.00  0.00    +0.000 C 
BRANCH  14  15
ATOM     15  N   UNL     1       4.698   5.615  17.601  0.00  0.00    +0.000 NA
ATOM     16  C   UNL     1       4.633   4.144  17.540  0.00  0.00    +0.000 C 
ATOM     17  C   UNL     1       3.259   3.604  17.145  0.00  0.00    +0.000 C 
ATOM     18  C   UNL     1       2.160   4.137  18.067  0.00  0.00    +0.000 C 
ATOM     19  C   UNL     1       2.217   5.668  18.033  0.00  0.00    +0.000 C 
ATOM     20  C   UNL     1       3.604   6.212  18.389  0.00  0.00    +0.000 C 
BRANCH  18  21
ATOM     21  C   UNL     1       2.248   3.567  19.465  0.00  0.00    +0.000 A 
ATOM     22  C   UNL     1       3.107   2.670  20.072  0.00  0.00    +0.000 A 
ATOM     23  C   UNL     1       2.652   2.551  21.394  0.00  0.00    +0.000 A 
ATOM     24  N   UNL     1       1.585   3.314  21.628  0.00  0.00    +0.000 NA
ATOM     25  N   UNL     1       1.359   3.919  20.451  0.00  0.00    +0.000 N 
ATOM     26  H   UNL     1       0.569   4.552  20.386  0.00  0.00    +0.000 HD
ENDBRANCH  18  21
ENDBRANCH  14  15
ENDBRANCH   1  14
TORSDOF 8
ENDMDL
MODEL 7
REMARK VINA RESULT:      -6.7      4.169      6.321
REMARK  Name = 
REMARK  8 active torsions:
REMARK  status: ('A' for Active; 'I' for Inactive)
REMARK    1  A    between atoms: C_2  and  C_3
REMARK    2  A    between atoms: C_6  and  O_7
REMARK    3  A    between atoms: O_7  and  C_8
REMARK    4  A    between atoms: C_8  and  C_9
REMARK    5  A    between atoms: C_9  and  O_10
REMARK    6  A    between atoms: C_9  and  C_11
REMARK    7  A    between atoms: C_11  and  N_12
REMARK    8  A    between atoms: C_15  and  C_16
REMARK                            x       y       z     vdW  Elec       q    Type
REMARK                         _______ _______ _______ _____ _____    ______ ____
ROOT
ATOM      1  C   UNL     1       7.347   6.135  18.324  0.00  0.00    +0.000 C 
ENDROOT
BRANCH   1   2
ATOM      2  O   UNL     1       8.304   5.809  19.349  0.00  0.00    +0.000 OA
ATOM      3  H   UNL     1       9.194   5.861  18.963  0.00  0.00    +0.000 HD
ENDBRANCH   1   2
BRANCH   1   4
ATOM      4  C   UNL     1       7.657   7.523  17.760  0.00  0.00    +0.000 C 
BRANCH   4   5
ATOM      5  O   UNL     1       8.575   8.141  18.666  0.00  0.00    +0.000 OA
BRANCH   5   9
ATOM      6  C   UNL     1       9.199  12.237  18.557  0.00  0.00    +0.000 A 
ATOM      7  C   UNL     1       9.757  11.438  19.558  0.00  0.00    +0.000 A 
ATOM      8  C   UNL     1       9.503  10.068  19.568  0.00  0.00    +0.000 A 
ATOM      9  C   UNL     1       8.684   9.495  18.594  0.00  0.00    +0.000 A 
ATOM     10  C   UNL     1       8.107  10.294  17.609  0.00  0.00    +0.000 A 
ATOM     11  C   UNL     1       8.367  11.665  17.590  0.00  0.00    +0.000 A 
BRANCH   6  13
ATOM     12  N   UNL     1       9.722  14.780  18.484  0.00  0.00    +0.000 NA
ATOM     13  C   UNL     1       9.485  13.635  18.516  0.00  0.00    +0.000 C 
ENDBRANCH   6  13
ENDBRANCH   5   9
ENDBRANCH   4   5
ENDBRANCH   1   4
BRANCH   1  14
ATOM     14  C   UNL     1       5.922   6.048  18.910  0.00  0.00    +0.000 C 
BRANCH  14  15
ATOM     15  N   UNL     1       4.930   5.265  18.135  0.00  0.00    +0.000 NA
ATOM     16  C   UNL     1       5.051   3.825  18.418  0.00  0.00    +0.000 C 
ATOM     17  C   UNL     1       3.948   2.977  17.784  0.00  0.00    +0.000 C 
ATOM     18  C   UNL     1       2.557   3.473  18.187  0.00  0.00    +0.000 C 
ATOM     19  C   UNL     1       2.453   4.952  17.798  0.00  0.00    +0.000 C 
ATOM     20  C   UNL     1       3.581   5.798  18.399  0.00  0.00    +0.000 C 
BRANCH  18  21
ATOM     21  C   UNL     1       2.249   3.216  19.644  0.00  0.00    +0.000 A 
ATOM     22  C   UNL     1       1.129   3.423  20.429  0.00  0.00    +0.000 A 
ATOM     23  C   UNL     1       1.482   2.975  21.711  0.00  0.00    +0.000 A 
ATOM     24  N   UNL     1       2.730   2.510  21.755  0.00  0.00    +0.000 NA
ATOM     25  N   UNL     1       3.173   2.663  20.496  0.00  0.00    +0.000 N 
ATOM     26  H   UNL     1       4.126   2.383  20.291  0.00  0.00    +0.000 HD
ENDBRANCH  18  21
ENDBRANCH  14  15
ENDBRANCH   1  14
TORSDOF 8
ENDMDL
MODEL 8
REMARK VINA RESULT:      -6.7      3.795      6.092
REMARK  Name = 
REMARK  8 active torsions:
REMARK  status: ('A' for Active; 'I' for Inactive)
REMARK    1  A    between atoms: C_2  and  C_3
REMARK    2  A    between atoms: C_6  and  O_7
REMARK    3  A    between atoms: O_7  and  C_8
REMARK    4  A    between atoms: C_8  and  C_9
REMARK    5  A    between atoms: C_9  and  O_10
REMARK    6  A    between atoms: C_9  and  C_11
REMARK    7  A    between atoms: C_11  and  N_12
REMARK    8  A    between atoms: C_15  and  C_16
REMARK                            x       y       z     vdW  Elec       q    Type
REMARK                         _______ _______ _______ _____ _____    ______ ____
ROOT
ATOM      1  C   UNL     1       7.107   5.695  17.446  0.00  0.00    +0.000 C 
ENDROOT
BRANCH   1   2
ATOM      2  O   UNL     1       8.084   4.732  17.009  0.00  0.00    +0.000 OA
ATOM      3  H   UNL     1       7.737   4.283  16.221  0.00  0.00    +0.000 HD
ENDBRANCH   1   2
BRANCH   1   4
ATOM      4  C   UNL     1       7.810   6.837  18.180  0.00  0.00    +0.000 C 
BRANCH   4   5
ATOM      5  O   UNL     1       7.642   8.010  17.378  0.00  0.00    +0.000 OA
BRANCH   5   9
ATOM      6  C   UNL     1       9.393  11.386  19.026  0.00  0.00    +0.000 A 
ATOM      7  C   UNL     1       9.526  10.128  19.620  0.00  0.00    +0.000 A 
ATOM      8  C   UNL     1       8.902   9.024  19.043  0.00  0.00    +0.000 A 
ATOM      9  C   UNL     1       8.135   9.171  17.886  0.00  0.00    +0.000 A 
ATOM     10  C   UNL     1       7.982  10.429  17.306  0.00  0.00    +0.000 A 
ATOM     11  C   UNL     1       8.613  11.536  17.876  0.00  0.00    +0.000 A 
BRANCH   6  13
ATOM     12  N   UNL     1      10.607  13.442  20.047  0.00  0.00    +0.000 NA
ATOM     13  C   UNL     1      10.061  12.516  19.588  0.00  0.00    +0.000 C 
ENDBRANCH   6  13
ENDBRANCH   5   9
ENDBRANCH   4   5
ENDBRANCH   1   4
BRANCH   1  14
ATOM     14  C   UNL     1       6.058   4.991  18.333  0.00  0.00    +0.000 C 
BRANCH  14  15
ATOM     15  N   UNL     1       4.640   5.115  17.914  0.00  0.00    +0.000 NA
ATOM     16  C   UNL     1       4.033   3.792  17.692  0.00  0.00    +0.000 C 
ATOM     17  C   UNL     1       2.529   3.841  17.425  0.00  0.00    +0.000 C 
ATOM     18  C   UNL     1       1.784   4.576  18.542  0.00  0.00    +0.000 C 
ATOM     19  C   UNL     1       2.399   5.973  18.678  0.00  0.00    +0.000 C 
ATOM     20  C   UNL     1       3.914   5.930  18.905  0.00  0.00    +0.000 C 
BRANCH  18  21
ATOM     21  C   UNL     1       1.771   3.800  19.839  0.00  0.00    +0.000 A 
ATOM     22  C   UNL     1       1.388   2.515  20.173  0.00  0.00    +0.000 A 
ATOM     23  C   UNL     1       1.619   2.401  21.553  0.00  0.00    +0.000 A 
ATOM     24  N   UNL     1       2.117   3.522  22.072  0.00  0.00    +0.000 NA
ATOM     25  N   UNL     1       2.203   4.352  21.020  0.00  0.00    +0.000 N 
ATOM     26  H   UNL     1       2.551   5.291  21.183  0.00  0.00    +0.000 HD
ENDBRANCH  18  21
ENDBRANCH  14  15
ENDBRANCH   1  14
TORSDOF 8
ENDMDL
MODEL 9
REMARK VINA RESULT:      -6.7      5.861      8.024
REMARK  Name = 
REMARK  8 active torsions:
REMARK  status: ('A' for Active; 'I' for Inactive)
REMARK    1  A    between atoms: C_2  and  C_3
REMARK    2  A    between atoms: C_6  and  O_7
REMARK    3  A    between atoms: O_7  and  C_8
REMARK    4  A    between atoms: C_8  and  C_9
REMARK    5  A    between atoms: C_9  and  O_10
REMARK    6  A    between atoms: C_9  and  C_11
REMARK    7  A    between atoms: C_11  and  N_12
REMARK    8  A    between atoms: C_15  and  C_16
REMARK                            x       y       z     vdW  Elec       q    Type
REMARK                         _______ _______ _______ _____ _____    ______ ____
ROOT
ATOM      1  C   UNL     1       8.335   8.756  17.874  0.00  0.00    +0.000 C 
ENDROOT
BRANCH   1   2
ATOM      2  O   UNL     1       8.828   8.332  19.159  0.00  0.00    +0.000 OA
ATOM      3  H   UNL     1       9.779   8.152  19.075  0.00  0.00    +0.000 HD
ENDBRANCH   1   2
BRANCH   1   4
ATOM      4  C   UNL     1       8.306  10.284  17.818  0.00  0.00    +0.000 C 
BRANCH   4   5
ATOM      5  O   UNL     1       9.634  10.734  18.102  0.00  0.00    +0.000 OA
BRANCH   5   9
ATOM      6  C   UNL     1      10.445  14.765  17.581  0.00  0.00    +0.000 A 
ATOM      7  C   UNL     1      11.329  13.777  17.139  0.00  0.00    +0.000 A 
ATOM      8  C   UNL     1      11.026  12.434  17.355  0.00  0.00    +0.000 A 
ATOM      9  C   UNL     1       9.853  12.073  18.022  0.00  0.00    +0.000 A 
ATOM     10  C   UNL     1       8.982  13.058  18.484  0.00  0.00    +0.000 A 
ATOM     11  C   UNL     1       9.279  14.404  18.262  0.00  0.00    +0.000 A 
BRANCH   6  13
ATOM     12  N   UNL     1      10.962  17.269  17.126  0.00  0.00    +0.000 NA
ATOM     13  C   UNL     1      10.728  16.141  17.330  0.00  0.00    +0.000 C 
ENDBRANCH   6  13
ENDBRANCH   5   9
ENDBRANCH   4   5
ENDBRANCH   1   4
BRANCH   1  14
ATOM     14  C   UNL     1       6.942   8.137  17.633  0.00  0.00    +0.000 C 
BRANCH  14  15
ATOM     15  N   UNL     1       6.895   6.902  16.812  0.00  0.00    +0.000 NA
ATOM     16  C   UNL     1       7.394   5.741  17.569  0.00  0.00    +0.000 C 
ATOM     17  C   UNL     1       7.213   4.409  16.842  0.00  0.00    +0.000 C 
ATOM     18  C   UNL     1       5.754   4.181  16.440  0.00  0.00    +0.000 C 
ATOM     19  C   UNL     1       5.309   5.375  15.588  0.00  0.00    +0.000 C 
ATOM     20  C   UNL     1       5.526   6.716  16.297  0.00  0.00    +0.000 C 
BRANCH  18  21
ATOM     21  C   UNL     1       4.857   3.928  17.629  0.00  0.00    +0.000 A 
ATOM     22  C   UNL     1       3.555   4.282  17.928  0.00  0.00    +0.000 A 
ATOM     23  C   UNL     1       3.302   3.743  19.200  0.00  0.00    +0.000 A 
ATOM     24  N   UNL     1       4.355   3.088  19.685  0.00  0.00    +0.000 NA
ATOM     25  N   UNL     1       5.282   3.212  18.721  0.00  0.00    +0.000 N 
ATOM     26  H   UNL     1       6.192   2.793  18.880  0.00  0.00    +0.000 HD
ENDBRANCH  18  21
ENDBRANCH  14  15
ENDBRANCH   1  14
TORSDOF 8
ENDMDL
