MODEL 1
REMARK VINA RESULT:      -8.2      0.000      0.000
REMARK  Name = 
REMARK  8 active torsions:
REMARK  status: ('A' for Active; 'I' for Inactive)
REMARK    1  A    between atoms: N_1  and  C_2
REMARK    2  A    between atoms: C_2  and  C_3
REMARK    3  A    between atoms: C_2  and  C_27
REMARK    4  A    between atoms: C_3  and  N_4
REMARK    5  A    between atoms: N_4  and  C_5
REMARK    6  A    between atoms: C_7  and  C_8
REMARK    7  A    between atoms: C_16  and  N_17
REMARK    8  A    between atoms: C_27  and  C_28
REMARK                            x       y       z     vdW  Elec       q    Type
REMARK                         _______ _______ _______ _____ _____    ______ ____
ROOT
ATOM      1  C   UNL     1      -0.580  10.632  18.420  0.00  0.00    +0.000 A 
ATOM      2  N   UNL     1      -0.411  11.357  19.544  0.00  0.00    +0.000 NA
ATOM      3  C   UNL     1      -1.386  12.193  19.949  0.00  0.00    +0.000 A 
ATOM      4  N   UNL     1      -2.578  12.374  19.358  0.00  0.00    +0.000 NA
ATOM      5  C   UNL     1      -2.771  11.614  18.248  0.00  0.00    +0.000 A 
ATOM      6  C   UNL     1      -3.965  11.575  17.461  0.00  0.00    +0.000 A 
ATOM      7  C   UNL     1      -3.869  10.690  16.409  0.00  0.00    +0.000 A 
ATOM      8  S   UNL     1      -2.340   9.948  16.328  0.00  0.00    +0.000 S 
ATOM      9  C   UNL     1      -1.798  10.756  17.747  0.00  0.00    +0.000 A 
ENDROOT
BRANCH   6  10
ATOM     10  N   UNL     1      -5.094  12.285  17.752  0.00  0.00    +0.000 N 
ATOM     11  C   UNL     1      -6.066  11.925  18.711  0.00  0.00    +0.000 A 
ATOM     12  C   UNL     1      -6.766  12.924  19.362  0.00  0.00    +0.000 A 
ATOM     13  C   UNL     1      -7.622  12.520  20.363  0.00  0.00    +0.000 A 
ATOM     14  N   UNL     1      -7.828  11.234  20.693  0.00  0.00    +0.000 NA
ATOM     15  C   UNL     1      -7.121  10.343  19.989  0.00  0.00    +0.000 A 
ATOM     16  N   UNL     1      -6.240  10.629  19.023  0.00  0.00    +0.000 NA
ATOM     17  H   UNL     1      -5.497  12.851  17.007  0.00  0.00    +0.000 HD
ENDBRANCH   6  10
BRANCH   3  18
ATOM     18  C   UNL     1      -1.111  12.977  21.164  0.00  0.00    +0.000 A 
ATOM     19  C   UNL     1      -0.090  13.938  21.196  0.00  0.00    +0.000 A 
ATOM     20  C   UNL     1       0.132  14.651  22.364  0.00  0.00    +0.000 A 
ATOM     21  N   UNL     1      -0.587  14.485  23.492  0.00  0.00    +0.000 NA
ATOM     22  C   UNL     1      -1.565  13.557  23.454  0.00  0.00    +0.000 A 
ATOM     23  C   UNL     1      -1.855  12.790  22.338  0.00  0.00    +0.000 A 
ENDBRANCH   3  18
BRANCH   1  24
ATOM     24  N   UNL     1       0.400   9.775  17.987  0.00  0.00    +0.000 N 
ATOM     25  H   UNL     1       0.533   9.626  16.991  0.00  0.00    +0.000 HD
BRANCH  24  26
ATOM     26  C   UNL     1       1.435   9.268  18.861  0.00  0.00    +0.000 C 
BRANCH  26  27
ATOM     27  C   UNL     1       2.028   7.971  18.244  0.00  0.00    +0.000 C 
BRANCH  27  28
ATOM     28  N   UNL     1       3.075   8.286  17.243  0.00  0.00    +0.000 NA
ATOM     29  H   UNL     1       2.883   7.741  16.399  0.00  0.00    +0.000 HD
ATOM     30  H   UNL     1       3.977   7.955  17.581  0.00  0.00    +0.000 HD
ENDBRANCH  27  28
BRANCH  27  31
ATOM     31  C   UNL     1       2.542   7.059  19.379  0.00  0.00    +0.000 C 
BRANCH  31  32
ATOM     32  C   UNL     1       2.055   5.628  19.333  0.00  0.00    +0.000 A 
ATOM     33  C   UNL     1       1.622   4.994  20.505  0.00  0.00    +0.000 A 
ATOM     34  C   UNL     1       1.125   3.690  20.466  0.00  0.00    +0.000 A 
ATOM     35  C   UNL     1       1.058   3.005  19.254  0.00  0.00    +0.000 A 
ATOM     36  C   UNL     1       1.487   3.624  18.083  0.00  0.00    +0.000 A 
ATOM     37  C   UNL     1       1.981   4.929  18.120  0.00  0.00    +0.000 A 
ENDBRANCH  31  32
ENDBRANCH  27  31
ENDBRANCH  26  27
ENDBRANCH  24  26
ENDBRANCH   1  24
TORSDOF 8
ENDMDL
MODEL 2
REMARK VINA RESULT:      -8.0      5.553      9.907
REMARK  Name = 
REMARK  8 active torsions:
REMARK  status: ('A' for Active; 'I' for Inactive)
REMARK    1  A    between atoms: N_1  and  C_2
REMARK    2  A    between atoms: C_2  and  C_3
REMARK    3  A    between atoms: C_2  and  C_27
REMARK    4  A    between atoms: C_3  and  N_4
REMARK    5  A    between atoms: N_4  and  C_5
REMARK    6  A    between atoms: C_7  and  C_8
REMARK    7  A    between atoms: C_16  and  N_17
REMARK    8  A    between atoms: C_27  and  C_28
REMARK                            x       y       z     vdW  Elec       q    Type
REMARK                         _______ _______ _______ _____ _____    ______ ____
ROOT
ATOM      1  C   UNL     1       5.687   7.023  17.105  0.00  0.00    +0.000 A 
ATOM      2  N   UNL     1       4.705   7.767  17.654  0.00  0.00    +0.000 NA
ATOM      3  C   UNL     1       3.517   7.197  17.933  0.00  0.00    +0.000 A 
ATOM      4  N   UNL     1       3.189   5.907  17.756  0.00  0.00    +0.000 NA
ATOM      5  C   UNL     1       4.191   5.144  17.243  0.00  0.00    +0.000 A 
ATOM      6  C   UNL     1       4.125   3.735  17.003  0.00  0.00    +0.000 A 
ATOM      7  C   UNL     1       5.306   3.236  16.499  0.00  0.00    +0.000 A 
ATOM      8  S   UNL     1       6.472   4.452  16.262  0.00  0.00    +0.000 S 
ATOM      9  C   UNL     1       5.431   5.667  16.894  0.00  0.00    +0.000 A 
ENDROOT
BRANCH   6  10
ATOM     10  N   UNL     1       3.039   2.960  17.296  0.00  0.00    +0.000 N 
ATOM     11  C   UNL     1       2.486   2.776  18.581  0.00  0.00    +0.000 A 
ATOM     12  C   UNL     1       1.128   2.542  18.699  0.00  0.00    +0.000 A 
ATOM     13  C   UNL     1       0.625   2.478  19.980  0.00  0.00    +0.000 A 
ATOM     14  N   UNL     1       1.383   2.589  21.083  0.00  0.00    +0.000 NA
ATOM     15  C   UNL     1       2.687   2.791  20.864  0.00  0.00    +0.000 A 
ATOM     16  N   UNL     1       3.272   2.903  19.666  0.00  0.00    +0.000 NA
ATOM     17  H   UNL     1       2.859   2.159  16.693  0.00  0.00    +0.000 HD
ENDBRANCH   6  10
BRANCH   3  18
ATOM     18  C   UNL     1       2.484   8.083  18.495  0.00  0.00    +0.000 A 
ATOM     19  C   UNL     1       1.938   9.133  17.743  0.00  0.00    +0.000 A 
ATOM     20  C   UNL     1       0.968   9.941  18.316  0.00  0.00    +0.000 A 
ATOM     21  N   UNL     1       0.500   9.778  19.570  0.00  0.00    +0.000 NA
ATOM     22  C   UNL     1       1.033   8.768  20.287  0.00  0.00    +0.000 A 
ATOM     23  C   UNL     1       2.012   7.915  19.805  0.00  0.00    +0.000 A 
ENDBRANCH   3  18
BRANCH   1  24
ATOM     24  N   UNL     1       6.905   7.583  16.810  0.00  0.00    +0.000 N 
ATOM     25  H   UNL     1       7.038   8.054  15.920  0.00  0.00    +0.000 HD
BRANCH  24  26
ATOM     26  C   UNL     1       7.939   7.772  17.803  0.00  0.00    +0.000 C 
BRANCH  26  27
ATOM     27  C   UNL     1       8.368   9.265  17.811  0.00  0.00    +0.000 C 
BRANCH  27  28
ATOM     28  N   UNL     1       7.220  10.151  17.506  0.00  0.00    +0.000 NA
ATOM     29  H   UNL     1       6.505  10.006  18.223  0.00  0.00    +0.000 HD
ATOM     30  H   UNL     1       6.789   9.859  16.630  0.00  0.00    +0.000 HD
ENDBRANCH  27  28
BRANCH  27  31
ATOM     31  C   UNL     1       9.032   9.595  19.164  0.00  0.00    +0.000 C 
BRANCH  31  32
ATOM     32  C   UNL     1       9.901  10.833  19.177  0.00  0.00    +0.000 A 
ATOM     33  C   UNL     1      10.444  11.325  17.983  0.00  0.00    +0.000 A 
ATOM     34  C   UNL     1      11.206  12.494  17.976  0.00  0.00    +0.000 A 
ATOM     35  C   UNL     1      11.436  13.183  19.165  0.00  0.00    +0.000 A 
ATOM     36  C   UNL     1      10.904  12.704  20.359  0.00  0.00    +0.000 A 
ATOM     37  C   UNL     1      10.138  11.537  20.367  0.00  0.00    +0.000 A 
ENDBRANCH  31  32
ENDBRANCH  27  31
ENDBRANCH  26  27
ENDBRANCH  24  26
ENDBRANCH   1  24
TORSDOF 8
ENDMDL
MODEL 3
REMARK VINA RESULT:      -8.0      5.174      9.529
REMARK  Name = 
REMARK  8 active torsions:
REMARK  status: ('A' for Active; 'I' for Inactive)
REMARK    1  A    between atoms: N_1  and  C_2
REMARK    2  A    between atoms: C_2  and  C_3
REMARK    3  A    between atoms: C_2  and  C_27
REMARK    4  A    between atoms: C_3  and  N_4
REMARK    5  A    between atoms: N_4  and  C_5
REMARK    6  A    between atoms: C_7  and  C_8
REMARK    7  A    between atoms: C_16  and  N_17
REMARK    8  A    between atoms: C_27  and  C_28
REMARK                            x       y       z     vdW  Elec       q    Type
REMARK                         _______ _______ _______ _____ _____    ______ ____
ROOT
ATOM      1  C   UNL     1       5.039   6.933  16.901  0.00  0.00    +0.000 A 
ATOM      2  N   UNL     1       4.163   7.757  17.510  0.00  0.00    +0.000 NA
ATOM      3  C   UNL     1       3.032   7.252  18.039  0.00  0.00    +0.000 A 
ATOM      4  N   UNL     1       2.672   5.958  18.066  0.00  0.00    +0.000 NA
ATOM      5  C   UNL     1       3.573   5.118  17.490  0.00  0.00    +0.000 A 
ATOM      6  C   UNL     1       3.461   3.693  17.427  0.00  0.00    +0.000 A 
ATOM      7  C   UNL     1       4.542   3.111  16.802  0.00  0.00    +0.000 A 
ATOM      8  S   UNL     1       5.662   4.264  16.244  0.00  0.00    +0.000 S 
ATOM      9  C   UNL     1       4.744   5.568  16.890  0.00  0.00    +0.000 A 
ENDROOT
BRANCH   6  10
ATOM     10  N   UNL     1       2.432   2.983  17.977  0.00  0.00    +0.000 N 
ATOM     11  C   UNL     1       2.231   2.764  19.356  0.00  0.00    +0.000 A 
ATOM     12  C   UNL     1       0.941   2.622  19.831  0.00  0.00    +0.000 A 
ATOM     13  C   UNL     1       0.798   2.519  21.198  0.00  0.00    +0.000 A 
ATOM     14  N   UNL     1       1.831   2.510  22.056  0.00  0.00    +0.000 NA
ATOM     15  C   UNL     1       3.040   2.630  21.496  0.00  0.00    +0.000 A 
ATOM     16  N   UNL     1       3.288   2.770  20.189  0.00  0.00    +0.000 NA
ATOM     17  H   UNL     1       2.028   2.233  17.417  0.00  0.00    +0.000 HD
ENDBRANCH   6  10
BRANCH   3  18
ATOM     18  C   UNL     1       2.109   8.220  18.653  0.00  0.00    +0.000 A 
ATOM     19  C   UNL     1       1.761   8.136  20.009  0.00  0.00    +0.000 A 
ATOM     20  C   UNL     1       0.887   9.071  20.542  0.00  0.00    +0.000 A 
ATOM     21  N   UNL     1       0.343  10.080  19.832  0.00  0.00    +0.000 NA
ATOM     22  C   UNL     1       0.680  10.151  18.528  0.00  0.00    +0.000 A 
ATOM     23  C   UNL     1       1.537   9.259  17.905  0.00  0.00    +0.000 A 
ENDBRANCH   3  18
BRANCH   1  24
ATOM     24  N   UNL     1       6.197   7.426  16.353  0.00  0.00    +0.000 N 
ATOM     25  H   UNL     1       6.146   8.139  15.631  0.00  0.00    +0.000 HD
BRANCH  24  26
ATOM     26  C   UNL     1       7.500   7.179  16.929  0.00  0.00    +0.000 C 
BRANCH  26  27
ATOM     27  C   UNL     1       7.721   8.153  18.118  0.00  0.00    +0.000 C 
BRANCH  27  28
ATOM     28  N   UNL     1       8.708   7.607  19.079  0.00  0.00    +0.000 NA
ATOM     29  H   UNL     1       9.607   7.520  18.598  0.00  0.00    +0.000 HD
ATOM     30  H   UNL     1       8.444   6.657  19.334  0.00  0.00    +0.000 HD
ENDBRANCH  27  28
BRANCH  27  31
ATOM     31  C   UNL     1       8.125   9.539  17.571  0.00  0.00    +0.000 C 
BRANCH  31  32
ATOM     32  C   UNL     1       9.125  10.302  18.410  0.00  0.00    +0.000 A 
ATOM     33  C   UNL     1      10.218  10.933  17.802  0.00  0.00    +0.000 A 
ATOM     34  C   UNL     1      11.121  11.680  18.561  0.00  0.00    +0.000 A 
ATOM     35  C   UNL     1      10.941  11.803  19.937  0.00  0.00    +0.000 A 
ATOM     36  C   UNL     1       9.860  11.179  20.554  0.00  0.00    +0.000 A 
ATOM     37  C   UNL     1       8.955  10.434  19.796  0.00  0.00    +0.000 A 
ENDBRANCH  31  32
ENDBRANCH  27  31
ENDBRANCH  26  27
ENDBRANCH  24  26
ENDBRANCH   1  24
TORSDOF 8
ENDMDL
MODEL 4
REMARK VINA RESULT:      -7.9      2.480      4.980
REMARK  Name = 
REMARK  8 active torsions:
REMARK  status: ('A' for Active; 'I' for Inactive)
REMARK    1  A    between atoms: N_1  and  C_2
REMARK    2  A    between atoms: C_2  and  C_3
REMARK    3  A    between atoms: C_2  and  C_27
REMARK    4  A    between atoms: C_3  and  N_4
REMARK    5  A    between atoms: N_4  and  C_5
REMARK    6  A    between atoms: C_7  and  C_8
REMARK    7  A    between atoms: C_16  and  N_17
REMARK    8  A    between atoms: C_27  and  C_28
REMARK                            x       y       z     vdW  Elec       q    Type
REMARK                         _______ _______ _______ _____ _____    ______ ____
ROOT
ATOM      1  C   UNL     1       1.010   9.390  19.225  0.00  0.00    +0.000 A 
ATOM      2  N   UNL     1       0.035   9.791  18.383  0.00  0.00    +0.000 NA
ATOM      3  C   UNL     1      -1.133  10.236  18.884  0.00  0.00    +0.000 A 
ATOM      4  N   UNL     1      -1.447  10.368  20.183  0.00  0.00    +0.000 NA
ATOM      5  C   UNL     1      -0.452  10.005  21.035  0.00  0.00    +0.000 A 
ATOM      6  C   UNL     1      -0.503  10.093  22.462  0.00  0.00    +0.000 A 
ATOM      7  C   UNL     1       0.668   9.673  23.054  0.00  0.00    +0.000 A 
ATOM      8  S   UNL     1       1.806   9.123  21.914  0.00  0.00    +0.000 S 
ATOM      9  C   UNL     1       0.768   9.501  20.596  0.00  0.00    +0.000 A 
ENDROOT
BRANCH   6  10
ATOM     10  N   UNL     1      -1.566  10.594  23.158  0.00  0.00    +0.000 N 
ATOM     11  C   UNL     1      -1.889  11.961  23.291  0.00  0.00    +0.000 A 
ATOM     12  C   UNL     1      -3.215  12.326  23.431  0.00  0.00    +0.000 A 
ATOM     13  C   UNL     1      -3.481  13.678  23.448  0.00  0.00    +0.000 A 
ATOM     14  N   UNL     1      -2.530  14.624  23.377  0.00  0.00    +0.000 NA
ATOM     15  C   UNL     1      -1.278  14.169  23.267  0.00  0.00    +0.000 A 
ATOM     16  N   UNL     1      -0.913  12.884  23.207  0.00  0.00    +0.000 NA
ATOM     17  H   UNL     1      -1.904  10.051  23.952  0.00  0.00    +0.000 HD
ENDBRANCH   6  10
BRANCH   3  18
ATOM     18  C   UNL     1      -2.161  10.619  17.901  0.00  0.00    +0.000 A 
ATOM     19  C   UNL     1      -2.061  10.237  16.556  0.00  0.00    +0.000 A 
ATOM     20  C   UNL     1      -3.053  10.623  15.668  0.00  0.00    +0.000 A 
ATOM     21  N   UNL     1      -4.133  11.351  16.019  0.00  0.00    +0.000 NA
ATOM     22  C   UNL     1      -4.219  11.717  17.314  0.00  0.00    +0.000 A 
ATOM     23  C   UNL     1      -3.275  11.387  18.272  0.00  0.00    +0.000 A 
ENDBRANCH   3  18
BRANCH   1  24
ATOM     24  N   UNL     1       2.208   8.931  18.737  0.00  0.00    +0.000 N 
ATOM     25  H   UNL     1       3.032   8.953  19.330  0.00  0.00    +0.000 HD
BRANCH  24  26
ATOM     26  C   UNL     1       2.313   8.170  17.512  0.00  0.00    +0.000 C 
BRANCH  26  27
ATOM     27  C   UNL     1       3.097   6.859  17.796  0.00  0.00    +0.000 C 
BRANCH  27  28
ATOM     28  N   UNL     1       4.533   7.014  17.460  0.00  0.00    +0.000 NA
ATOM     29  H   UNL     1       4.685   6.628  16.524  0.00  0.00    +0.000 HD
ATOM     30  H   UNL     1       5.091   6.437  18.086  0.00  0.00    +0.000 HD
ENDBRANCH  27  28
BRANCH  27  31
ATOM     31  C   UNL     1       2.871   6.439  19.263  0.00  0.00    +0.000 C 
BRANCH  31  32
ATOM     32  C   UNL     1       2.162   5.118  19.459  0.00  0.00    +0.000 A 
ATOM     33  C   UNL     1       1.795   4.344  18.350  0.00  0.00    +0.000 A 
ATOM     34  C   UNL     1       1.184   3.101  18.520  0.00  0.00    +0.000 A 
ATOM     35  C   UNL     1       0.932   2.617  19.803  0.00  0.00    +0.000 A 
ATOM     36  C   UNL     1       1.290   3.377  20.913  0.00  0.00    +0.000 A 
ATOM     37  C   UNL     1       1.904   4.619  20.744  0.00  0.00    +0.000 A 
ENDBRANCH  31  32
ENDBRANCH  27  31
ENDBRANCH  26  27
ENDBRANCH  24  26
ENDBRANCH   1  24
TORSDOF 8
ENDMDL
MODEL 5
REMARK VINA RESULT:      -7.8      2.527      4.975
REMARK  Name = 
REMARK  8 active torsions:
REMARK  status: ('A' for Active; 'I' for Inactive)
REMARK    1  A    between atoms: N_1  and  C_2
REMARK    2  A    between atoms: C_2  and  C_3
REMARK    3  A    between atoms: C_2  and  C_27
REMARK    4  A    between atoms: C_3  and  N_4
REMARK    5  A    between atoms: N_4  and  C_5
REMARK    6  A    between atoms: C_7  and  C_8
REMARK    7  A    between atoms: C_16  and  N_17
REMARK    8  A    between atoms: C_27  and  C_28
REMARK                            x       y       z     vdW  Elec       q    Type
REMARK                         _______ _______ _______ _____ _____    ______ ____
ROOT
ATOM      1  C   UNL     1       0.998   9.243  19.309  0.00  0.00    +0.000 A 
ATOM      2  N   UNL     1       0.052   9.661  18.443  0.00  0.00    +0.000 NA
ATOM      3  C   UNL     1      -1.110  10.151  18.914  0.00  0.00    +0.000 A 
ATOM      4  N   UNL     1      -1.442  10.315  20.205  0.00  0.00    +0.000 NA
ATOM      5  C   UNL     1      -0.475   9.936  21.081  0.00  0.00    +0.000 A 
ATOM      6  C   UNL     1      -0.549  10.050  22.505  0.00  0.00    +0.000 A 
ATOM      7  C   UNL     1       0.597   9.602  23.126  0.00  0.00    +0.000 A 
ATOM      8  S   UNL     1       1.737   8.997  22.017  0.00  0.00    +0.000 S 
ATOM      9  C   UNL     1       0.735   9.385  20.673  0.00  0.00    +0.000 A 
ENDROOT
BRANCH   6  10
ATOM     10  N   UNL     1      -1.607  10.596  23.174  0.00  0.00    +0.000 N 
ATOM     11  C   UNL     1      -1.870  11.977  23.304  0.00  0.00    +0.000 A 
ATOM     12  C   UNL     1      -3.182  12.402  23.408  0.00  0.00    +0.000 A 
ATOM     13  C   UNL     1      -3.386  13.764  23.424  0.00  0.00    +0.000 A 
ATOM     14  N   UNL     1      -2.391  14.666  23.385  0.00  0.00    +0.000 NA
ATOM     15  C   UNL     1      -1.158  14.155  23.309  0.00  0.00    +0.000 A 
ATOM     16  N   UNL     1      -0.851  12.854  23.252  0.00  0.00    +0.000 NA
ATOM     17  H   UNL     1      -1.992  10.067  23.955  0.00  0.00    +0.000 HD
ENDBRANCH   6  10
BRANCH   3  18
ATOM     18  C   UNL     1      -2.107  10.551  17.907  0.00  0.00    +0.000 A 
ATOM     19  C   UNL     1      -3.200  11.360  18.245  0.00  0.00    +0.000 A 
ATOM     20  C   UNL     1      -4.113  11.710  17.262  0.00  0.00    +0.000 A 
ATOM     21  N   UNL     1      -4.014  11.321  15.974  0.00  0.00    +0.000 NA
ATOM     22  C   UNL     1      -2.961  10.541  15.658  0.00  0.00    +0.000 A 
ATOM     23  C   UNL     1      -2.004  10.132  16.572  0.00  0.00    +0.000 A 
ENDBRANCH   3  18
BRANCH   1  24
ATOM     24  N   UNL     1       2.189   8.737  18.851  0.00  0.00    +0.000 N 
ATOM     25  H   UNL     1       2.958   8.599  19.501  0.00  0.00    +0.000 HD
BRANCH  24  26
ATOM     26  C   UNL     1       2.333   8.140  17.542  0.00  0.00    +0.000 C 
BRANCH  26  27
ATOM     27  C   UNL     1       3.202   6.858  17.663  0.00  0.00    +0.000 C 
BRANCH  27  28
ATOM     28  N   UNL     1       4.604   7.125  17.264  0.00  0.00    +0.000 NA
ATOM     29  H   UNL     1       4.780   6.647  16.376  0.00  0.00    +0.000 HD
ATOM     30  H   UNL     1       5.236   6.692  17.936  0.00  0.00    +0.000 HD
ENDBRANCH  27  28
BRANCH  27  31
ATOM     31  C   UNL     1       3.086   6.299  19.097  0.00  0.00    +0.000 C 
BRANCH  31  32
ATOM     32  C   UNL     1       2.321   5.002  19.228  0.00  0.00    +0.000 A 
ATOM     33  C   UNL     1       1.621   4.712  20.406  0.00  0.00    +0.000 A 
ATOM     34  C   UNL     1       0.872   3.539  20.520  0.00  0.00    +0.000 A 
ATOM     35  C   UNL     1       0.818   2.641  19.456  0.00  0.00    +0.000 A 
ATOM     36  C   UNL     1       1.510   2.916  18.280  0.00  0.00    +0.000 A 
ATOM     37  C   UNL     1       2.257   4.090  18.164  0.00  0.00    +0.000 A 
ENDBRANCH  31  32
ENDBRANCH  27  31
ENDBRANCH  26  27
ENDBRANCH  24  26
ENDBRANCH   1  24
TORSDOF 8
ENDMDL
MODEL 6
REMARK VINA RESULT:      -7.8      1.446      1.823
REMARK  Name = 
REMARK  8 active torsions:
REMARK  status: ('A' for Active; 'I' for Inactive)
REMARK    1  A    between atoms: N_1  and  C_2
REMARK    2  A    between atoms: C_2  and  C_3
REMARK    3  A    between atoms: C_2  and  C_27
REMARK    4  A    between atoms: C_3  and  N_4
REMARK    5  A    between atoms: N_4  and  C_5
REMARK    6  A    between atoms: C_7  and  C_8
REMARK    7  A    between atoms: C_16  and  N_17
REMARK    8  A    between atoms: C_27  and  C_28
REMARK                            x       y       z     vdW  Elec       q    Type
REMARK                         _______ _______ _______ _____ _____    ______ ____
ROOT
ATOM      1  C   UNL     1      -0.819  10.480  18.191  0.00  0.00    +0.000 A 
ATOM      2  N   UNL     1      -0.657  11.091  19.382  0.00  0.00    +0.000 NA
ATOM      3  C   UNL     1      -1.621  11.910  19.845  0.00  0.00    +0.000 A 
ATOM      4  N   UNL     1      -2.795  12.177  19.252  0.00  0.00    +0.000 NA
ATOM      5  C   UNL     1      -2.982  11.530  18.071  0.00  0.00    +0.000 A 
ATOM      6  C   UNL     1      -4.159  11.596  17.261  0.00  0.00    +0.000 A 
ATOM      7  C   UNL     1      -4.061  10.812  16.132  0.00  0.00    +0.000 A 
ATOM      8  S   UNL     1      -2.549  10.042  16.010  0.00  0.00    +0.000 S 
ATOM      9  C   UNL     1      -2.019  10.698  17.509  0.00  0.00    +0.000 A 
ENDROOT
BRANCH   6  10
ATOM     10  N   UNL     1      -5.277  12.305  17.596  0.00  0.00    +0.000 N 
ATOM     11  C   UNL     1      -6.191  11.962  18.616  0.00  0.00    +0.000 A 
ATOM     12  C   UNL     1      -6.863  12.971  19.279  0.00  0.00    +0.000 A 
ATOM     13  C   UNL     1      -7.659  12.586  20.337  0.00  0.00    +0.000 A 
ATOM     14  N   UNL     1      -7.833  11.308  20.710  0.00  0.00    +0.000 NA
ATOM     15  C   UNL     1      -7.158  10.405  19.991  0.00  0.00    +0.000 A 
ATOM     16  N   UNL     1      -6.335  10.672  18.971  0.00  0.00    +0.000 NA
ATOM     17  H   UNL     1      -5.726  12.848  16.860  0.00  0.00    +0.000 HD
ENDBRANCH   6  10
BRANCH   3  18
ATOM     18  C   UNL     1      -1.353  12.569  21.134  0.00  0.00    +0.000 A 
ATOM     19  C   UNL     1      -0.433  13.621  21.238  0.00  0.00    +0.000 A 
ATOM     20  C   UNL     1      -0.214  14.210  22.474  0.00  0.00    +0.000 A 
ATOM     21  N   UNL     1      -0.845  13.835  23.605  0.00  0.00    +0.000 NA
ATOM     22  C   UNL     1      -1.726  12.820  23.498  0.00  0.00    +0.000 A 
ATOM     23  C   UNL     1      -2.004  12.165  22.309  0.00  0.00    +0.000 A 
ENDBRANCH   3  18
BRANCH   1  24
ATOM     24  N   UNL     1       0.150   9.642  17.698  0.00  0.00    +0.000 N 
ATOM     25  H   UNL     1      -0.103   8.921  17.029  0.00  0.00    +0.000 HD
BRANCH  24  26
ATOM     26  C   UNL     1       1.563   9.894  17.874  0.00  0.00    +0.000 C 
BRANCH  26  27
ATOM     27  C   UNL     1       2.175   8.758  18.739  0.00  0.00    +0.000 C 
BRANCH  27  28
ATOM     28  N   UNL     1       1.413   8.575  19.997  0.00  0.00    +0.000 NA
ATOM     29  H   UNL     1       0.434   8.400  19.755  0.00  0.00    +0.000 HD
ATOM     30  H   UNL     1       1.411   9.448  20.522  0.00  0.00    +0.000 HD
ENDBRANCH  27  28
BRANCH  27  31
ATOM     31  C   UNL     1       2.255   7.467  17.898  0.00  0.00    +0.000 C 
BRANCH  31  32
ATOM     32  C   UNL     1       3.523   6.660  18.066  0.00  0.00    +0.000 A 
ATOM     33  C   UNL     1       3.658   5.776  19.144  0.00  0.00    +0.000 A 
ATOM     34  C   UNL     1       4.804   4.990  19.281  0.00  0.00    +0.000 A 
ATOM     35  C   UNL     1       5.830   5.082  18.342  0.00  0.00    +0.000 A 
ATOM     36  C   UNL     1       5.708   5.958  17.266  0.00  0.00    +0.000 A 
ATOM     37  C   UNL     1       4.561   6.742  17.126  0.00  0.00    +0.000 A 
ENDBRANCH  31  32
ENDBRANCH  27  31
ENDBRANCH  26  27
ENDBRANCH  24  26
ENDBRANCH   1  24
TORSDOF 8
ENDMDL
MODEL 7
REMARK VINA RESULT:      -7.7      2.876      5.674
REMARK  Name = 
REMARK  8 active torsions:
REMARK  status: ('A' for Active; 'I' for Inactive)
REMARK    1  A    between atoms: N_1  and  C_2
REMARK    2  A    between atoms: C_2  and  C_3
REMARK    3  A    between atoms: C_2  and  C_27
REMARK    4  A    between atoms: C_3  and  N_4
REMARK    5  A    between atoms: N_4  and  C_5
REMARK    6  A    between atoms: C_7  and  C_8
REMARK    7  A    between atoms: C_16  and  N_17
REMARK    8  A    between atoms: C_27  and  C_28
REMARK                            x       y       z     vdW  Elec       q    Type
REMARK                         _______ _______ _______ _____ _____    ______ ____
ROOT
ATOM      1  C   UNL     1       0.994   9.259  19.115  0.00  0.00    +0.000 A 
ATOM      2  N   UNL     1       0.012   9.687  18.296  0.00  0.00    +0.000 NA
ATOM      3  C   UNL     1      -1.126  10.178  18.822  0.00  0.00    +0.000 A 
ATOM      4  N   UNL     1      -1.400  10.334  20.127  0.00  0.00    +0.000 NA
ATOM      5  C   UNL     1      -0.396   9.944  20.957  0.00  0.00    +0.000 A 
ATOM      6  C   UNL     1      -0.407  10.047  22.383  0.00  0.00    +0.000 A 
ATOM      7  C   UNL     1       0.764   9.591  22.949  0.00  0.00    +0.000 A 
ATOM      8  S   UNL     1       1.851   8.990  21.786  0.00  0.00    +0.000 S 
ATOM      9  C   UNL     1       0.792   9.392  20.491  0.00  0.00    +0.000 A 
ENDROOT
BRANCH   6  10
ATOM     10  N   UNL     1      -1.432  10.593  23.102  0.00  0.00    +0.000 N 
ATOM     11  C   UNL     1      -1.702  11.972  23.229  0.00  0.00    +0.000 A 
ATOM     12  C   UNL     1      -3.010  12.386  23.400  0.00  0.00    +0.000 A 
ATOM     13  C   UNL     1      -3.227  13.746  23.409  0.00  0.00    +0.000 A 
ATOM     14  N   UNL     1      -2.246  14.657  23.303  0.00  0.00    +0.000 NA
ATOM     15  C   UNL     1      -1.013  14.157  23.165  0.00  0.00    +0.000 A 
ATOM     16  N   UNL     1      -0.697  12.858  23.109  0.00  0.00    +0.000 NA
ATOM     17  H   UNL     1      -1.768  10.071  23.910  0.00  0.00    +0.000 HD
ENDBRANCH   6  10
BRANCH   3  18
ATOM     18  C   UNL     1      -2.164  10.590  17.863  0.00  0.00    +0.000 A 
ATOM     19  C   UNL     1      -3.276  11.341  18.270  0.00  0.00    +0.000 A 
ATOM     20  C   UNL     1      -4.228  11.704  17.330  0.00  0.00    +0.000 A 
ATOM     21  N   UNL     1      -4.152  11.383  16.022  0.00  0.00    +0.000 NA
ATOM     22  C   UNL     1      -3.082  10.658  15.640  0.00  0.00    +0.000 A 
ATOM     23  C   UNL     1      -2.085  10.241  16.506  0.00  0.00    +0.000 A 
ENDBRANCH   3  18
BRANCH   1  24
ATOM     24  N   UNL     1       2.161   8.753  18.602  0.00  0.00    +0.000 N 
ATOM     25  H   UNL     1       3.043   9.210  18.815  0.00  0.00    +0.000 HD
BRANCH  24  26
ATOM     26  C   UNL     1       2.242   7.446  17.987  0.00  0.00    +0.000 C 
BRANCH  26  27
ATOM     27  C   UNL     1       2.940   6.466  18.969  0.00  0.00    +0.000 C 
BRANCH  27  28
ATOM     28  N   UNL     1       1.945   5.711  19.767  0.00  0.00    +0.000 NA
ATOM     29  H   UNL     1       1.339   6.385  20.242  0.00  0.00    +0.000 HD
ATOM     30  H   UNL     1       2.421   5.203  20.510  0.00  0.00    +0.000 HD
ENDBRANCH  27  28
BRANCH  27  31
ATOM     31  C   UNL     1       3.892   5.545  18.177  0.00  0.00    +0.000 C 
BRANCH  31  32
ATOM     32  C   UNL     1       5.355   5.919  18.233  0.00  0.00    +0.000 A 
ATOM     33  C   UNL     1       5.877   6.862  17.338  0.00  0.00    +0.000 A 
ATOM     34  C   UNL     1       7.216   7.251  17.414  0.00  0.00    +0.000 A 
ATOM     35  C   UNL     1       8.049   6.699  18.385  0.00  0.00    +0.000 A 
ATOM     36  C   UNL     1       7.543   5.759  19.279  0.00  0.00    +0.000 A 
ATOM     37  C   UNL     1       6.204   5.372  19.207  0.00  0.00    +0.000 A 
ENDBRANCH  31  32
ENDBRANCH  27  31
ENDBRANCH  26  27
ENDBRANCH  24  26
ENDBRANCH   1  24
TORSDOF 8
ENDMDL
MODEL 8
REMARK VINA RESULT:      -7.6      3.177      4.293
REMARK  Name = 
REMARK  8 active torsions:
REMARK  status: ('A' for Active; 'I' for Inactive)
REMARK    1  A    between atoms: N_1  and  C_2
REMARK    2  A    between atoms: C_2  and  C_3
REMARK    3  A    between atoms: C_2  and  C_27
REMARK    4  A    between atoms: C_3  and  N_4
REMARK    5  A    between atoms: N_4  and  C_5
REMARK    6  A    between atoms: C_7  and  C_8
REMARK    7  A    between atoms: C_16  and  N_17
REMARK    8  A    between atoms: C_27  and  C_28
REMARK                            x       y       z     vdW  Elec       q    Type
REMARK                         _______ _______ _______ _____ _____    ______ ____
ROOT
ATOM      1  C   UNL     1       1.066  10.480  19.841  0.00  0.00    +0.000 A 
ATOM      2  N   UNL     1       1.562  11.595  19.269  0.00  0.00    +0.000 NA
ATOM      3  C   UNL     1       1.229  12.802  19.766  0.00  0.00    +0.000 A 
ATOM      4  N   UNL     1       0.454  13.038  20.837  0.00  0.00    +0.000 NA
ATOM      5  C   UNL     1      -0.014  11.915  21.443  0.00  0.00    +0.000 A 
ATOM      6  C   UNL     1      -0.817  11.880  22.627  0.00  0.00    +0.000 A 
ATOM      7  C   UNL     1      -1.117  10.593  23.017  0.00  0.00    +0.000 A 
ATOM      8  S   UNL     1      -0.490   9.430  21.944  0.00  0.00    +0.000 S 
ATOM      9  C   UNL     1       0.254  10.636  20.967  0.00  0.00    +0.000 A 
ENDROOT
BRANCH   6  10
ATOM     10  N   UNL     1      -1.192  12.990  23.328  0.00  0.00    +0.000 N 
ATOM     11  C   UNL     1      -2.421  13.670  23.191  0.00  0.00    +0.000 A 
ATOM     12  C   UNL     1      -2.954  14.318  24.290  0.00  0.00    +0.000 A 
ATOM     13  C   UNL     1      -4.205  14.872  24.129  0.00  0.00    +0.000 A 
ATOM     14  N   UNL     1      -4.887  14.845  22.972  0.00  0.00    +0.000 NA
ATOM     15  C   UNL     1      -4.277  14.216  21.963  0.00  0.00    +0.000 A 
ATOM     16  N   UNL     1      -3.082  13.615  22.021  0.00  0.00    +0.000 NA
ATOM     17  H   UNL     1      -0.453  13.615  23.647  0.00  0.00    +0.000 HD
ENDBRANCH   6  10
BRANCH   3  18
ATOM     18  C   UNL     1       1.780  13.972  19.063  0.00  0.00    +0.000 A 
ATOM     19  C   UNL     1       2.953  13.878  18.300  0.00  0.00    +0.000 A 
ATOM     20  C   UNL     1       3.434  15.008  17.657  0.00  0.00    +0.000 A 
ATOM     21  N   UNL     1       2.834  16.215  17.711  0.00  0.00    +0.000 NA
ATOM     22  C   UNL     1       1.709  16.297  18.450  0.00  0.00    +0.000 A 
ATOM     23  C   UNL     1       1.158  15.227  19.134  0.00  0.00    +0.000 A 
ENDBRANCH   3  18
BRANCH   1  24
ATOM     24  N   UNL     1       1.389   9.239  19.351  0.00  0.00    +0.000 N 
ATOM     25  H   UNL     1       0.991   8.410  19.781  0.00  0.00    +0.000 HD
BRANCH  24  26
ATOM     26  C   UNL     1       2.061   9.052  18.084  0.00  0.00    +0.000 C 
BRANCH  26  27
ATOM     27  C   UNL     1       2.553   7.582  17.985  0.00  0.00    +0.000 C 
BRANCH  27  28
ATOM     28  N   UNL     1       3.911   7.512  17.394  0.00  0.00    +0.000 NA
ATOM     29  H   UNL     1       4.392   8.393  17.596  0.00  0.00    +0.000 HD
ATOM     30  H   UNL     1       3.837   7.469  16.379  0.00  0.00    +0.000 HD
ENDBRANCH  27  28
BRANCH  27  31
ATOM     31  C   UNL     1       2.476   6.925  19.379  0.00  0.00    +0.000 C 
BRANCH  31  32
ATOM     32  C   UNL     1       1.996   5.491  19.396  0.00  0.00    +0.000 A 
ATOM     33  C   UNL     1       1.597   4.896  20.600  0.00  0.00    +0.000 A 
ATOM     34  C   UNL     1       1.107   3.589  20.619  0.00  0.00    +0.000 A 
ATOM     35  C   UNL     1       1.012   2.862  19.434  0.00  0.00    +0.000 A 
ATOM     36  C   UNL     1       1.406   3.442  18.231  0.00  0.00    +0.000 A 
ATOM     37  C   UNL     1       1.894   4.750  18.210  0.00  0.00    +0.000 A 
ENDBRANCH  31  32
ENDBRANCH  27  31
ENDBRANCH  26  27
ENDBRANCH  24  26
ENDBRANCH   1  24
TORSDOF 8
ENDMDL
MODEL 9
REMARK VINA RESULT:      -7.6      2.603      5.092
REMARK  Name = 
REMARK  8 active torsions:
REMARK  status: ('A' for Active; 'I' for Inactive)
REMARK    1  A    between atoms: N_1  and  C_2
REMARK    2  A    between atoms: C_2  and  C_3
REMARK    3  A    between atoms: C_2  and  C_27
REMARK    4  A    between atoms: C_3  and  N_4
REMARK    5  A    between atoms: N_4  and  C_5
REMARK    6  A    between atoms: C_7  and  C_8
REMARK    7  A    between atoms: C_16  and  N_17
REMARK    8  A    between atoms: C_27  and  C_28
REMARK                            x       y       z     vdW  Elec       q    Type
REMARK                         _______ _______ _______ _____ _____    ______ ____
ROOT
ATOM      1  C   UNL     1       1.038   9.269  19.195  0.00  0.00    +0.000 A 
ATOM      2  N   UNL     1       0.060   9.646  18.346  0.00  0.00    +0.000 NA
ATOM      3  C   UNL     1      -1.110  10.094  18.838  0.00  0.00    +0.000 A 
ATOM      4  N   UNL     1      -1.423  10.252  20.135  0.00  0.00    +0.000 NA
ATOM      5  C   UNL     1      -0.424   9.914  20.993  0.00  0.00    +0.000 A 
ATOM      6  C   UNL     1      -0.474  10.033  22.418  0.00  0.00    +0.000 A 
ATOM      7  C   UNL     1       0.700   9.633  23.017  0.00  0.00    +0.000 A 
ATOM      8  S   UNL     1       1.840   9.066  21.888  0.00  0.00    +0.000 S 
ATOM      9  C   UNL     1       0.798   9.408  20.563  0.00  0.00    +0.000 A 
ENDROOT
BRANCH   6  10
ATOM     10  N   UNL     1      -1.539  10.543  23.105  0.00  0.00    +0.000 N 
ATOM     11  C   UNL     1      -1.837  11.914  23.258  0.00  0.00    +0.000 A 
ATOM     12  C   UNL     1      -3.157  12.303  23.382  0.00  0.00    +0.000 A 
ATOM     13  C   UNL     1      -3.396  13.660  23.420  0.00  0.00    +0.000 A 
ATOM     14  N   UNL     1      -2.425  14.587  23.385  0.00  0.00    +0.000 NA
ATOM     15  C   UNL     1      -1.180  14.109  23.288  0.00  0.00    +0.000 A 
ATOM     16  N   UNL     1      -0.841  12.817  23.209  0.00  0.00    +0.000 NA
ATOM     17  H   UNL     1      -1.903   9.992  23.881  0.00  0.00    +0.000 HD
ENDBRANCH   6  10
BRANCH   3  18
ATOM     18  C   UNL     1      -2.141  10.450  17.849  0.00  0.00    +0.000 A 
ATOM     19  C   UNL     1      -2.059  10.009  16.521  0.00  0.00    +0.000 A 
ATOM     20  C   UNL     1      -3.054  10.371  15.626  0.00  0.00    +0.000 A 
ATOM     21  N   UNL     1      -4.120  11.128  15.955  0.00  0.00    +0.000 NA
ATOM     22  C   UNL     1      -4.190  11.550  17.233  0.00  0.00    +0.000 A 
ATOM     23  C   UNL     1      -3.241  11.248  18.196  0.00  0.00    +0.000 A 
ENDBRANCH   3  18
BRANCH   1  24
ATOM     24  N   UNL     1       2.239   8.807  18.716  0.00  0.00    +0.000 N 
ATOM     25  H   UNL     1       3.105   9.132  19.136  0.00  0.00    +0.000 HD
BRANCH  24  26
ATOM     26  C   UNL     1       2.339   7.678  17.817  0.00  0.00    +0.000 C 
BRANCH  26  27
ATOM     27  C   UNL     1       3.358   6.659  18.396  0.00  0.00    +0.000 C 
BRANCH  27  28
ATOM     28  N   UNL     1       3.013   6.292  19.790  0.00  0.00    +0.000 NA
ATOM     29  H   UNL     1       2.752   7.146  20.289  0.00  0.00    +0.000 HD
ATOM     30  H   UNL     1       3.843   5.942  20.264  0.00  0.00    +0.000 HD
ENDBRANCH  27  28
BRANCH  27  31
ATOM     31  C   UNL     1       3.438   5.434  17.459  0.00  0.00    +0.000 C 
BRANCH  31  32
ATOM     32  C   UNL     1       2.886   4.146  18.026  0.00  0.00    +0.000 A 
ATOM     33  C   UNL     1       1.502   3.943  18.097  0.00  0.00    +0.000 A 
ATOM     34  C   UNL     1       0.983   2.738  18.574  0.00  0.00    +0.000 A 
ATOM     35  C   UNL     1       1.843   1.722  18.986  0.00  0.00    +0.000 A 
ATOM     36  C   UNL     1       3.221   1.912  18.922  0.00  0.00    +0.000 A 
ATOM     37  C   UNL     1       3.742   3.115  18.443  0.00  0.00    +0.000 A 
ENDBRANCH  31  32
ENDBRANCH  27  31
ENDBRANCH  26  27
ENDBRANCH  24  26
ENDBRANCH   1  24
TORSDOF 8
ENDMDL
