MODEL 1
REMARK VINA RESULT:      -6.6      0.000      0.000
REMARK  Name = 
REMARK  8 active torsions:
REMARK  status: ('A' for Active; 'I' for Inactive)
REMARK    1  A    between atoms: C_1  and  O_2
REMARK    2  A    between atoms: O_2  and  C_3
REMARK    3  A    between atoms: C_3  and  C_5
REMARK    4  A    between atoms: C_6  and  C_7
REMARK    5  A    between atoms: C_7  and  N_8
REMARK    6  A    between atoms: C_17  and  C_18
REMARK    7  A    between atoms: C_24  and  C_25
REMARK    8  A    between atoms: C_24  and  C_26
REMARK                            x       y       z     vdW  Elec       q    Type
REMARK                         _______ _______ _______ _____ _____    ______ ____
ROOT
ATOM      1  C   UNL     1      -1.207  13.655  20.707  0.00  0.00    +0.000 C 
ATOM      2  C   UNL     1      -0.808  13.905  19.438  0.00  0.00    +0.000 C 
ATOM      3  N   UNL     1      -1.087  12.917  18.507  0.00  0.00    +0.000 N 
ATOM      4  C   UNL     1      -2.096  11.998  18.660  0.00  0.00    +0.000 C 
ATOM      5  N   UNL     1      -2.582  11.708  19.823  0.00  0.00    +0.000 NA
ATOM      6  C   UNL     1      -1.945  12.340  21.017  0.00  0.00    +0.000 C 
ATOM      7  C   UNL     1      -0.890  11.296  21.465  0.00  0.00    +0.000 C 
ATOM      8  H   UNL     1      -0.752  13.046  17.558  0.00  0.00    +0.000 HD
ENDROOT
BRANCH   6   9
ATOM      9  C   UNL     1      -3.100  12.554  22.027  0.00  0.00    +0.000 A 
ATOM     10  C   UNL     1      -2.970  12.253  23.395  0.00  0.00    +0.000 A 
ATOM     11  C   UNL     1      -4.031  12.456  24.279  0.00  0.00    +0.000 A 
ATOM     12  C   UNL     1      -5.236  12.953  23.803  0.00  0.00    +0.000 A 
ATOM     13  F   UNL     1      -6.254  13.141  24.655  0.00  0.00    +0.000 F 
ATOM     14  C   UNL     1      -5.402  13.254  22.463  0.00  0.00    +0.000 A 
ATOM     15  C   UNL     1      -4.337  13.057  21.574  0.00  0.00    +0.000 A 
ENDBRANCH   6   9
BRANCH   4  16
ATOM     16  C   UNL     1      -2.667  11.355  17.471  0.00  0.00    +0.000 A 
ATOM     17  N   UNL     1      -1.911  10.627  16.669  0.00  0.00    +0.000 NA
ATOM     18  C   UNL     1      -2.676  10.163  15.617  0.00  0.00    +0.000 A 
ATOM     19  C   UNL     1      -3.991  10.569  15.616  0.00  0.00    +0.000 A 
ATOM     20  S   UNL     1      -4.300  11.539  16.996  0.00  0.00    +0.000 S 
ENDBRANCH   4  16
BRANCH   1  21
ATOM     21  C   UNL     1      -0.828  14.581  21.814  0.00  0.00    +0.000 C 
ATOM     22  O   UNL     1       0.098  14.405  22.589  0.00  0.00    +0.000 OA
BRANCH  21  24
ATOM     23  C   UNL     1      -1.459  16.634  22.807  0.00  0.00    +0.000 C 
ATOM     24  O   UNL     1      -1.746  15.570  21.903  0.00  0.00    +0.000 OA
ENDBRANCH  21  24
ENDBRANCH   1  21
BRANCH   2  25
ATOM     25  C   UNL     1      -0.093  15.185  18.981  0.00  0.00    +0.000 C 
BRANCH  25  26
ATOM     26  N   UNL     1       1.383  15.231  19.058  0.00  0.00    +0.000 NA
ATOM     27  C   UNL     1       1.953  16.569  18.896  0.00  0.00    +0.000 C 
ATOM     28  C   UNL     1       3.467  16.614  18.760  0.00  0.00    +0.000 C 
ATOM     29  C   UNL     1       3.970  15.492  17.882  0.00  0.00    +0.000 C 
ATOM     30  F   UNL     1       5.322  15.539  17.813  0.00  0.00    +0.000 F 
ATOM     31  F   UNL     1       3.513  15.649  16.614  0.00  0.00    +0.000 F 
ATOM     32  C   UNL     1       3.532  14.150  18.408  0.00  0.00    +0.000 C 
ATOM     33  C   UNL     1       2.016  14.086  18.409  0.00  0.00    +0.000 C 
ENDBRANCH  25  26
ENDBRANCH   2  25
TORSDOF 6
ENDMDL
MODEL 2
REMARK VINA RESULT:      -6.6      3.141      4.558
REMARK  Name = 
REMARK  8 active torsions:
REMARK  status: ('A' for Active; 'I' for Inactive)
REMARK    1  A    between atoms: C_1  and  O_2
REMARK    2  A    between atoms: O_2  and  C_3
REMARK    3  A    between atoms: C_3  and  C_5
REMARK    4  A    between atoms: C_6  and  C_7
REMARK    5  A    between atoms: C_7  and  N_8
REMARK    6  A    between atoms: C_17  and  C_18
REMARK    7  A    between atoms: C_24  and  C_25
REMARK    8  A    between atoms: C_24  and  C_26
REMARK                            x       y       z     vdW  Elec       q    Type
REMARK                         _______ _______ _______ _____ _____    ______ ____
ROOT
ATOM      1  C   UNL     1       0.646  12.847  19.525  0.00  0.00    +0.000 C 
ATOM      2  C   UNL     1      -0.012  13.683  18.688  0.00  0.00    +0.000 C 
ATOM      3  N   UNL     1      -0.874  13.084  17.784  0.00  0.00    +0.000 N 
ATOM      4  C   UNL     1      -1.442  11.851  17.984  0.00  0.00    +0.000 C 
ATOM      5  N   UNL     1      -0.921  10.984  18.791  0.00  0.00    +0.000 NA
ATOM      6  C   UNL     1       0.381  11.334  19.435  0.00  0.00    +0.000 C 
ATOM      7  C   UNL     1       1.438  10.721  18.480  0.00  0.00    +0.000 C 
ATOM      8  H   UNL     1      -1.341  13.677  17.104  0.00  0.00    +0.000 HD
ENDROOT
BRANCH   6   9
ATOM      9  C   UNL     1       0.330  10.675  20.836  0.00  0.00    +0.000 A 
ATOM     10  C   UNL     1       1.254   9.695  21.243  0.00  0.00    +0.000 A 
ATOM     11  C   UNL     1       1.179   9.121  22.512  0.00  0.00    +0.000 A 
ATOM     12  C   UNL     1       0.174   9.512  23.386  0.00  0.00    +0.000 A 
ATOM     13  F   UNL     1       0.103   8.954  24.602  0.00  0.00    +0.000 F 
ATOM     14  C   UNL     1      -0.755  10.469  23.018  0.00  0.00    +0.000 A 
ATOM     15  C   UNL     1      -0.679  11.052  21.746  0.00  0.00    +0.000 A 
ENDBRANCH   6   9
BRANCH   4  16
ATOM     16  C   UNL     1      -2.696  11.517  17.297  0.00  0.00    +0.000 A 
ATOM     17  N   UNL     1      -3.861  11.735  17.879  0.00  0.00    +0.000 NA
ATOM     18  C   UNL     1      -4.875  11.309  17.044  0.00  0.00    +0.000 A 
ATOM     19  C   UNL     1      -4.466  10.745  15.856  0.00  0.00    +0.000 A 
ATOM     20  S   UNL     1      -2.755  10.776  15.757  0.00  0.00    +0.000 S 
ENDBRANCH   4  16
BRANCH   1  21
ATOM     21  C   UNL     1       1.705  13.370  20.436  0.00  0.00    +0.000 C 
ATOM     22  O   UNL     1       1.523  13.743  21.583  0.00  0.00    +0.000 OA
BRANCH  21  24
ATOM     23  C   UNL     1       3.626  14.672  19.970  0.00  0.00    +0.000 C 
ATOM     24  O   UNL     1       2.865  13.487  19.751  0.00  0.00    +0.000 OA
ENDBRANCH  21  24
ENDBRANCH   1  21
BRANCH   2  25
ATOM     25  C   UNL     1       0.130  15.213  18.688  0.00  0.00    +0.000 C 
BRANCH  25  26
ATOM     26  N   UNL     1      -0.601  15.986  19.715  0.00  0.00    +0.000 NA
ATOM     27  C   UNL     1       0.235  16.908  20.484  0.00  0.00    +0.000 C 
ATOM     28  C   UNL     1      -0.447  17.554  21.679  0.00  0.00    +0.000 C 
ATOM     29  C   UNL     1      -1.313  16.560  22.417  0.00  0.00    +0.000 C 
ATOM     30  F   UNL     1      -1.933  17.177  23.451  0.00  0.00    +0.000 F 
ATOM     31  F   UNL     1      -0.545  15.580  22.957  0.00  0.00    +0.000 F 
ATOM     32  C   UNL     1      -2.337  15.945  21.501  0.00  0.00    +0.000 C 
ATOM     33  C   UNL     1      -1.626  15.195  20.391  0.00  0.00    +0.000 C 
ENDBRANCH  25  26
ENDBRANCH   2  25
TORSDOF 6
ENDMDL
MODEL 3
REMARK VINA RESULT:      -6.6      3.110      4.529
REMARK  Name = 
REMARK  8 active torsions:
REMARK  status: ('A' for Active; 'I' for Inactive)
REMARK    1  A    between atoms: C_1  and  O_2
REMARK    2  A    between atoms: O_2  and  C_3
REMARK    3  A    between atoms: C_3  and  C_5
REMARK    4  A    between atoms: C_6  and  C_7
REMARK    5  A    between atoms: C_7  and  N_8
REMARK    6  A    between atoms: C_17  and  C_18
REMARK    7  A    between atoms: C_24  and  C_25
REMARK    8  A    between atoms: C_24  and  C_26
REMARK                            x       y       z     vdW  Elec       q    Type
REMARK                         _______ _______ _______ _____ _____    ______ ____
ROOT
ATOM      1  C   UNL     1       0.643  12.808  19.531  0.00  0.00    +0.000 C 
ATOM      2  C   UNL     1       0.007  13.640  18.673  0.00  0.00    +0.000 C 
ATOM      3  N   UNL     1      -0.859  13.039  17.774  0.00  0.00    +0.000 N 
ATOM      4  C   UNL     1      -1.451  11.820  17.993  0.00  0.00    +0.000 C 
ATOM      5  N   UNL     1      -0.952  10.960  18.820  0.00  0.00    +0.000 NA
ATOM      6  C   UNL     1       0.351  11.298  19.468  0.00  0.00    +0.000 C 
ATOM      7  C   UNL     1       1.404  10.648  18.532  0.00  0.00    +0.000 C 
ATOM      8  H   UNL     1      -1.310  13.627  17.079  0.00  0.00    +0.000 HD
ENDROOT
BRANCH   6   9
ATOM      9  C   UNL     1       0.278  10.667  20.880  0.00  0.00    +0.000 A 
ATOM     10  C   UNL     1      -0.711  11.025  21.815  0.00  0.00    +0.000 A 
ATOM     11  C   UNL     1      -0.748  10.437  23.081  0.00  0.00    +0.000 A 
ATOM     12  C   UNL     1       0.207   9.494  23.429  0.00  0.00    +0.000 A 
ATOM     13  F   UNL     1       0.170   8.936  24.647  0.00  0.00    +0.000 F 
ATOM     14  C   UNL     1       1.198   9.122  22.537  0.00  0.00    +0.000 A 
ATOM     15  C   UNL     1       1.234   9.705  21.264  0.00  0.00    +0.000 A 
ENDBRANCH   6   9
BRANCH   4  16
ATOM     16  C   UNL     1      -2.706  11.496  17.303  0.00  0.00    +0.000 A 
ATOM     17  N   UNL     1      -2.700  11.119  16.037  0.00  0.00    +0.000 NA
ATOM     18  C   UNL     1      -3.999  10.904  15.620  0.00  0.00    +0.000 A 
ATOM     19  C   UNL     1      -4.973  11.153  16.561  0.00  0.00    +0.000 A 
ATOM     20  S   UNL     1      -4.245  11.639  18.035  0.00  0.00    +0.000 S 
ENDBRANCH   4  16
BRANCH   1  21
ATOM     21  C   UNL     1       1.705  13.329  20.440  0.00  0.00    +0.000 C 
ATOM     22  O   UNL     1       1.529  13.682  21.594  0.00  0.00    +0.000 OA
BRANCH  21  24
ATOM     23  C   UNL     1       3.634  14.633  20.017  0.00  0.00    +0.000 C 
ATOM     24  O   UNL     1       2.857  13.469  19.746  0.00  0.00    +0.000 OA
ENDBRANCH  21  24
ENDBRANCH   1  21
BRANCH   2  25
ATOM     25  C   UNL     1       0.177  15.166  18.646  0.00  0.00    +0.000 C 
BRANCH  25  26
ATOM     26  N   UNL     1      -0.520  15.969  19.674  0.00  0.00    +0.000 NA
ATOM     27  C   UNL     1       0.361  16.830  20.464  0.00  0.00    +0.000 C 
ATOM     28  C   UNL     1      -0.295  17.501  21.660  0.00  0.00    +0.000 C 
ATOM     29  C   UNL     1      -1.227  16.552  22.376  0.00  0.00    +0.000 C 
ATOM     30  F   UNL     1      -1.822  17.192  23.411  0.00  0.00    +0.000 F 
ATOM     31  F   UNL     1      -0.525  15.521  22.912  0.00  0.00    +0.000 F 
ATOM     32  C   UNL     1      -2.276  16.009  21.441  0.00  0.00    +0.000 C 
ATOM     33  C   UNL     1      -1.597  15.232  20.329  0.00  0.00    +0.000 C 
ENDBRANCH  25  26
ENDBRANCH   2  25
TORSDOF 6
ENDMDL
MODEL 4
REMARK VINA RESULT:      -6.5      0.440      1.148
REMARK  Name = 
REMARK  8 active torsions:
REMARK  status: ('A' for Active; 'I' for Inactive)
REMARK    1  A    between atoms: C_1  and  O_2
REMARK    2  A    between atoms: O_2  and  C_3
REMARK    3  A    between atoms: C_3  and  C_5
REMARK    4  A    between atoms: C_6  and  C_7
REMARK    5  A    between atoms: C_7  and  N_8
REMARK    6  A    between atoms: C_17  and  C_18
REMARK    7  A    between atoms: C_24  and  C_25
REMARK    8  A    between atoms: C_24  and  C_26
REMARK                            x       y       z     vdW  Elec       q    Type
REMARK                         _______ _______ _______ _____ _____    ______ ____
ROOT
ATOM      1  C   UNL     1      -1.277  13.687  20.598  0.00  0.00    +0.000 C 
ATOM      2  C   UNL     1      -0.863  13.901  19.326  0.00  0.00    +0.000 C 
ATOM      3  N   UNL     1      -1.115  12.880  18.425  0.00  0.00    +0.000 N 
ATOM      4  C   UNL     1      -2.111  11.950  18.594  0.00  0.00    +0.000 C 
ATOM      5  N   UNL     1      -2.609  11.690  19.759  0.00  0.00    +0.000 NA
ATOM      6  C   UNL     1      -1.999  12.372  20.940  0.00  0.00    +0.000 C 
ATOM      7  C   UNL     1      -0.934  11.359  21.437  0.00  0.00    +0.000 C 
ATOM      8  H   UNL     1      -0.768  12.984  17.476  0.00  0.00    +0.000 HD
ENDROOT
BRANCH   6   9
ATOM      9  C   UNL     1      -3.171  12.599  21.926  0.00  0.00    +0.000 A 
ATOM     10  C   UNL     1      -4.405  13.137  21.519  0.00  0.00    +0.000 A 
ATOM     11  C   UNL     1      -5.441  13.331  22.435  0.00  0.00    +0.000 A 
ATOM     12  C   UNL     1      -5.251  12.997  23.768  0.00  0.00    +0.000 A 
ATOM     13  F   UNL     1      -6.248  13.190  24.644  0.00  0.00    +0.000 F 
ATOM     14  C   UNL     1      -4.049  12.470  24.205  0.00  0.00    +0.000 A 
ATOM     15  C   UNL     1      -3.009  12.270  23.288  0.00  0.00    +0.000 A 
ENDBRANCH   6   9
BRANCH   4  16
ATOM     16  C   UNL     1      -2.656  11.260  17.418  0.00  0.00    +0.000 A 
ATOM     17  N   UNL     1      -1.899  10.446  16.704  0.00  0.00    +0.000 NA
ATOM     18  C   UNL     1      -2.634   9.953  15.645  0.00  0.00    +0.000 A 
ATOM     19  C   UNL     1      -3.925  10.422  15.549  0.00  0.00    +0.000 A 
ATOM     20  S   UNL     1      -4.251  11.492  16.848  0.00  0.00    +0.000 S 
ENDBRANCH   4  16
BRANCH   1  21
ATOM     21  C   UNL     1      -0.928  14.654  21.678  0.00  0.00    +0.000 C 
ATOM     22  O   UNL     1      -1.616  15.601  22.021  0.00  0.00    +0.000 OA
BRANCH  21  24
ATOM     23  C   UNL     1       1.135  15.516  22.456  0.00  0.00    +0.000 C 
ATOM     24  O   UNL     1       0.322  14.392  22.124  0.00  0.00    +0.000 OA
ENDBRANCH  21  24
ENDBRANCH   1  21
BRANCH   2  25
ATOM     25  C   UNL     1      -0.162  15.177  18.838  0.00  0.00    +0.000 C 
BRANCH  25  26
ATOM     26  N   UNL     1       1.309  15.264  18.968  0.00  0.00    +0.000 NA
ATOM     27  C   UNL     1       1.853  16.608  18.770  0.00  0.00    +0.000 C 
ATOM     28  C   UNL     1       3.369  16.685  18.689  0.00  0.00    +0.000 C 
ATOM     29  C   UNL     1       3.932  15.540  17.879  0.00  0.00    +0.000 C 
ATOM     30  F   UNL     1       5.284  15.620  17.859  0.00  0.00    +0.000 F 
ATOM     31  F   UNL     1       3.520  15.632  16.589  0.00  0.00    +0.000 F 
ATOM     32  C   UNL     1       3.507  14.212  18.446  0.00  0.00    +0.000 C 
ATOM     33  C   UNL     1       1.994  14.109  18.393  0.00  0.00    +0.000 C 
ENDBRANCH  25  26
ENDBRANCH   2  25
TORSDOF 6
ENDMDL
MODEL 5
REMARK VINA RESULT:      -6.5      5.622      8.343
REMARK  Name = 
REMARK  8 active torsions:
REMARK  status: ('A' for Active; 'I' for Inactive)
REMARK    1  A    between atoms: C_1  and  O_2
REMARK    2  A    between atoms: O_2  and  C_3
REMARK    3  A    between atoms: C_3  and  C_5
REMARK    4  A    between atoms: C_6  and  C_7
REMARK    5  A    between atoms: C_7  and  N_8
REMARK    6  A    between atoms: C_17  and  C_18
REMARK    7  A    between atoms: C_24  and  C_25
REMARK    8  A    between atoms: C_24  and  C_26
REMARK                            x       y       z     vdW  Elec       q    Type
REMARK                         _______ _______ _______ _____ _____    ______ ____
ROOT
ATOM      1  C   UNL     1       5.203  15.544  20.415  0.00  0.00    +0.000 C 
ATOM      2  C   UNL     1       6.452  15.182  20.792  0.00  0.00    +0.000 C 
ATOM      3  N   UNL     1       6.577  14.678  22.076  0.00  0.00    +0.000 N 
ATOM      4  C   UNL     1       5.540  14.102  22.767  0.00  0.00    +0.000 C 
ATOM      5  N   UNL     1       4.305  14.346  22.470  0.00  0.00    +0.000 NA
ATOM      6  C   UNL     1       4.037  15.355  21.402  0.00  0.00    +0.000 C 
ATOM      7  C   UNL     1       3.858  16.681  22.188  0.00  0.00    +0.000 C 
ATOM      8  H   UNL     1       7.508  14.449  22.411  0.00  0.00    +0.000 HD
ENDROOT
BRANCH   6   9
ATOM      9  C   UNL     1       2.755  14.860  20.688  0.00  0.00    +0.000 A 
ATOM     10  C   UNL     1       2.599  13.530  20.257  0.00  0.00    +0.000 A 
ATOM     11  C   UNL     1       1.430  13.116  19.615  0.00  0.00    +0.000 A 
ATOM     12  C   UNL     1       0.410  14.028  19.390  0.00  0.00    +0.000 A 
ATOM     13  F   UNL     1      -0.708  13.627  18.769  0.00  0.00    +0.000 F 
ATOM     14  C   UNL     1       0.531  15.346  19.796  0.00  0.00    +0.000 A 
ATOM     15  C   UNL     1       1.700  15.763  20.445  0.00  0.00    +0.000 A 
ENDBRANCH   6   9
BRANCH   4  16
ATOM     16  C   UNL     1       5.836  13.151  23.846  0.00  0.00    +0.000 A 
ATOM     17  N   UNL     1       5.270  13.282  25.032  0.00  0.00    +0.000 NA
ATOM     18  C   UNL     1       5.735  12.288  25.871  0.00  0.00    +0.000 A 
ATOM     19  C   UNL     1       6.669  11.438  25.322  0.00  0.00    +0.000 A 
ATOM     20  S   UNL     1       6.957  11.869  23.688  0.00  0.00    +0.000 S 
ENDBRANCH   4  16
BRANCH   1  21
ATOM     21  C   UNL     1       4.978  16.233  19.111  0.00  0.00    +0.000 C 
ATOM     22  O   UNL     1       4.884  17.441  18.964  0.00  0.00    +0.000 OA
BRANCH  21  24
ATOM     23  C   UNL     1       3.675  15.543  17.260  0.00  0.00    +0.000 C 
ATOM     24  O   UNL     1       4.765  15.309  18.148  0.00  0.00    +0.000 OA
ENDBRANCH  21  24
ENDBRANCH   1  21
BRANCH   2  25
ATOM     25  C   UNL     1       7.699  15.284  19.901  0.00  0.00    +0.000 C 
BRANCH  25  26
ATOM     26  N   UNL     1       8.343  14.032  19.448  0.00  0.00    +0.000 NA
ATOM     27  C   UNL     1       9.728  13.871  19.894  0.00  0.00    +0.000 C 
ATOM     28  C   UNL     1      10.475  12.703  19.271  0.00  0.00    +0.000 C 
ATOM     29  C   UNL     1      10.159  12.575  17.799  0.00  0.00    +0.000 C 
ATOM     30  F   UNL     1      10.811  11.504  17.285  0.00  0.00    +0.000 F 
ATOM     31  F   UNL     1      10.613  13.662  17.126  0.00  0.00    +0.000 F 
ATOM     32  C   UNL     1       8.678  12.428  17.571  0.00  0.00    +0.000 C 
ATOM     33  C   UNL     1       7.970  13.668  18.084  0.00  0.00    +0.000 C 
ENDBRANCH  25  26
ENDBRANCH   2  25
TORSDOF 6
ENDMDL
MODEL 6
REMARK VINA RESULT:      -6.5      8.959     10.560
REMARK  Name = 
REMARK  8 active torsions:
REMARK  status: ('A' for Active; 'I' for Inactive)
REMARK    1  A    between atoms: C_1  and  O_2
REMARK    2  A    between atoms: O_2  and  C_3
REMARK    3  A    between atoms: C_3  and  C_5
REMARK    4  A    between atoms: C_6  and  C_7
REMARK    5  A    between atoms: C_7  and  N_8
REMARK    6  A    between atoms: C_17  and  C_18
REMARK    7  A    between atoms: C_24  and  C_25
REMARK    8  A    between atoms: C_24  and  C_26
REMARK                            x       y       z     vdW  Elec       q    Type
REMARK                         _______ _______ _______ _____ _____    ______ ____
ROOT
ATOM      1  C   UNL     1       3.711   5.279  18.083  0.00  0.00    +0.000 C 
ATOM      2  C   UNL     1       4.294   6.450  17.734  0.00  0.00    +0.000 C 
ATOM      3  N   UNL     1       3.468   7.563  17.728  0.00  0.00    +0.000 N 
ATOM      4  C   UNL     1       2.314   7.652  18.466  0.00  0.00    +0.000 C 
ATOM      5  N   UNL     1       1.691   6.599  18.885  0.00  0.00    +0.000 NA
ATOM      6  C   UNL     1       2.218   5.268  18.460  0.00  0.00    +0.000 C 
ATOM      7  C   UNL     1       1.405   4.944  17.180  0.00  0.00    +0.000 C 
ATOM      8  H   UNL     1       3.860   8.447  17.417  0.00  0.00    +0.000 HD
ENDROOT
BRANCH   6   9
ATOM      9  C   UNL     1       1.935   4.321  19.652  0.00  0.00    +0.000 A 
ATOM     10  C   UNL     1       2.353   4.613  20.963  0.00  0.00    +0.000 A 
ATOM     11  C   UNL     1       2.082   3.736  22.015  0.00  0.00    +0.000 A 
ATOM     12  C   UNL     1       1.399   2.554  21.767  0.00  0.00    +0.000 A 
ATOM     13  F   UNL     1       1.145   1.714  22.780  0.00  0.00    +0.000 F 
ATOM     14  C   UNL     1       0.977   2.232  20.489  0.00  0.00    +0.000 A 
ATOM     15  C   UNL     1       1.242   3.112  19.432  0.00  0.00    +0.000 A 
ENDBRANCH   6   9
BRANCH   4  16
ATOM     16  C   UNL     1       1.792   8.976  18.825  0.00  0.00    +0.000 A 
ATOM     17  N   UNL     1       2.000  10.018  18.040  0.00  0.00    +0.000 NA
ATOM     18  C   UNL     1       1.438  11.141  18.615  0.00  0.00    +0.000 A 
ATOM     19  C   UNL     1       0.841  10.945  19.840  0.00  0.00    +0.000 A 
ATOM     20  S   UNL     1       0.951   9.291  20.281  0.00  0.00    +0.000 S 
ENDBRANCH   4  16
BRANCH   1  21
ATOM     21  C   UNL     1       4.468   3.999  17.980  0.00  0.00    +0.000 C 
ATOM     22  O   UNL     1       4.398   3.215  17.048  0.00  0.00    +0.000 OA
BRANCH  21  24
ATOM     23  C   UNL     1       4.902   2.541  19.794  0.00  0.00    +0.000 C 
ATOM     24  O   UNL     1       5.138   3.783  19.135  0.00  0.00    +0.000 OA
ENDBRANCH  21  24
ENDBRANCH   1  21
BRANCH   2  25
ATOM     25  C   UNL     1       5.776   6.614  17.366  0.00  0.00    +0.000 C 
BRANCH  25  26
ATOM     26  N   UNL     1       6.213   6.206  16.014  0.00  0.00    +0.000 NA
ATOM     27  C   UNL     1       5.118   5.978  15.071  0.00  0.00    +0.000 C 
ATOM     28  C   UNL     1       5.527   5.356  13.744  0.00  0.00    +0.000 C 
ATOM     29  C   UNL     1       6.560   4.272  13.945  0.00  0.00    +0.000 C 
ATOM     30  F   UNL     1       6.928   3.767  12.743  0.00  0.00    +0.000 F 
ATOM     31  F   UNL     1       6.027   3.242  14.649  0.00  0.00    +0.000 F 
ATOM     32  C   UNL     1       7.770   4.800  14.669  0.00  0.00    +0.000 C 
ATOM     33  C   UNL     1       7.353   5.293  16.042  0.00  0.00    +0.000 C 
ENDBRANCH  25  26
ENDBRANCH   2  25
TORSDOF 6
ENDMDL
MODEL 7
REMARK VINA RESULT:      -6.4      0.799      1.167
REMARK  Name = 
REMARK  8 active torsions:
REMARK  status: ('A' for Active; 'I' for Inactive)
REMARK    1  A    between atoms: C_1  and  O_2
REMARK    2  A    between atoms: O_2  and  C_3
REMARK    3  A    between atoms: C_3  and  C_5
REMARK    4  A    between atoms: C_6  and  C_7
REMARK    5  A    between atoms: C_7  and  N_8
REMARK    6  A    between atoms: C_17  and  C_18
REMARK    7  A    between atoms: C_24  and  C_25
REMARK    8  A    between atoms: C_24  and  C_26
REMARK                            x       y       z     vdW  Elec       q    Type
REMARK                         _______ _______ _______ _____ _____    ______ ____
ROOT
ATOM      1  C   UNL     1      -1.444  13.829  21.069  0.00  0.00    +0.000 C 
ATOM      2  C   UNL     1      -1.006  14.115  19.820  0.00  0.00    +0.000 C 
ATOM      3  N   UNL     1      -1.207  13.131  18.865  0.00  0.00    +0.000 N 
ATOM      4  C   UNL     1      -2.180  12.168  18.965  0.00  0.00    +0.000 C 
ATOM      5  N   UNL     1      -2.698  11.839  20.103  0.00  0.00    +0.000 NA
ATOM      6  C   UNL     1      -2.136  12.479  21.330  0.00  0.00    +0.000 C 
ATOM      7  C   UNL     1      -1.055  11.473  21.805  0.00  0.00    +0.000 C 
ATOM      8  H   UNL     1      -0.841  13.290  17.931  0.00  0.00    +0.000 HD
ENDROOT
BRANCH   6   9
ATOM      9  C   UNL     1      -3.337  12.627  22.296  0.00  0.00    +0.000 A 
ATOM     10  C   UNL     1      -3.247  12.313  23.665  0.00  0.00    +0.000 A 
ATOM     11  C   UNL     1      -4.349  12.457  24.509  0.00  0.00    +0.000 A 
ATOM     12  C   UNL     1      -5.556  12.907  23.993  0.00  0.00    +0.000 A 
ATOM     13  F   UNL     1      -6.613  13.038  24.806  0.00  0.00    +0.000 F 
ATOM     14  C   UNL     1      -5.683  13.220  22.651  0.00  0.00    +0.000 A 
ATOM     15  C   UNL     1      -4.576  13.082  21.802  0.00  0.00    +0.000 A 
ENDBRANCH   6   9
BRANCH   4  16
ATOM     16  C   UNL     1      -2.677  11.520  17.745  0.00  0.00    +0.000 A 
ATOM     17  N   UNL     1      -1.851  10.873  16.942  0.00  0.00    +0.000 NA
ATOM     18  C   UNL     1      -2.557  10.386  15.859  0.00  0.00    +0.000 A 
ATOM     19  C   UNL     1      -3.899  10.695  15.838  0.00  0.00    +0.000 A 
ATOM     20  S   UNL     1      -4.308  11.599  17.236  0.00  0.00    +0.000 S 
ENDBRANCH   4  16
BRANCH   1  21
ATOM     21  C   UNL     1      -1.148  14.752  22.202  0.00  0.00    +0.000 C 
ATOM     22  O   UNL     1      -0.232  14.616  22.996  0.00  0.00    +0.000 OA
BRANCH  21  24
ATOM     23  C   UNL     1      -2.558  16.042  23.598  0.00  0.00    +0.000 C 
ATOM     24  O   UNL     1      -2.127  15.681  22.288  0.00  0.00    +0.000 OA
ENDBRANCH  21  24
ENDBRANCH   1  21
BRANCH   2  25
ATOM     25  C   UNL     1      -0.330  15.432  19.409  0.00  0.00    +0.000 C 
BRANCH  25  26
ATOM     26  N   UNL     1       1.035  15.373  18.843  0.00  0.00    +0.000 NA
ATOM     27  C   UNL     1       1.964  14.533  19.598  0.00  0.00    +0.000 C 
ATOM     28  C   UNL     1       3.418  14.623  19.161  0.00  0.00    +0.000 C 
ATOM     29  C   UNL     1       3.807  16.050  18.849  0.00  0.00    +0.000 C 
ATOM     30  F   UNL     1       5.093  16.089  18.428  0.00  0.00    +0.000 F 
ATOM     31  F   UNL     1       3.745  16.808  19.973  0.00  0.00    +0.000 F 
ATOM     32  C   UNL     1       2.907  16.642  17.797  0.00  0.00    +0.000 C 
ATOM     33  C   UNL     1       1.480  16.659  18.314  0.00  0.00    +0.000 C 
ENDBRANCH  25  26
ENDBRANCH   2  25
TORSDOF 6
ENDMDL
MODEL 8
REMARK VINA RESULT:      -6.4      5.845      8.647
REMARK  Name = 
REMARK  8 active torsions:
REMARK  status: ('A' for Active; 'I' for Inactive)
REMARK    1  A    between atoms: C_1  and  O_2
REMARK    2  A    between atoms: O_2  and  C_3
REMARK    3  A    between atoms: C_3  and  C_5
REMARK    4  A    between atoms: C_6  and  C_7
REMARK    5  A    between atoms: C_7  and  N_8
REMARK    6  A    between atoms: C_17  and  C_18
REMARK    7  A    between atoms: C_24  and  C_25
REMARK    8  A    between atoms: C_24  and  C_26
REMARK                            x       y       z     vdW  Elec       q    Type
REMARK                         _______ _______ _______ _____ _____    ______ ____
ROOT
ATOM      1  C   UNL     1       5.574  15.512  20.005  0.00  0.00    +0.000 C 
ATOM      2  C   UNL     1       6.817  14.996  20.154  0.00  0.00    +0.000 C 
ATOM      3  N   UNL     1       7.103  14.448  21.394  0.00  0.00    +0.000 N 
ATOM      4  C   UNL     1       6.141  13.980  22.254  0.00  0.00    +0.000 C 
ATOM      5  N   UNL     1       4.911  14.375  22.180  0.00  0.00    +0.000 NA
ATOM      6  C   UNL     1       4.584  15.435  21.181  0.00  0.00    +0.000 C 
ATOM      7  C   UNL     1       4.705  16.752  21.993  0.00  0.00    +0.000 C 
ATOM      8  H   UNL     1       8.044  14.104  21.559  0.00  0.00    +0.000 HD
ENDROOT
BRANCH   6   9
ATOM      9  C   UNL     1       3.148  15.112  20.702  0.00  0.00    +0.000 A 
ATOM     10  C   UNL     1       2.138  16.089  20.632  0.00  0.00    +0.000 A 
ATOM     11  C   UNL     1       0.852  15.763  20.197  0.00  0.00    +0.000 A 
ATOM     12  C   UNL     1       0.559  14.456  19.836  0.00  0.00    +0.000 A 
ATOM     13  F   UNL     1      -0.678  14.147  19.423  0.00  0.00    +0.000 F 
ATOM     14  C   UNL     1       1.526  13.468  19.896  0.00  0.00    +0.000 A 
ATOM     15  C   UNL     1       2.819  13.793  20.327  0.00  0.00    +0.000 A 
ENDBRANCH   6   9
BRANCH   4  16
ATOM     16  C   UNL     1       6.505  12.974  23.259  0.00  0.00    +0.000 A 
ATOM     17  N   UNL     1       5.571  12.345  23.951  0.00  0.00    +0.000 NA
ATOM     18  C   UNL     1       6.171  11.480  24.844  0.00  0.00    +0.000 A 
ATOM     19  C   UNL     1       7.548  11.486  24.843  0.00  0.00    +0.000 A 
ATOM     20  S   UNL     1       8.122  12.587  23.659  0.00  0.00    +0.000 S 
ENDBRANCH   4  16
BRANCH   1  21
ATOM     21  C   UNL     1       5.209  16.256  18.765  0.00  0.00    +0.000 C 
ATOM     22  O   UNL     1       5.210  17.471  18.650  0.00  0.00    +0.000 OA
BRANCH  21  24
ATOM     23  C   UNL     1       3.545  15.728  17.167  0.00  0.00    +0.000 C 
ATOM     24  O   UNL     1       4.756  15.384  17.838  0.00  0.00    +0.000 OA
ENDBRANCH  21  24
ENDBRANCH   1  21
BRANCH   2  25
ATOM     25  C   UNL     1       7.893  14.975  19.058  0.00  0.00    +0.000 C 
BRANCH  25  26
ATOM     26  N   UNL     1       8.869  13.864  19.054  0.00  0.00    +0.000 NA
ATOM     27  C   UNL     1      10.253  14.278  19.290  0.00  0.00    +0.000 C 
ATOM     28  C   UNL     1      11.297  13.192  19.083  0.00  0.00    +0.000 C 
ATOM     29  C   UNL     1      10.979  12.355  17.865  0.00  0.00    +0.000 C 
ATOM     30  F   UNL     1      11.906  11.377  17.732  0.00  0.00    +0.000 F 
ATOM     31  F   UNL     1      11.055  13.115  16.743  0.00  0.00    +0.000 F 
ATOM     32  C   UNL     1       9.605  11.747  17.965  0.00  0.00    +0.000 C 
ATOM     33  C   UNL     1       8.574  12.858  18.039  0.00  0.00    +0.000 C 
ENDBRANCH  25  26
ENDBRANCH   2  25
TORSDOF 6
ENDMDL
MODEL 9
REMARK VINA RESULT:      -6.4      3.114      4.846
REMARK  Name = 
REMARK  8 active torsions:
REMARK  status: ('A' for Active; 'I' for Inactive)
REMARK    1  A    between atoms: C_1  and  O_2
REMARK    2  A    between atoms: O_2  and  C_3
REMARK    3  A    between atoms: C_3  and  C_5
REMARK    4  A    between atoms: C_6  and  C_7
REMARK    5  A    between atoms: C_7  and  N_8
REMARK    6  A    between atoms: C_17  and  C_18
REMARK    7  A    between atoms: C_24  and  C_25
REMARK    8  A    between atoms: C_24  and  C_26
REMARK                            x       y       z     vdW  Elec       q    Type
REMARK                         _______ _______ _______ _____ _____    ______ ____
ROOT
ATOM      1  C   UNL     1      -0.374  13.258  20.233  0.00  0.00    +0.000 C 
ATOM      2  C   UNL     1      -1.152  14.292  20.632  0.00  0.00    +0.000 C 
ATOM      3  N   UNL     1      -2.520  14.104  20.514  0.00  0.00    +0.000 N 
ATOM      4  C   UNL     1      -3.114  12.867  20.490  0.00  0.00    +0.000 C 
ATOM      5  N   UNL     1      -2.457  11.803  20.159  0.00  0.00    +0.000 NA
ATOM      6  C   UNL     1      -1.042  11.974  19.711  0.00  0.00    +0.000 C 
ATOM      7  C   UNL     1      -1.158  12.089  18.169  0.00  0.00    +0.000 C 
ATOM      8  H   UNL     1      -3.130  14.880  20.752  0.00  0.00    +0.000 HD
ENDROOT
BRANCH   6   9
ATOM      9  C   UNL     1      -0.306  10.703  20.202  0.00  0.00    +0.000 A 
ATOM     10  C   UNL     1      -0.510  10.161  21.484  0.00  0.00    +0.000 A 
ATOM     11  C   UNL     1       0.171   9.015  21.896  0.00  0.00    +0.000 A 
ATOM     12  C   UNL     1       1.070   8.402  21.034  0.00  0.00    +0.000 A 
ATOM     13  F   UNL     1       1.725   7.305  21.436  0.00  0.00    +0.000 F 
ATOM     14  C   UNL     1       1.300   8.910  19.768  0.00  0.00    +0.000 A 
ATOM     15  C   UNL     1       0.613  10.058  19.350  0.00  0.00    +0.000 A 
ENDBRANCH   6   9
BRANCH   4  16
ATOM     16  C   UNL     1      -4.522  12.739  20.887  0.00  0.00    +0.000 A 
ATOM     17  N   UNL     1      -5.409  12.215  20.060  0.00  0.00    +0.000 NA
ATOM     18  C   UNL     1      -6.654  12.236  20.657  0.00  0.00    +0.000 A 
ATOM     19  C   UNL     1      -6.702  12.803  21.910  0.00  0.00    +0.000 A 
ATOM     20  S   UNL     1      -5.131  13.299  22.383  0.00  0.00    +0.000 S 
ENDBRANCH   4  16
BRANCH   1  21
ATOM     21  C   UNL     1       1.109  13.407  20.178  0.00  0.00    +0.000 C 
ATOM     22  O   UNL     1       1.863  13.267  21.127  0.00  0.00    +0.000 OA
BRANCH  21  24
ATOM     23  C   UNL     1       2.529  13.148  18.302  0.00  0.00    +0.000 C 
ATOM     24  O   UNL     1       1.469  13.847  18.951  0.00  0.00    +0.000 OA
ENDBRANCH  21  24
ENDBRANCH   1  21
BRANCH   2  25
ATOM     25  C   UNL     1      -0.623  15.617  21.202  0.00  0.00    +0.000 C 
BRANCH  25  26
ATOM     26  N   UNL     1      -0.274  16.698  20.257  0.00  0.00    +0.000 NA
ATOM     27  C   UNL     1      -0.862  16.547  18.925  0.00  0.00    +0.000 C 
ATOM     28  C   UNL     1      -0.352  17.525  17.879  0.00  0.00    +0.000 C 
ATOM     29  C   UNL     1       1.140  17.728  18.002  0.00  0.00    +0.000 C 
ATOM     30  F   UNL     1       1.553  18.631  17.081  0.00  0.00    +0.000 F 
ATOM     31  F   UNL     1       1.794  16.570  17.729  0.00  0.00    +0.000 F 
ATOM     32  C   UNL     1       1.513  18.199  19.383  0.00  0.00    +0.000 C 
ATOM     33  C   UNL     1       1.110  17.142  20.395  0.00  0.00    +0.000 C 
ENDBRANCH  25  26
ENDBRANCH   2  25
TORSDOF 6
ENDMDL
