MODEL 1
REMARK VINA RESULT:      -8.0      0.000      0.000
REMARK  Name = 
REMARK  3 active torsions:
REMARK  status: ('A' for Active; 'I' for Inactive)
REMARK    1  A    between atoms: C_2  and  C_3
REMARK    2  A    between atoms: N_10  and  C_11
REMARK    3  A    between atoms: C_11  and  C_12
REMARK                            x       y       z     vdW  Elec       q    Type
REMARK                         _______ _______ _______ _____ _____    ______ ____
ROOT
ATOM      1  C   UNL     1       2.601   6.753  19.440  0.00  0.00    +0.000 C 
ATOM      2  C   UNL     1       1.804   5.874  20.396  0.00  0.00    +0.000 C 
ATOM      3  C   UNL     1       2.433   4.489  20.559  0.00  0.00    +0.000 C 
ATOM      4  O   UNL     1       1.421   3.613  21.084  0.00  0.00    +0.000 OA
ATOM      5  C   UNL     1       0.783   2.965  19.968  0.00  0.00    +0.000 C 
ATOM      6  C   UNL     1       1.489   3.415  18.697  0.00  0.00    +0.000 C 
ATOM      7  C   UNL     1       2.847   3.867  19.225  0.00  0.00    +0.000 C 
ATOM      8  N   UNL     1       3.637   4.719  18.317  0.00  0.00    +0.000 NA
ATOM      9  C   UNL     1       2.990   6.041  18.131  0.00  0.00    +0.000 C 
ENDROOT
BRANCH   1  11
ATOM     10  O   UNL     1       2.166   8.737  18.202  0.00  0.00    +0.000 OA
ATOM     11  C   UNL     1       1.920   8.107  19.237  0.00  0.00    +0.000 C 
ATOM     12  N   UNL     1       1.064   8.561  20.210  0.00  0.00    +0.000 N 
ATOM     13  C   UNL     1       0.347   9.821  20.153  0.00  0.00    +0.000 C 
ATOM     14  C   UNL     1       0.784  10.567  21.381  0.00  0.00    +0.000 C 
ATOM     15  C   UNL     1       1.043   9.436  22.346  0.00  0.00    +0.000 C 
ATOM     16  O   UNL     1       1.443   8.303  21.555  0.00  0.00    +0.000 OA
ENDBRANCH   1  11
BRANCH   8  17
ATOM     17  C   UNL     1       5.035   4.886  18.769  0.00  0.00    +0.000 C 
BRANCH  17  18
ATOM     18  C   UNL     1       6.014   4.699  17.650  0.00  0.00    +0.000 A 
ATOM     19  C   UNL     1       5.747   4.519  16.260  0.00  0.00    +0.000 A 
ATOM     20  C   UNL     1       6.964   4.393  15.641  0.00  0.00    +0.000 A 
ATOM     21  O   UNL     1       7.975   4.499  16.545  0.00  0.00    +0.000 OA
ATOM     22  C   UNL     1       7.397   4.688  17.757  0.00  0.00    +0.000 A 
ENDBRANCH  17  18
ENDBRANCH   8  17
TORSDOF 3
ENDMDL
MODEL 2
REMARK VINA RESULT:      -7.9      1.602      2.282
REMARK  Name = 
REMARK  3 active torsions:
REMARK  status: ('A' for Active; 'I' for Inactive)
REMARK    1  A    between atoms: C_2  and  C_3
REMARK    2  A    between atoms: N_10  and  C_11
REMARK    3  A    between atoms: C_11  and  C_12
REMARK                            x       y       z     vdW  Elec       q    Type
REMARK                         _______ _______ _______ _____ _____    ______ ____
ROOT
ATOM      1  C   UNL     1       2.958   5.784  19.479  0.00  0.00    +0.000 C 
ATOM      2  C   UNL     1       3.575   4.563  20.151  0.00  0.00    +0.000 C 
ATOM      3  C   UNL     1       4.619   3.888  19.262  0.00  0.00    +0.000 C 
ATOM      4  O   UNL     1       4.806   2.549  19.753  0.00  0.00    +0.000 OA
ATOM      5  C   UNL     1       3.920   1.687  19.017  0.00  0.00    +0.000 C 
ATOM      6  C   UNL     1       3.205   2.530  17.970  0.00  0.00    +0.000 C 
ATOM      7  C   UNL     1       4.147   3.720  17.817  0.00  0.00    +0.000 C 
ATOM      8  N   UNL     1       3.571   4.914  17.169  0.00  0.00    +0.000 NA
ATOM      9  C   UNL     1       2.527   5.530  18.022  0.00  0.00    +0.000 C 
ENDROOT
BRANCH   1  11
ATOM     10  O   UNL     1       1.101   5.647  20.961  0.00  0.00    +0.000 OA
ATOM     11  C   UNL     1       1.868   6.405  20.354  0.00  0.00    +0.000 C 
ATOM     12  N   UNL     1       1.791   7.773  20.431  0.00  0.00    +0.000 N 
ATOM     13  C   UNL     1       0.815   8.501  21.220  0.00  0.00    +0.000 C 
ATOM     14  C   UNL     1       0.085   9.362  20.230  0.00  0.00    +0.000 C 
ATOM     15  C   UNL     1       1.164   9.629  19.209  0.00  0.00    +0.000 C 
ATOM     16  O   UNL     1       2.041   8.489  19.228  0.00  0.00    +0.000 OA
ENDBRANCH   1  11
BRANCH   8  17
ATOM     17  C   UNL     1       4.599   5.912  16.806  0.00  0.00    +0.000 C 
BRANCH  17  18
ATOM     18  C   UNL     1       5.638   5.342  15.889  0.00  0.00    +0.000 A 
ATOM     19  C   UNL     1       5.450   4.687  14.635  0.00  0.00    +0.000 A 
ATOM     20  C   UNL     1       6.698   4.348  14.179  0.00  0.00    +0.000 A 
ATOM     21  O   UNL     1       7.656   4.760  15.053  0.00  0.00    +0.000 OA
ATOM     22  C   UNL     1       7.011   5.364  16.082  0.00  0.00    +0.000 A 
ENDBRANCH  17  18
ENDBRANCH   8  17
TORSDOF 3
ENDMDL
MODEL 3
REMARK VINA RESULT:      -7.7      3.587      5.506
REMARK  Name = 
REMARK  3 active torsions:
REMARK  status: ('A' for Active; 'I' for Inactive)
REMARK    1  A    between atoms: C_2  and  C_3
REMARK    2  A    between atoms: N_10  and  C_11
REMARK    3  A    between atoms: C_11  and  C_12
REMARK                            x       y       z     vdW  Elec       q    Type
REMARK                         _______ _______ _______ _____ _____    ______ ____
ROOT
ATOM      1  C   UNL     1       4.041   4.947  17.114  0.00  0.00    +0.000 C 
ATOM      2  C   UNL     1       4.850   5.907  17.977  0.00  0.00    +0.000 C 
ATOM      3  C   UNL     1       6.111   6.394  17.263  0.00  0.00    +0.000 C 
ATOM      4  O   UNL     1       7.009   6.901  18.265  0.00  0.00    +0.000 OA
ATOM      5  C   UNL     1       7.888   5.829  18.646  0.00  0.00    +0.000 C 
ATOM      6  C   UNL     1       7.559   4.621  17.781  0.00  0.00    +0.000 C 
ATOM      7  C   UNL     1       6.877   5.263  16.577  0.00  0.00    +0.000 C 
ATOM      8  N   UNL     1       6.088   4.352  15.727  0.00  0.00    +0.000 NA
ATOM      9  C   UNL     1       4.894   3.850  16.450  0.00  0.00    +0.000 C 
ENDROOT
BRANCH   1  11
ATOM     10  O   UNL     1       1.756   5.038  17.773  0.00  0.00    +0.000 OA
ATOM     11  C   UNL     1       2.822   4.418  17.871  0.00  0.00    +0.000 C 
ATOM     12  N   UNL     1       2.963   3.277  18.622  0.00  0.00    +0.000 N 
ATOM     13  C   UNL     1       1.898   2.659  19.390  0.00  0.00    +0.000 C 
ATOM     14  C   UNL     1       2.405   2.636  20.803  0.00  0.00    +0.000 C 
ATOM     15  C   UNL     1       3.893   2.499  20.587  0.00  0.00    +0.000 C 
ATOM     16  O   UNL     1       4.187   3.134  19.330  0.00  0.00    +0.000 OA
ENDBRANCH   1  11
BRANCH   8  17
ATOM     17  C   UNL     1       5.693   4.975  14.445  0.00  0.00    +0.000 C 
BRANCH  17  18
ATOM     18  C   UNL     1       5.856   4.035  13.289  0.00  0.00    +0.000 A 
ATOM     19  C   UNL     1       4.846   3.323  12.577  0.00  0.00    +0.000 A 
ATOM     20  C   UNL     1       5.489   2.597  11.607  0.00  0.00    +0.000 A 
ATOM     21  O   UNL     1       6.830   2.817  11.653  0.00  0.00    +0.000 OA
ATOM     22  C   UNL     1       7.047   3.690  12.668  0.00  0.00    +0.000 A 
ENDBRANCH  17  18
ENDBRANCH   8  17
TORSDOF 3
ENDMDL
MODEL 4
REMARK VINA RESULT:      -7.6      1.666      6.455
REMARK  Name = 
REMARK  3 active torsions:
REMARK  status: ('A' for Active; 'I' for Inactive)
REMARK    1  A    between atoms: C_2  and  C_3
REMARK    2  A    between atoms: N_10  and  C_11
REMARK    3  A    between atoms: C_11  and  C_12
REMARK                            x       y       z     vdW  Elec       q    Type
REMARK                         _______ _______ _______ _____ _____    ______ ____
ROOT
ATOM      1  C   UNL     1       3.910   4.818  18.368  0.00  0.00    +0.000 C 
ATOM      2  C   UNL     1       2.944   3.646  18.488  0.00  0.00    +0.000 C 
ATOM      3  C   UNL     1       1.590   4.075  19.054  0.00  0.00    +0.000 C 
ATOM      4  O   UNL     1       0.932   2.894  19.544  0.00  0.00    +0.000 OA
ATOM      5  C   UNL     1       1.245   2.769  20.943  0.00  0.00    +0.000 C 
ATOM      6  C   UNL     1       2.082   3.975  21.347  0.00  0.00    +0.000 C 
ATOM      7  C   UNL     1       1.722   4.993  20.269  0.00  0.00    +0.000 C 
ATOM      8  N   UNL     1       2.642   6.137  20.135  0.00  0.00    +0.000 NA
ATOM      9  C   UNL     1       3.966   5.698  19.631  0.00  0.00    +0.000 C 
ENDROOT
BRANCH   1  11
ATOM     10  O   UNL     1       6.169   4.148  18.699  0.00  0.00    +0.000 OA
ATOM     11  C   UNL     1       5.279   4.358  17.866  0.00  0.00    +0.000 C 
ATOM     12  N   UNL     1       5.459   4.194  16.514  0.00  0.00    +0.000 N 
ATOM     13  C   UNL     1       6.698   3.762  15.895  0.00  0.00    +0.000 C 
ATOM     14  C   UNL     1       7.064   4.872  14.952  0.00  0.00    +0.000 C 
ATOM     15  C   UNL     1       5.703   5.394  14.557  0.00  0.00    +0.000 C 
ATOM     16  O   UNL     1       4.829   5.152  15.673  0.00  0.00    +0.000 OA
ENDBRANCH   1  11
BRANCH   8  17
ATOM     17  C   UNL     1       2.092   7.210  19.280  0.00  0.00    +0.000 C 
BRANCH  17  18
ATOM     18  C   UNL     1       1.503   8.327  20.087  0.00  0.00    +0.000 A 
ATOM     19  C   UNL     1       1.339   8.407  21.502  0.00  0.00    +0.000 A 
ATOM     20  C   UNL     1       0.757   9.621  21.761  0.00  0.00    +0.000 A 
ATOM     21  O   UNL     1       0.559  10.313  20.607  0.00  0.00    +0.000 OA
ATOM     22  C   UNL     1       1.015   9.530  19.598  0.00  0.00    +0.000 A 
ENDBRANCH  17  18
ENDBRANCH   8  17
TORSDOF 3
ENDMDL
MODEL 5
REMARK VINA RESULT:      -7.6      0.867      1.099
REMARK  Name = 
REMARK  3 active torsions:
REMARK  status: ('A' for Active; 'I' for Inactive)
REMARK    1  A    between atoms: C_2  and  C_3
REMARK    2  A    between atoms: N_10  and  C_11
REMARK    3  A    between atoms: C_11  and  C_12
REMARK                            x       y       z     vdW  Elec       q    Type
REMARK                         _______ _______ _______ _____ _____    ______ ____
ROOT
ATOM      1  C   UNL     1       2.767   6.482  19.312  0.00  0.00    +0.000 C 
ATOM      2  C   UNL     1       1.855   5.577  20.131  0.00  0.00    +0.000 C 
ATOM      3  C   UNL     1       2.440   4.174  20.297  0.00  0.00    +0.000 C 
ATOM      4  O   UNL     1       1.362   3.296  20.665  0.00  0.00    +0.000 OA
ATOM      5  C   UNL     1       0.841   2.714  19.457  0.00  0.00    +0.000 C 
ATOM      6  C   UNL     1       1.691   3.206  18.293  0.00  0.00    +0.000 C 
ATOM      7  C   UNL     1       2.989   3.605  18.988  0.00  0.00    +0.000 C 
ATOM      8  N   UNL     1       3.888   4.481  18.214  0.00  0.00    +0.000 NA
ATOM      9  C   UNL     1       3.287   5.822  18.021  0.00  0.00    +0.000 C 
ENDROOT
BRANCH   1  11
ATOM     10  O   UNL     1       2.430   8.488  18.077  0.00  0.00    +0.000 OA
ATOM     11  C   UNL     1       2.134   7.858  19.100  0.00  0.00    +0.000 C 
ATOM     12  N   UNL     1       1.264   8.332  20.051  0.00  0.00    +0.000 N 
ATOM     13  C   UNL     1       0.588   9.614  19.984  0.00  0.00    +0.000 C 
ATOM     14  C   UNL     1       1.011  10.337  21.230  0.00  0.00    +0.000 C 
ATOM     15  C   UNL     1       1.206   9.191  22.193  0.00  0.00    +0.000 C 
ATOM     16  O   UNL     1       1.595   8.053  21.405  0.00  0.00    +0.000 OA
ENDBRANCH   1  11
BRANCH   8  17
ATOM     17  C   UNL     1       5.230   4.597  18.824  0.00  0.00    +0.000 C 
BRANCH  17  18
ATOM     18  C   UNL     1       6.174   5.379  17.963  0.00  0.00    +0.000 A 
ATOM     19  C   UNL     1       6.869   6.584  18.278  0.00  0.00    +0.000 A 
ATOM     20  C   UNL     1       7.610   6.910  17.172  0.00  0.00    +0.000 A 
ATOM     21  O   UNL     1       7.440   5.983  16.191  0.00  0.00    +0.000 OA
ATOM     22  C   UNL     1       6.575   5.058  16.674  0.00  0.00    +0.000 A 
ENDBRANCH  17  18
ENDBRANCH   8  17
TORSDOF 3
ENDMDL
MODEL 6
REMARK VINA RESULT:      -7.5      1.191      1.823
REMARK  Name = 
REMARK  3 active torsions:
REMARK  status: ('A' for Active; 'I' for Inactive)
REMARK    1  A    between atoms: C_2  and  C_3
REMARK    2  A    between atoms: N_10  and  C_11
REMARK    3  A    between atoms: C_11  and  C_12
REMARK                            x       y       z     vdW  Elec       q    Type
REMARK                         _______ _______ _______ _____ _____    ______ ____
ROOT
ATOM      1  C   UNL     1       2.614   6.478  19.751  0.00  0.00    +0.000 C 
ATOM      2  C   UNL     1       2.482   5.061  20.296  0.00  0.00    +0.000 C 
ATOM      3  C   UNL     1       3.441   4.091  19.604  0.00  0.00    +0.000 C 
ATOM      4  O   UNL     1       2.952   2.759  19.838  0.00  0.00    +0.000 OA
ATOM      5  C   UNL     1       2.113   2.401  18.725  0.00  0.00    +0.000 C 
ATOM      6  C   UNL     1       2.146   3.546  17.723  0.00  0.00    +0.000 C 
ATOM      7  C   UNL     1       3.449   4.252  18.084  0.00  0.00    +0.000 C 
ATOM      8  N   UNL     1       3.599   5.625  17.567  0.00  0.00    +0.000 NA
ATOM      9  C   UNL     1       2.631   6.545  18.212  0.00  0.00    +0.000 C 
ENDROOT
BRANCH   1  11
ATOM     10  O   UNL     1       0.861   6.960  21.286  0.00  0.00    +0.000 OA
ATOM     11  C   UNL     1       1.601   7.418  20.406  0.00  0.00    +0.000 C 
ATOM     12  N   UNL     1       1.559   8.726  19.992  0.00  0.00    +0.000 N 
ATOM     13  C   UNL     1       0.654   9.729  20.522  0.00  0.00    +0.000 C 
ATOM     14  C   UNL     1      -0.123  10.213  19.332  0.00  0.00    +0.000 C 
ATOM     15  C   UNL     1       0.888  10.050  18.224  0.00  0.00    +0.000 C 
ATOM     16  O   UNL     1       1.740   8.954  18.601  0.00  0.00    +0.000 OA
ENDBRANCH   1  11
BRANCH   8  17
ATOM     17  C   UNL     1       4.978   6.139  17.713  0.00  0.00    +0.000 C 
BRANCH  17  18
ATOM     18  C   UNL     1       5.918   5.515  16.728  0.00  0.00    +0.000 A 
ATOM     19  C   UNL     1       5.758   5.375  15.317  0.00  0.00    +0.000 A 
ATOM     20  C   UNL     1       6.883   4.742  14.855  0.00  0.00    +0.000 A 
ATOM     21  O   UNL     1       7.744   4.490  15.878  0.00  0.00    +0.000 OA
ATOM     22  C   UNL     1       7.159   4.962  17.006  0.00  0.00    +0.000 A 
ENDBRANCH  17  18
ENDBRANCH   8  17
TORSDOF 3
ENDMDL
MODEL 7
REMARK VINA RESULT:      -7.5      3.156      5.235
REMARK  Name = 
REMARK  3 active torsions:
REMARK  status: ('A' for Active; 'I' for Inactive)
REMARK    1  A    between atoms: C_2  and  C_3
REMARK    2  A    between atoms: N_10  and  C_11
REMARK    3  A    between atoms: C_11  and  C_12
REMARK                            x       y       z     vdW  Elec       q    Type
REMARK                         _______ _______ _______ _____ _____    ______ ____
ROOT
ATOM      1  C   UNL     1       4.026   5.213  17.901  0.00  0.00    +0.000 C 
ATOM      2  C   UNL     1       4.649   6.603  17.895  0.00  0.00    +0.000 C 
ATOM      3  C   UNL     1       5.591   6.803  16.707  0.00  0.00    +0.000 C 
ATOM      4  O   UNL     1       6.448   7.915  17.016  0.00  0.00    +0.000 OA
ATOM      5  C   UNL     1       7.646   7.389  17.614  0.00  0.00    +0.000 C 
ATOM      6  C   UNL     1       7.549   5.871  17.606  0.00  0.00    +0.000 C 
ATOM      7  C   UNL     1       6.534   5.618  16.495  0.00  0.00    +0.000 C 
ATOM      8  N   UNL     1       5.918   4.279  16.482  0.00  0.00    +0.000 NA
ATOM      9  C   UNL     1       5.045   4.083  17.664  0.00  0.00    +0.000 C 
ENDROOT
BRANCH   1  11
ATOM     10  O   UNL     1       3.548   5.434  20.222  0.00  0.00    +0.000 OA
ATOM     11  C   UNL     1       3.142   5.009  19.133  0.00  0.00    +0.000 C 
ATOM     12  N   UNL     1       1.938   4.368  18.975  0.00  0.00    +0.000 N 
ATOM     13  C   UNL     1       0.998   4.107  20.049  0.00  0.00    +0.000 C 
ATOM     14  C   UNL     1       0.828   2.615  20.057  0.00  0.00    +0.000 C 
ATOM     15  C   UNL     1       1.028   2.280  18.598  0.00  0.00    +0.000 C 
ATOM     16  O   UNL     1       1.918   3.276  18.065  0.00  0.00    +0.000 OA
ENDBRANCH   1  11
BRANCH   8  17
ATOM     17  C   UNL     1       5.169   4.012  15.235  0.00  0.00    +0.000 C 
BRANCH  17  18
ATOM     18  C   UNL     1       6.041   4.117  14.021  0.00  0.00    +0.000 A 
ATOM     19  C   UNL     1       5.919   3.423  12.781  0.00  0.00    +0.000 A 
ATOM     20  C   UNL     1       6.949   3.856  11.986  0.00  0.00    +0.000 A 
ATOM     21  O   UNL     1       7.698   4.786  12.638  0.00  0.00    +0.000 OA
ATOM     22  C   UNL     1       7.144   4.944  13.865  0.00  0.00    +0.000 A 
ENDBRANCH  17  18
ENDBRANCH   8  17
TORSDOF 3
ENDMDL
MODEL 8
REMARK VINA RESULT:      -7.3      2.689      7.601
REMARK  Name = 
REMARK  3 active torsions:
REMARK  status: ('A' for Active; 'I' for Inactive)
REMARK    1  A    between atoms: C_2  and  C_3
REMARK    2  A    between atoms: N_10  and  C_11
REMARK    3  A    between atoms: C_11  and  C_12
REMARK                            x       y       z     vdW  Elec       q    Type
REMARK                         _______ _______ _______ _____ _____    ______ ____
ROOT
ATOM      1  C   UNL     1       6.235   4.749  15.548  0.00  0.00    +0.000 C 
ATOM      2  C   UNL     1       7.298   4.473  16.604  0.00  0.00    +0.000 C 
ATOM      3  C   UNL     1       6.755   4.650  18.023  0.00  0.00    +0.000 C 
ATOM      4  O   UNL     1       7.882   4.817  18.900  0.00  0.00    +0.000 OA
ATOM      5  C   UNL     1       8.123   6.229  19.037  0.00  0.00    +0.000 C 
ATOM      6  C   UNL     1       7.044   6.968  18.259  0.00  0.00    +0.000 C 
ATOM      7  C   UNL     1       5.931   5.928  18.184  0.00  0.00    +0.000 C 
ATOM      8  N   UNL     1       4.890   6.174  17.169  0.00  0.00    +0.000 NA
ATOM      9  C   UNL     1       5.443   6.046  15.799  0.00  0.00    +0.000 C 
ENDROOT
BRANCH   1  11
ATOM     10  O   UNL     1       7.738   5.393  13.820  0.00  0.00    +0.000 OA
ATOM     11  C   UNL     1       6.815   4.633  14.138  0.00  0.00    +0.000 C 
ATOM     12  N   UNL     1       6.288   3.691  13.289  0.00  0.00    +0.000 N 
ATOM     13  C   UNL     1       6.737   3.467  11.927  0.00  0.00    +0.000 C 
ATOM     14  C   UNL     1       5.516   3.682  11.080  0.00  0.00    +0.000 C 
ATOM     15  C   UNL     1       4.417   3.238  12.014  0.00  0.00    +0.000 C 
ATOM     16  O   UNL     1       4.880   3.502  13.350  0.00  0.00    +0.000 OA
ENDBRANCH   1  11
BRANCH   8  17
ATOM     17  C   UNL     1       3.714   5.294  17.338  0.00  0.00    +0.000 C 
BRANCH  17  18
ATOM     18  C   UNL     1       2.960   5.598  18.596  0.00  0.00    +0.000 A 
ATOM     19  C   UNL     1       2.492   4.688  19.591  0.00  0.00    +0.000 A 
ATOM     20  C   UNL     1       1.862   5.442  20.547  0.00  0.00    +0.000 A 
ATOM     21  O   UNL     1       1.916   6.764  20.228  0.00  0.00    +0.000 OA
ATOM     22  C   UNL     1       2.585   6.854  19.051  0.00  0.00    +0.000 A 
ENDBRANCH  17  18
ENDBRANCH   8  17
TORSDOF 3
ENDMDL
MODEL 9
REMARK VINA RESULT:      -7.3      1.408      4.467
REMARK  Name = 
REMARK  3 active torsions:
REMARK  status: ('A' for Active; 'I' for Inactive)
REMARK    1  A    between atoms: C_2  and  C_3
REMARK    2  A    between atoms: N_10  and  C_11
REMARK    3  A    between atoms: C_11  and  C_12
REMARK                            x       y       z     vdW  Elec       q    Type
REMARK                         _______ _______ _______ _____ _____    ______ ____
ROOT
ATOM      1  C   UNL     1       3.104   6.966  17.979  0.00  0.00    +0.000 C 
ATOM      2  C   UNL     1       4.160   7.083  16.887  0.00  0.00    +0.000 C 
ATOM      3  C   UNL     1       4.914   5.769  16.676  0.00  0.00    +0.000 C 
ATOM      4  O   UNL     1       6.140   6.079  15.991  0.00  0.00    +0.000 OA
ATOM      5  C   UNL     1       7.161   6.267  16.986  0.00  0.00    +0.000 C 
ATOM      6  C   UNL     1       6.545   5.989  18.350  0.00  0.00    +0.000 C 
ATOM      7  C   UNL     1       5.345   5.118  17.990  0.00  0.00    +0.000 C 
ATOM      8  N   UNL     1       4.310   4.990  19.034  0.00  0.00    +0.000 NA
ATOM      9  C   UNL     1       3.621   6.283  19.260  0.00  0.00    +0.000 C 
ENDROOT
BRANCH   1  11
ATOM     10  O   UNL     1       2.732   9.270  17.517  0.00  0.00    +0.000 OA
ATOM     11  C   UNL     1       2.410   8.306  18.222  0.00  0.00    +0.000 C 
ATOM     12  N   UNL     1       1.458   8.381  19.209  0.00  0.00    +0.000 N 
ATOM     13  C   UNL     1       0.717   9.581  19.550  0.00  0.00    +0.000 C 
ATOM     14  C   UNL     1       1.021   9.821  21.001  0.00  0.00    +0.000 C 
ATOM     15  C   UNL     1       1.220   8.412  21.505  0.00  0.00    +0.000 C 
ATOM     16  O   UNL     1       1.720   7.644  20.396  0.00  0.00    +0.000 OA
ENDBRANCH   1  11
BRANCH   8  17
ATOM     17  C   UNL     1       3.330   3.926  18.731  0.00  0.00    +0.000 C 
BRANCH  17  18
ATOM     18  C   UNL     1       2.675   3.395  19.969  0.00  0.00    +0.000 A 
ATOM     19  C   UNL     1       1.306   3.491  20.358  0.00  0.00    +0.000 A 
ATOM     20  C   UNL     1       1.196   2.852  21.567  0.00  0.00    +0.000 A 
ATOM     21  O   UNL     1       2.399   2.348  21.953  0.00  0.00    +0.000 OA
ATOM     22  C   UNL     1       3.289   2.674  20.983  0.00  0.00    +0.000 A 
ENDBRANCH  17  18
ENDBRANCH   8  17
TORSDOF 3
ENDMDL
