MODEL 1
REMARK VINA RESULT:      -6.8      0.000      0.000
REMARK  Name = 
REMARK  6 active torsions:
REMARK  status: ('A' for Active; 'I' for Inactive)
REMARK    1  A    between atoms: C_2  and  C_3
REMARK    2  A    between atoms: C_3  and  N_4
REMARK    3  A    between atoms: C_8  and  C_9
REMARK    4  A    between atoms: C_9  and  O_11
REMARK    5  A    between atoms: N_12  and  C_13
REMARK    6  A    between atoms: C_13  and  C_14
REMARK                            x       y       z     vdW  Elec       q    Type
REMARK                         _______ _______ _______ _____ _____    ______ ____
ROOT
ATOM      1  O   UNL     1       3.709   3.849  16.621  0.00  0.00    +0.000 OA
ATOM      2  C   UNL     1       3.266   4.670  17.418  0.00  0.00    +0.000 C 
ATOM      3  N   UNL     1       3.746   5.954  17.544  0.00  0.00    +0.000 N 
ATOM      4  H   UNL     1       3.389   6.563  18.268  0.00  0.00    +0.000 HD
ENDROOT
BRANCH   2   5
ATOM      5  C   UNL     1       2.157   4.318  18.419  0.00  0.00    +0.000 C 
BRANCH   5   6
ATOM      6  N   UNL     1       2.429   3.003  19.046  0.00  0.00    +0.000 NA
ATOM      7  C   UNL     1       1.184   2.410  19.570  0.00  0.00    +0.000 C 
ATOM      8  C   UNL     1       1.040   2.977  20.969  0.00  0.00    +0.000 C 
ATOM      9  C   UNL     1       2.467   2.990  21.481  0.00  0.00    +0.000 C 
ATOM     10  C   UNL     1       3.339   3.118  20.232  0.00  0.00    +0.000 C 
BRANCH  10  11
ATOM     11  C   UNL     1       4.404   2.011  20.150  0.00  0.00    +0.000 C 
ATOM     12  O   UNL     1       5.178   1.718  21.050  0.00  0.00    +0.000 OA
BRANCH  11  13
ATOM     13  O   UNL     1       4.444   1.419  18.930  0.00  0.00    +0.000 OA
ATOM     14  H   UNL     1       4.023   0.528  19.000  0.00  0.00    +0.000 HD
ENDBRANCH  11  13
ENDBRANCH  10  11
ENDBRANCH   5   6
ENDBRANCH   2   5
BRANCH   3  15
ATOM     15  C   UNL     1       4.832   6.464  16.739  0.00  0.00    +0.000 C 
BRANCH  15  16
ATOM     16  C   UNL     1       6.080   6.454  17.564  0.00  0.00    +0.000 A 
ATOM     17  C   UNL     1       7.154   7.321  17.499  0.00  0.00    +0.000 A 
ATOM     18  C   UNL     1       8.155   7.022  18.468  0.00  0.00    +0.000 A 
ATOM     19  C   UNL     1       7.817   5.932  19.240  0.00  0.00    +0.000 A 
ATOM     20  S   UNL     1       6.304   5.273  18.789  0.00  0.00    +0.000 S 
ENDBRANCH  15  16
ENDBRANCH   3  15
TORSDOF 6
ENDMDL
MODEL 2
REMARK VINA RESULT:      -6.6      1.909      2.328
REMARK  Name = 
REMARK  6 active torsions:
REMARK  status: ('A' for Active; 'I' for Inactive)
REMARK    1  A    between atoms: C_2  and  C_3
REMARK    2  A    between atoms: C_3  and  N_4
REMARK    3  A    between atoms: C_8  and  C_9
REMARK    4  A    between atoms: C_9  and  O_11
REMARK    5  A    between atoms: N_12  and  C_13
REMARK    6  A    between atoms: C_13  and  C_14
REMARK                            x       y       z     vdW  Elec       q    Type
REMARK                         _______ _______ _______ _____ _____    ______ ____
ROOT
ATOM      1  O   UNL     1       2.354   7.805  19.351  0.00  0.00    +0.000 OA
ATOM      2  C   UNL     1       2.602   6.605  19.295  0.00  0.00    +0.000 C 
ATOM      3  N   UNL     1       3.435   6.035  18.360  0.00  0.00    +0.000 N 
ATOM      4  H   UNL     1       3.545   5.031  18.318  0.00  0.00    +0.000 HD
ENDROOT
BRANCH   2   5
ATOM      5  C   UNL     1       1.939   5.591  20.239  0.00  0.00    +0.000 C 
BRANCH   5   6
ATOM      6  N   UNL     1       2.136   4.213  19.733  0.00  0.00    +0.000 NA
ATOM      7  C   UNL     1       0.959   3.376  20.036  0.00  0.00    +0.000 C 
ATOM      8  C   UNL     1       1.214   2.833  21.429  0.00  0.00    +0.000 C 
ATOM      9  C   UNL     1       2.702   2.547  21.418  0.00  0.00    +0.000 C 
ATOM     10  C   UNL     1       3.290   3.524  20.398  0.00  0.00    +0.000 C 
BRANCH  10  11
ATOM     11  C   UNL     1       4.128   2.809  19.324  0.00  0.00    +0.000 C 
ATOM     12  O   UNL     1       3.984   2.947  18.118  0.00  0.00    +0.000 OA
BRANCH  11  13
ATOM     13  O   UNL     1       5.024   1.941  19.859  0.00  0.00    +0.000 OA
ATOM     14  H   UNL     1       4.575   1.069  19.990  0.00  0.00    +0.000 HD
ENDBRANCH  11  13
ENDBRANCH  10  11
ENDBRANCH   5   6
ENDBRANCH   2   5
BRANCH   3  15
ATOM     15  C   UNL     1       4.108   6.808  17.341  0.00  0.00    +0.000 C 
BRANCH  15  16
ATOM     16  C   UNL     1       5.218   5.982  16.772  0.00  0.00    +0.000 A 
ATOM     17  C   UNL     1       5.405   5.589  15.461  0.00  0.00    +0.000 A 
ATOM     18  C   UNL     1       6.599   4.830  15.285  0.00  0.00    +0.000 A 
ATOM     19  C   UNL     1       7.283   4.662  16.468  0.00  0.00    +0.000 A 
ATOM     20  S   UNL     1       6.482   5.410  17.782  0.00  0.00    +0.000 S 
ENDBRANCH  15  16
ENDBRANCH   3  15
TORSDOF 6
ENDMDL
MODEL 3
REMARK VINA RESULT:      -6.4      1.798      2.236
REMARK  Name = 
REMARK  6 active torsions:
REMARK  status: ('A' for Active; 'I' for Inactive)
REMARK    1  A    between atoms: C_2  and  C_3
REMARK    2  A    between atoms: C_3  and  N_4
REMARK    3  A    between atoms: C_8  and  C_9
REMARK    4  A    between atoms: C_9  and  O_11
REMARK    5  A    between atoms: N_12  and  C_13
REMARK    6  A    between atoms: C_13  and  C_14
REMARK                            x       y       z     vdW  Elec       q    Type
REMARK                         _______ _______ _______ _____ _____    ______ ____
ROOT
ATOM      1  O   UNL     1       2.884   6.782  19.555  0.00  0.00    +0.000 OA
ATOM      2  C   UNL     1       2.717   5.836  18.792  0.00  0.00    +0.000 C 
ATOM      3  N   UNL     1       3.418   5.662  17.620  0.00  0.00    +0.000 N 
ATOM      4  H   UNL     1       3.187   4.902  16.995  0.00  0.00    +0.000 HD
ENDROOT
BRANCH   2   5
ATOM      5  C   UNL     1       1.642   4.769  19.039  0.00  0.00    +0.000 C 
BRANCH   5   6
ATOM      6  N   UNL     1       2.272   3.444  19.252  0.00  0.00    +0.000 NA
ATOM      7  C   UNL     1       1.264   2.452  19.674  0.00  0.00    +0.000 C 
ATOM      8  C   UNL     1       1.188   2.589  21.182  0.00  0.00    +0.000 C 
ATOM      9  C   UNL     1       2.634   2.817  21.578  0.00  0.00    +0.000 C 
ATOM     10  C   UNL     1       3.285   3.470  20.358  0.00  0.00    +0.000 C 
BRANCH  10  11
ATOM     11  C   UNL     1       4.543   2.714  19.897  0.00  0.00    +0.000 C 
ATOM     12  O   UNL     1       4.998   1.718  20.439  0.00  0.00    +0.000 OA
BRANCH  11  13
ATOM     13  O   UNL     1       5.149   3.313  18.840  0.00  0.00    +0.000 OA
ATOM     14  H   UNL     1       4.795   4.233  18.756  0.00  0.00    +0.000 HD
ENDBRANCH  11  13
ENDBRANCH  10  11
ENDBRANCH   5   6
ENDBRANCH   2   5
BRANCH   3  15
ATOM     15  C   UNL     1       4.431   6.591  17.173  0.00  0.00    +0.000 C 
BRANCH  15  16
ATOM     16  C   UNL     1       5.407   5.851  16.313  0.00  0.00    +0.000 A 
ATOM     17  C   UNL     1       5.187   5.261  15.083  0.00  0.00    +0.000 A 
ATOM     18  C   UNL     1       6.366   4.671  14.543  0.00  0.00    +0.000 A 
ATOM     19  C   UNL     1       7.449   4.823  15.380  0.00  0.00    +0.000 A 
ATOM     20  S   UNL     1       7.039   5.666  16.811  0.00  0.00    +0.000 S 
ENDBRANCH  15  16
ENDBRANCH   3  15
TORSDOF 6
ENDMDL
MODEL 4
REMARK VINA RESULT:      -6.4      1.189      1.345
REMARK  Name = 
REMARK  6 active torsions:
REMARK  status: ('A' for Active; 'I' for Inactive)
REMARK    1  A    between atoms: C_2  and  C_3
REMARK    2  A    between atoms: C_3  and  N_4
REMARK    3  A    between atoms: C_8  and  C_9
REMARK    4  A    between atoms: C_9  and  O_11
REMARK    5  A    between atoms: N_12  and  C_13
REMARK    6  A    between atoms: C_13  and  C_14
REMARK                            x       y       z     vdW  Elec       q    Type
REMARK                         _______ _______ _______ _____ _____    ______ ____
ROOT
ATOM      1  O   UNL     1       4.443   3.008  16.899  0.00  0.00    +0.000 OA
ATOM      2  C   UNL     1       3.826   4.057  17.060  0.00  0.00    +0.000 C 
ATOM      3  N   UNL     1       4.324   5.298  16.735  0.00  0.00    +0.000 N 
ATOM      4  H   UNL     1       3.799   6.133  16.957  0.00  0.00    +0.000 HD
ENDROOT
BRANCH   2   5
ATOM      5  C   UNL     1       2.438   4.094  17.713  0.00  0.00    +0.000 C 
BRANCH   5   6
ATOM      6  N   UNL     1       2.384   3.157  18.860  0.00  0.00    +0.000 NA
ATOM      7  C   UNL     1       1.007   3.047  19.376  0.00  0.00    +0.000 C 
ATOM      8  C   UNL     1       0.872   4.178  20.377  0.00  0.00    +0.000 C 
ATOM      9  C   UNL     1       2.226   4.195  21.058  0.00  0.00    +0.000 C 
ATOM     10  C   UNL     1       3.203   3.635  20.022  0.00  0.00    +0.000 C 
BRANCH  10  11
ATOM     11  C   UNL     1       4.021   2.455  20.573  0.00  0.00    +0.000 C 
ATOM     12  O   UNL     1       3.836   1.921  21.657  0.00  0.00    +0.000 OA
BRANCH  11  13
ATOM     13  O   UNL     1       5.034   2.095  19.744  0.00  0.00    +0.000 OA
ATOM     14  H   UNL     1       4.882   1.164  19.450  0.00  0.00    +0.000 HD
ENDBRANCH  11  13
ENDBRANCH  10  11
ENDBRANCH   5   6
ENDBRANCH   2   5
BRANCH   3  15
ATOM     15  C   UNL     1       5.640   5.486  16.167  0.00  0.00    +0.000 C 
BRANCH  15  16
ATOM     16  C   UNL     1       6.583   5.862  17.266  0.00  0.00    +0.000 A 
ATOM     17  C   UNL     1       7.029   5.079  18.314  0.00  0.00    +0.000 A 
ATOM     18  C   UNL     1       7.952   5.767  19.154  0.00  0.00    +0.000 A 
ATOM     19  C   UNL     1       8.177   7.057  18.725  0.00  0.00    +0.000 A 
ATOM     20  S   UNL     1       7.273   7.431  17.322  0.00  0.00    +0.000 S 
ENDBRANCH  15  16
ENDBRANCH   3  15
TORSDOF 6
ENDMDL
MODEL 5
REMARK VINA RESULT:      -6.3      2.049      2.640
REMARK  Name = 
REMARK  6 active torsions:
REMARK  status: ('A' for Active; 'I' for Inactive)
REMARK    1  A    between atoms: C_2  and  C_3
REMARK    2  A    between atoms: C_3  and  N_4
REMARK    3  A    between atoms: C_8  and  C_9
REMARK    4  A    between atoms: C_9  and  O_11
REMARK    5  A    between atoms: N_12  and  C_13
REMARK    6  A    between atoms: C_13  and  C_14
REMARK                            x       y       z     vdW  Elec       q    Type
REMARK                         _______ _______ _______ _____ _____    ______ ____
ROOT
ATOM      1  O   UNL     1       2.692   2.804  16.622  0.00  0.00    +0.000 OA
ATOM      2  C   UNL     1       3.420   2.827  17.611  0.00  0.00    +0.000 C 
ATOM      3  N   UNL     1       4.697   3.339  17.612  0.00  0.00    +0.000 N 
ATOM      4  H   UNL     1       5.276   3.265  18.437  0.00  0.00    +0.000 HD
ENDROOT
BRANCH   2   5
ATOM      5  C   UNL     1       2.993   2.214  18.951  0.00  0.00    +0.000 C 
BRANCH   5   6
ATOM      6  N   UNL     1       2.992   3.248  20.013  0.00  0.00    +0.000 NA
ATOM      7  C   UNL     1       2.549   2.674  21.297  0.00  0.00    +0.000 C 
ATOM      8  C   UNL     1       1.038   2.786  21.276  0.00  0.00    +0.000 C 
ATOM      9  C   UNL     1       0.804   4.131  20.617  0.00  0.00    +0.000 C 
ATOM     10  C   UNL     1       2.024   4.357  19.723  0.00  0.00    +0.000 C 
BRANCH  10  11
ATOM     11  C   UNL     1       2.711   5.704  20.008  0.00  0.00    +0.000 C 
ATOM     12  O   UNL     1       2.129   6.738  20.296  0.00  0.00    +0.000 OA
BRANCH  11  13
ATOM     13  O   UNL     1       4.057   5.644  19.842  0.00  0.00    +0.000 OA
ATOM     14  H   UNL     1       4.369   6.515  19.495  0.00  0.00    +0.000 HD
ENDBRANCH  11  13
ENDBRANCH  10  11
ENDBRANCH   5   6
ENDBRANCH   2   5
BRANCH   3  15
ATOM     15  C   UNL     1       5.312   3.905  16.432  0.00  0.00    +0.000 C 
BRANCH  15  16
ATOM     16  C   UNL     1       6.076   5.126  16.835  0.00  0.00    +0.000 A 
ATOM     17  C   UNL     1       5.802   6.446  16.527  0.00  0.00    +0.000 A 
ATOM     18  C   UNL     1       6.736   7.347  17.115  0.00  0.00    +0.000 A 
ATOM     19  C   UNL     1       7.698   6.688  17.848  0.00  0.00    +0.000 A 
ATOM     20  S   UNL     1       7.475   4.992  17.818  0.00  0.00    +0.000 S 
ENDBRANCH  15  16
ENDBRANCH   3  15
TORSDOF 6
ENDMDL
MODEL 6
REMARK VINA RESULT:      -6.3      1.157      1.380
REMARK  Name = 
REMARK  6 active torsions:
REMARK  status: ('A' for Active; 'I' for Inactive)
REMARK    1  A    between atoms: C_2  and  C_3
REMARK    2  A    between atoms: C_3  and  N_4
REMARK    3  A    between atoms: C_8  and  C_9
REMARK    4  A    between atoms: C_9  and  O_11
REMARK    5  A    between atoms: N_12  and  C_13
REMARK    6  A    between atoms: C_13  and  C_14
REMARK                            x       y       z     vdW  Elec       q    Type
REMARK                         _______ _______ _______ _____ _____    ______ ____
ROOT
ATOM      1  O   UNL     1       3.284   6.990  18.164  0.00  0.00    +0.000 OA
ATOM      2  C   UNL     1       3.152   5.776  18.284  0.00  0.00    +0.000 C 
ATOM      3  N   UNL     1       3.844   4.851  17.536  0.00  0.00    +0.000 N 
ATOM      4  H   UNL     1       3.641   3.865  17.630  0.00  0.00    +0.000 HD
ENDROOT
BRANCH   2   5
ATOM      5  C   UNL     1       2.135   5.159  19.254  0.00  0.00    +0.000 C 
BRANCH   5   6
ATOM      6  N   UNL     1       2.250   3.682  19.249  0.00  0.00    +0.000 NA
ATOM      7  C   UNL     1       0.997   3.061  19.718  0.00  0.00    +0.000 C 
ATOM      8  C   UNL     1       1.130   3.003  21.228  0.00  0.00    +0.000 C 
ATOM      9  C   UNL     1       2.590   2.648  21.428  0.00  0.00    +0.000 C 
ATOM     10  C   UNL     1       3.308   3.193  20.193  0.00  0.00    +0.000 C 
BRANCH  10  11
ATOM     11  C   UNL     1       4.146   2.114  19.485  0.00  0.00    +0.000 C 
ATOM     12  O   UNL     1       3.919   1.674  18.367  0.00  0.00    +0.000 OA
BRANCH  11  13
ATOM     13  O   UNL     1       5.149   1.641  20.267  0.00  0.00    +0.000 OA
ATOM     14  H   UNL     1       5.238   2.232  21.054  0.00  0.00    +0.000 HD
ENDBRANCH  11  13
ENDBRANCH  10  11
ENDBRANCH   5   6
ENDBRANCH   2   5
BRANCH   3  15
ATOM     15  C   UNL     1       4.803   5.227  16.523  0.00  0.00    +0.000 C 
BRANCH  15  16
ATOM     16  C   UNL     1       5.992   5.835  17.197  0.00  0.00    +0.000 A 
ATOM     17  C   UNL     1       6.583   7.059  16.947  0.00  0.00    +0.000 A 
ATOM     18  C   UNL     1       7.685   7.318  17.813  0.00  0.00    +0.000 A 
ATOM     19  C   UNL     1       7.905   6.282  18.693  0.00  0.00    +0.000 A 
ATOM     20  S   UNL     1       6.791   5.003  18.467  0.00  0.00    +0.000 S 
ENDBRANCH  15  16
ENDBRANCH   3  15
TORSDOF 6
ENDMDL
MODEL 7
REMARK VINA RESULT:      -6.2      2.486      5.648
REMARK  Name = 
REMARK  6 active torsions:
REMARK  status: ('A' for Active; 'I' for Inactive)
REMARK    1  A    between atoms: C_2  and  C_3
REMARK    2  A    between atoms: C_3  and  N_4
REMARK    3  A    between atoms: C_8  and  C_9
REMARK    4  A    between atoms: C_9  and  O_11
REMARK    5  A    between atoms: N_12  and  C_13
REMARK    6  A    between atoms: C_13  and  C_14
REMARK                            x       y       z     vdW  Elec       q    Type
REMARK                         _______ _______ _______ _____ _____    ______ ____
ROOT
ATOM      1  O   UNL     1       3.167   3.672  16.633  0.00  0.00    +0.000 OA
ATOM      2  C   UNL     1       4.236   3.339  17.136  0.00  0.00    +0.000 C 
ATOM      3  N   UNL     1       4.376   2.293  18.019  0.00  0.00    +0.000 N 
ATOM      4  H   UNL     1       5.269   2.111  18.457  0.00  0.00    +0.000 HD
ENDROOT
BRANCH   2   5
ATOM      5  C   UNL     1       5.535   4.116  16.878  0.00  0.00    +0.000 C 
BRANCH   5   6
ATOM      6  N   UNL     1       5.750   5.125  17.942  0.00  0.00    +0.000 NA
ATOM      7  C   UNL     1       4.716   6.175  17.878  0.00  0.00    +0.000 C 
ATOM      8  C   UNL     1       5.252   7.193  16.891  0.00  0.00    +0.000 C 
ATOM      9  C   UNL     1       6.734   7.229  17.208  0.00  0.00    +0.000 C 
ATOM     10  C   UNL     1       7.054   5.848  17.781  0.00  0.00    +0.000 C 
BRANCH  10  11
ATOM     11  C   UNL     1       7.747   5.934  19.152  0.00  0.00    +0.000 C 
ATOM     12  O   UNL     1       7.530   5.186  20.093  0.00  0.00    +0.000 OA
BRANCH  11  13
ATOM     13  O   UNL     1       8.599   6.987  19.236  0.00  0.00    +0.000 OA
ATOM     14  H   UNL     1       9.507   6.641  19.419  0.00  0.00    +0.000 HD
ENDBRANCH  11  13
ENDBRANCH  10  11
ENDBRANCH   5   6
ENDBRANCH   2   5
BRANCH   3  15
ATOM     15  C   UNL     1       3.263   1.475  18.443  0.00  0.00    +0.000 C 
BRANCH  15  16
ATOM     16  C   UNL     1       2.445   2.257  19.421  0.00  0.00    +0.000 A 
ATOM     17  C   UNL     1       1.146   2.707  19.282  0.00  0.00    +0.000 A 
ATOM     18  C   UNL     1       0.680   3.394  20.441  0.00  0.00    +0.000 A 
ATOM     19  C   UNL     1       1.640   3.452  21.427  0.00  0.00    +0.000 A 
ATOM     20  S   UNL     1       3.094   2.688  20.950  0.00  0.00    +0.000 S 
ENDBRANCH  15  16
ENDBRANCH   3  15
TORSDOF 6
ENDMDL
MODEL 8
REMARK VINA RESULT:      -6.2      2.457      5.705
REMARK  Name = 
REMARK  6 active torsions:
REMARK  status: ('A' for Active; 'I' for Inactive)
REMARK    1  A    between atoms: C_2  and  C_3
REMARK    2  A    between atoms: C_3  and  N_4
REMARK    3  A    between atoms: C_8  and  C_9
REMARK    4  A    between atoms: C_9  and  O_11
REMARK    5  A    between atoms: N_12  and  C_13
REMARK    6  A    between atoms: C_13  and  C_14
REMARK                            x       y       z     vdW  Elec       q    Type
REMARK                         _______ _______ _______ _____ _____    ______ ____
ROOT
ATOM      1  O   UNL     1       2.289   6.446  19.173  0.00  0.00    +0.000 OA
ATOM      2  C   UNL     1       2.939   5.949  18.258  0.00  0.00    +0.000 C 
ATOM      3  N   UNL     1       2.637   4.743  17.669  0.00  0.00    +0.000 N 
ATOM      4  H   UNL     1       3.250   4.349  16.968  0.00  0.00    +0.000 HD
ENDROOT
BRANCH   2   5
ATOM      5  C   UNL     1       4.217   6.604  17.716  0.00  0.00    +0.000 C 
BRANCH   5   6
ATOM      6  N   UNL     1       5.210   5.568  17.349  0.00  0.00    +0.000 NA
ATOM      7  C   UNL     1       5.938   5.100  18.544  0.00  0.00    +0.000 C 
ATOM      8  C   UNL     1       7.096   6.065  18.701  0.00  0.00    +0.000 C 
ATOM      9  C   UNL     1       7.527   6.317  17.269  0.00  0.00    +0.000 C 
ATOM     10  C   UNL     1       6.269   6.098  16.428  0.00  0.00    +0.000 C 
BRANCH  10  11
ATOM     11  C   UNL     1       6.496   5.083  15.295  0.00  0.00    +0.000 C 
ATOM     12  O   UNL     1       5.757   4.143  15.040  0.00  0.00    +0.000 OA
BRANCH  11  13
ATOM     13  O   UNL     1       7.658   5.301  14.629  0.00  0.00    +0.000 OA
ATOM     14  H   UNL     1       7.570   4.933  13.716  0.00  0.00    +0.000 HD
ENDBRANCH  11  13
ENDBRANCH  10  11
ENDBRANCH   5   6
ENDBRANCH   2   5
BRANCH   3  15
ATOM     15  C   UNL     1       1.509   3.936  18.078  0.00  0.00    +0.000 C 
BRANCH  15  16
ATOM     16  C   UNL     1       1.773   3.415  19.455  0.00  0.00    +0.000 A 
ATOM     17  C   UNL     1       0.928   3.422  20.548  0.00  0.00    +0.000 A 
ATOM     18  C   UNL     1       1.512   2.806  21.693  0.00  0.00    +0.000 A 
ATOM     19  C   UNL     1       2.787   2.353  21.440  0.00  0.00    +0.000 A 
ATOM     20  S   UNL     1       3.275   2.677  19.833  0.00  0.00    +0.000 S 
ENDBRANCH  15  16
ENDBRANCH   3  15
TORSDOF 6
ENDMDL
MODEL 9
REMARK VINA RESULT:      -6.2      2.062      5.647
REMARK  Name = 
REMARK  6 active torsions:
REMARK  status: ('A' for Active; 'I' for Inactive)
REMARK    1  A    between atoms: C_2  and  C_3
REMARK    2  A    between atoms: C_3  and  N_4
REMARK    3  A    between atoms: C_8  and  C_9
REMARK    4  A    between atoms: C_9  and  O_11
REMARK    5  A    between atoms: N_12  and  C_13
REMARK    6  A    between atoms: C_13  and  C_14
REMARK                            x       y       z     vdW  Elec       q    Type
REMARK                         _______ _______ _______ _____ _____    ______ ____
ROOT
ATOM      1  O   UNL     1       2.237   7.096  18.622  0.00  0.00    +0.000 OA
ATOM      2  C   UNL     1       3.019   6.371  18.015  0.00  0.00    +0.000 C 
ATOM      3  N   UNL     1       2.768   5.051  17.716  0.00  0.00    +0.000 N 
ATOM      4  H   UNL     1       3.480   4.483  17.277  0.00  0.00    +0.000 HD
ENDROOT
BRANCH   2   5
ATOM      5  C   UNL     1       4.410   6.855  17.581  0.00  0.00    +0.000 C 
BRANCH   5   6
ATOM      6  N   UNL     1       5.349   5.712  17.497  0.00  0.00    +0.000 NA
ATOM      7  C   UNL     1       6.491   5.911  18.410  0.00  0.00    +0.000 C 
ATOM      8  C   UNL     1       7.497   6.714  17.609  0.00  0.00    +0.000 C 
ATOM      9  C   UNL     1       7.384   6.117  16.220  0.00  0.00    +0.000 C 
ATOM     10  C   UNL     1       5.956   5.576  16.132  0.00  0.00    +0.000 C 
BRANCH  10  11
ATOM     11  C   UNL     1       5.920   4.095  15.718  0.00  0.00    +0.000 C 
ATOM     12  O   UNL     1       6.381   3.648  14.678  0.00  0.00    +0.000 OA
BRANCH  11  13
ATOM     13  O   UNL     1       5.255   3.322  16.614  0.00  0.00    +0.000 OA
ATOM     14  H   UNL     1       5.918   2.871  17.191  0.00  0.00    +0.000 HD
ENDBRANCH  11  13
ENDBRANCH  10  11
ENDBRANCH   5   6
ENDBRANCH   2   5
BRANCH   3  15
ATOM     15  C   UNL     1       1.542   4.385  18.094  0.00  0.00    +0.000 C 
BRANCH  15  16
ATOM     16  C   UNL     1       1.748   3.729  19.422  0.00  0.00    +0.000 A 
ATOM     17  C   UNL     1       0.807   3.462  20.398  0.00  0.00    +0.000 A 
ATOM     18  C   UNL     1       1.367   2.792  21.525  0.00  0.00    +0.000 A 
ATOM     19  C   UNL     1       2.719   2.574  21.377  0.00  0.00    +0.000 A 
ATOM     20  S   UNL     1       3.306   3.182  19.890  0.00  0.00    +0.000 S 
ENDBRANCH  15  16
ENDBRANCH   3  15
TORSDOF 6
ENDMDL
