MODEL 1
REMARK VINA RESULT:      -6.6      0.000      0.000
REMARK  Name = 
REMARK  1 active torsions:
REMARK  status: ('A' for Active; 'I' for Inactive)
REMARK    1  A    between atoms: N_1  and  C_2
REMARK                            x       y       z     vdW  Elec       q    Type
REMARK                         _______ _______ _______ _____ _____    ______ ____
ROOT
ATOM      1  C   UNL     1       1.469   2.881  21.000  0.00  0.00    +0.000 A 
ATOM      2  C   UNL     1       1.305   2.041  19.900  0.00  0.00    +0.000 A 
ATOM      3  C   UNL     1       1.981   2.277  18.694  0.00  0.00    +0.000 A 
ATOM      4  C   UNL     1       2.884   3.355  18.603  0.00  0.00    +0.000 A 
ATOM      5  N   UNL     1       3.635   3.710  17.494  0.00  0.00    +0.000 NA
ATOM      6  C   UNL     1       4.413   4.740  17.749  0.00  0.00    +0.000 A 
ATOM      7  N   UNL     1       5.301   5.251  16.854  0.00  0.00    +0.000 N 
ATOM      8  C   UNL     1       5.346   4.741  15.479  0.00  0.00    +0.000 C 
ATOM      9  C   UNL     1       6.814   4.593  15.044  0.00  0.00    +0.000 C 
ATOM     10  O   UNL     1       7.547   5.821  15.206  0.00  0.00    +0.000 OA
ATOM     11  C   UNL     1       7.516   6.243  16.579  0.00  0.00    +0.000 C 
ATOM     12  C   UNL     1       6.075   6.475  17.062  0.00  0.00    +0.000 C 
ATOM     13  S   UNL     1       4.238   5.353  19.360  0.00  0.00    +0.000 S 
ATOM     14  C   UNL     1       3.080   4.149  19.726  0.00  0.00    +0.000 A 
ATOM     15  C   UNL     1       2.404   3.918  20.936  0.00  0.00    +0.000 A 
ENDROOT
BRANCH   1  16
ATOM     16  N   UNL     1       0.883   2.556  22.232  0.00  0.00    +0.000 N 
ATOM     17  H   UNL     1      -0.071   2.884  22.331  0.00  0.00    +0.000 HD
ATOM     18  H   UNL     1       1.457   2.792  23.036  0.00  0.00    +0.000 HD
ENDBRANCH   1  16
TORSDOF 1
ENDMDL
MODEL 2
REMARK VINA RESULT:      -6.3      2.886      6.555
REMARK  Name = 
REMARK  1 active torsions:
REMARK  status: ('A' for Active; 'I' for Inactive)
REMARK    1  A    between atoms: N_1  and  C_2
REMARK                            x       y       z     vdW  Elec       q    Type
REMARK                         _______ _______ _______ _____ _____    ______ ____
ROOT
ATOM      1  C   UNL     1       6.941   5.522  15.523  0.00  0.00    +0.000 A 
ATOM      2  C   UNL     1       7.332   6.161  16.698  0.00  0.00    +0.000 A 
ATOM      3  C   UNL     1       6.541   6.108  17.856  0.00  0.00    +0.000 A 
ATOM      4  C   UNL     1       5.351   5.355  17.851  0.00  0.00    +0.000 A 
ATOM      5  N   UNL     1       4.473   5.194  18.911  0.00  0.00    +0.000 NA
ATOM      6  C   UNL     1       3.478   4.393  18.594  0.00  0.00    +0.000 A 
ATOM      7  N   UNL     1       2.511   4.013  19.472  0.00  0.00    +0.000 N 
ATOM      8  C   UNL     1       2.460   4.594  20.817  0.00  0.00    +0.000 C 
ATOM      9  C   UNL     1       2.147   3.483  21.835  0.00  0.00    +0.000 C 
ATOM     10  O   UNL     1       0.946   2.767  21.492  0.00  0.00    +0.000 OA
ATOM     11  C   UNL     1       1.073   2.174  20.190  0.00  0.00    +0.000 C 
ATOM     12  C   UNL     1       1.323   3.239  19.111  0.00  0.00    +0.000 C 
ATOM     13  S   UNL     1       3.547   3.822  16.960  0.00  0.00    +0.000 S 
ATOM     14  C   UNL     1       5.004   4.676  16.690  0.00  0.00    +0.000 A 
ATOM     15  C   UNL     1       5.792   4.726  15.527  0.00  0.00    +0.000 A 
ENDROOT
BRANCH   1  16
ATOM     16  N   UNL     1       7.804   5.481  14.419  0.00  0.00    +0.000 N 
ATOM     17  H   UNL     1       7.326   5.428  13.527  0.00  0.00    +0.000 HD
ATOM     18  H   UNL     1       8.545   4.790  14.501  0.00  0.00    +0.000 HD
ENDBRANCH   1  16
TORSDOF 1
ENDMDL
MODEL 3
REMARK VINA RESULT:      -6.3      2.785      6.312
REMARK  Name = 
REMARK  1 active torsions:
REMARK  status: ('A' for Active; 'I' for Inactive)
REMARK    1  A    between atoms: N_1  and  C_2
REMARK                            x       y       z     vdW  Elec       q    Type
REMARK                         _______ _______ _______ _____ _____    ______ ____
ROOT
ATOM      1  C   UNL     1       7.082   4.905  14.798  0.00  0.00    +0.000 A 
ATOM      2  C   UNL     1       6.051   4.285  14.094  0.00  0.00    +0.000 A 
ATOM      3  C   UNL     1       4.960   3.704  14.758  0.00  0.00    +0.000 A 
ATOM      4  C   UNL     1       4.875   3.789  16.162  0.00  0.00    +0.000 A 
ATOM      5  N   UNL     1       3.861   3.283  16.958  0.00  0.00    +0.000 NA
ATOM      6  C   UNL     1       4.058   3.569  18.228  0.00  0.00    +0.000 A 
ATOM      7  N   UNL     1       3.179   3.246  19.216  0.00  0.00    +0.000 N 
ATOM      8  C   UNL     1       1.997   2.431  18.920  0.00  0.00    +0.000 C 
ATOM      9  C   UNL     1       0.785   3.011  19.670  0.00  0.00    +0.000 C 
ATOM     10  O   UNL     1       1.038   3.133  21.082  0.00  0.00    +0.000 OA
ATOM     11  C   UNL     1       2.171   3.986  21.313  0.00  0.00    +0.000 C 
ATOM     12  C   UNL     1       3.437   3.429  20.644  0.00  0.00    +0.000 C 
ATOM     13  S   UNL     1       5.522   4.448  18.517  0.00  0.00    +0.000 S 
ATOM     14  C   UNL     1       5.881   4.461  16.845  0.00  0.00    +0.000 A 
ATOM     15  C   UNL     1       6.977   5.044  16.185  0.00  0.00    +0.000 A 
ENDROOT
BRANCH   1  16
ATOM     16  N   UNL     1       8.096   5.587  14.111  0.00  0.00    +0.000 N 
ATOM     17  H   UNL     1       7.868   6.551  13.895  0.00  0.00    +0.000 HD
ATOM     18  H   UNL     1       8.456   5.087  13.304  0.00  0.00    +0.000 HD
ENDBRANCH   1  16
TORSDOF 1
ENDMDL
MODEL 4
REMARK VINA RESULT:      -6.1      1.252      1.394
REMARK  Name = 
REMARK  1 active torsions:
REMARK  status: ('A' for Active; 'I' for Inactive)
REMARK    1  A    between atoms: N_1  and  C_2
REMARK                            x       y       z     vdW  Elec       q    Type
REMARK                         _______ _______ _______ _____ _____    ______ ____
ROOT
ATOM      1  C   UNL     1       1.571   3.043  21.321  0.00  0.00    +0.000 A 
ATOM      2  C   UNL     1       0.748   3.773  20.466  0.00  0.00    +0.000 A 
ATOM      3  C   UNL     1       1.273   4.464  19.363  0.00  0.00    +0.000 A 
ATOM      4  C   UNL     1       2.651   4.382  19.082  0.00  0.00    +0.000 A 
ATOM      5  N   UNL     1       3.315   4.991  18.030  0.00  0.00    +0.000 NA
ATOM      6  C   UNL     1       4.594   4.680  18.023  0.00  0.00    +0.000 A 
ATOM      7  N   UNL     1       5.462   5.090  17.059  0.00  0.00    +0.000 N 
ATOM      8  C   UNL     1       5.027   6.029  16.020  0.00  0.00    +0.000 C 
ATOM      9  C   UNL     1       5.598   5.579  14.664  0.00  0.00    +0.000 C 
ATOM     10  O   UNL     1       7.029   5.424  14.710  0.00  0.00    +0.000 OA
ATOM     11  C   UNL     1       7.393   4.453  15.706  0.00  0.00    +0.000 C 
ATOM     12  C   UNL     1       6.909   4.875  17.102  0.00  0.00    +0.000 C 
ATOM     13  S   UNL     1       5.058   3.648  19.334  0.00  0.00    +0.000 S 
ATOM     14  C   UNL     1       3.448   3.603  19.911  0.00  0.00    +0.000 A 
ATOM     15  C   UNL     1       2.929   2.909  21.017  0.00  0.00    +0.000 A 
ENDROOT
BRANCH   1  16
ATOM     16  N   UNL     1       1.013   2.259  22.340  0.00  0.00    +0.000 N 
ATOM     17  H   UNL     1       1.525   1.404  22.528  0.00  0.00    +0.000 HD
ATOM     18  H   UNL     1       0.016   2.094  22.234  0.00  0.00    +0.000 HD
ENDBRANCH   1  16
TORSDOF 1
ENDMDL
MODEL 5
REMARK VINA RESULT:      -5.8      4.383      5.505
REMARK  Name = 
REMARK  1 active torsions:
REMARK  status: ('A' for Active; 'I' for Inactive)
REMARK    1  A    between atoms: N_1  and  C_2
REMARK                            x       y       z     vdW  Elec       q    Type
REMARK                         _______ _______ _______ _____ _____    ______ ____
ROOT
ATOM      1  C   UNL     1       3.640   2.487  19.171  0.00  0.00    +0.000 A 
ATOM      2  C   UNL     1       3.062   2.520  20.438  0.00  0.00    +0.000 A 
ATOM      3  C   UNL     1       2.523   3.704  20.964  0.00  0.00    +0.000 A 
ATOM      4  C   UNL     1       2.518   4.874  20.180  0.00  0.00    +0.000 A 
ATOM      5  N   UNL     1       2.013   6.110  20.547  0.00  0.00    +0.000 NA
ATOM      6  C   UNL     1       2.124   6.985  19.570  0.00  0.00    +0.000 A 
ATOM      7  N   UNL     1       1.646   8.258  19.643  0.00  0.00    +0.000 N 
ATOM      8  C   UNL     1       1.082   8.768  20.897  0.00  0.00    +0.000 C 
ATOM      9  C   UNL     1      -0.185   9.583  20.584  0.00  0.00    +0.000 C 
ATOM     10  O   UNL     1       0.073  10.625  19.625  0.00  0.00    +0.000 OA
ATOM     11  C   UNL     1       0.571  10.063  18.400  0.00  0.00    +0.000 C 
ATOM     12  C   UNL     1       1.877   9.287  18.630  0.00  0.00    +0.000 C 
ATOM     13  S   UNL     1       2.888   6.344  18.154  0.00  0.00    +0.000 S 
ATOM     14  C   UNL     1       3.045   4.810  18.896  0.00  0.00    +0.000 A 
ATOM     15  C   UNL     1       3.588   3.628  18.365  0.00  0.00    +0.000 A 
ENDROOT
BRANCH   1  16
ATOM     16  N   UNL     1       4.057   1.269  18.616  0.00  0.00    +0.000 N 
ATOM     17  H   UNL     1       3.294   0.658  18.346  0.00  0.00    +0.000 HD
ATOM     18  H   UNL     1       4.761   0.785  19.165  0.00  0.00    +0.000 HD
ENDBRANCH   1  16
TORSDOF 1
ENDMDL
MODEL 6
REMARK VINA RESULT:      -5.7      4.616      6.356
REMARK  Name = 
REMARK  1 active torsions:
REMARK  status: ('A' for Active; 'I' for Inactive)
REMARK    1  A    between atoms: N_1  and  C_2
REMARK                            x       y       z     vdW  Elec       q    Type
REMARK                         _______ _______ _______ _____ _____    ______ ____
ROOT
ATOM      1  C   UNL     1       4.945   4.256  17.300  0.00  0.00    +0.000 A 
ATOM      2  C   UNL     1       4.677   3.698  18.549  0.00  0.00    +0.000 A 
ATOM      3  C   UNL     1       3.941   4.397  19.518  0.00  0.00    +0.000 A 
ATOM      4  C   UNL     1       3.418   5.669  19.211  0.00  0.00    +0.000 A 
ATOM      5  N   UNL     1       2.665   6.475  20.048  0.00  0.00    +0.000 NA
ATOM      6  C   UNL     1       2.294   7.583  19.444  0.00  0.00    +0.000 A 
ATOM      7  N   UNL     1       1.490   8.519  20.018  0.00  0.00    +0.000 N 
ATOM      8  C   UNL     1       1.090   8.393  21.424  0.00  0.00    +0.000 C 
ATOM      9  C   UNL     1      -0.398   8.762  21.559  0.00  0.00    +0.000 C 
ATOM     10  O   UNL     1      -0.677  10.065  21.016  0.00  0.00    +0.000 OA
ATOM     11  C   UNL     1      -0.317  10.114  19.626  0.00  0.00    +0.000 C 
ATOM     12  C   UNL     1       1.177   9.819  19.423  0.00  0.00    +0.000 C 
ATOM     13  S   UNL     1       2.883   7.713  17.820  0.00  0.00    +0.000 S 
ATOM     14  C   UNL     1       3.645   6.187  17.942  0.00  0.00    +0.000 A 
ATOM     15  C   UNL     1       4.382   5.491  16.968  0.00  0.00    +0.000 A 
ENDROOT
BRANCH   1  16
ATOM     16  N   UNL     1       5.571   3.493  16.305  0.00  0.00    +0.000 N 
ATOM     17  H   UNL     1       6.058   4.047  15.609  0.00  0.00    +0.000 HD
ATOM     18  H   UNL     1       4.969   2.791  15.885  0.00  0.00    +0.000 HD
ENDBRANCH   1  16
TORSDOF 1
ENDMDL
MODEL 7
REMARK VINA RESULT:      -5.7      4.611      5.660
REMARK  Name = 
REMARK  1 active torsions:
REMARK  status: ('A' for Active; 'I' for Inactive)
REMARK    1  A    between atoms: N_1  and  C_2
REMARK                            x       y       z     vdW  Elec       q    Type
REMARK                         _______ _______ _______ _____ _____    ______ ____
ROOT
ATOM      1  C   UNL     1       4.404   3.585  19.060  0.00  0.00    +0.000 A 
ATOM      2  C   UNL     1       4.857   4.181  17.884  0.00  0.00    +0.000 A 
ATOM      3  C   UNL     1       4.388   5.439  17.477  0.00  0.00    +0.000 A 
ATOM      4  C   UNL     1       3.479   6.140  18.293  0.00  0.00    +0.000 A 
ATOM      5  N   UNL     1       2.937   7.390  18.040  0.00  0.00    +0.000 NA
ATOM      6  C   UNL     1       2.154   7.783  19.021  0.00  0.00    +0.000 A 
ATOM      7  N   UNL     1       1.547   9.001  19.057  0.00  0.00    +0.000 N 
ATOM      8  C   UNL     1       1.639   9.909  17.909  0.00  0.00    +0.000 C 
ATOM      9  C   UNL     1       1.876  11.342  18.419  0.00  0.00    +0.000 C 
ATOM     10  O   UNL     1       0.872  11.744  19.369  0.00  0.00    +0.000 OA
ATOM     11  C   UNL     1       0.864  10.852  20.495  0.00  0.00    +0.000 C 
ATOM     12  C   UNL     1       0.567   9.408  20.063  0.00  0.00    +0.000 C 
ATOM     13  S   UNL     1       2.012   6.620  20.297  0.00  0.00    +0.000 S 
ATOM     14  C   UNL     1       3.082   5.558  19.490  0.00  0.00    +0.000 A 
ATOM     15  C   UNL     1       3.547   4.297  19.903  0.00  0.00    +0.000 A 
ENDROOT
BRANCH   1  16
ATOM     16  N   UNL     1       4.978   2.388  19.512  0.00  0.00    +0.000 N 
ATOM     17  H   UNL     1       4.301   1.693  19.805  0.00  0.00    +0.000 HD
ATOM     18  H   UNL     1       5.717   2.518  20.197  0.00  0.00    +0.000 HD
ENDBRANCH   1  16
TORSDOF 1
ENDMDL
MODEL 8
REMARK VINA RESULT:      -5.6      4.391      5.676
REMARK  Name = 
REMARK  1 active torsions:
REMARK  status: ('A' for Active; 'I' for Inactive)
REMARK    1  A    between atoms: N_1  and  C_2
REMARK                            x       y       z     vdW  Elec       q    Type
REMARK                         _______ _______ _______ _____ _____    ______ ____
ROOT
ATOM      1  C   UNL     1       1.078  10.234  19.639  0.00  0.00    +0.000 A 
ATOM      2  C   UNL     1       1.563  10.185  18.333  0.00  0.00    +0.000 A 
ATOM      3  C   UNL     1       2.149   9.020  17.816  0.00  0.00    +0.000 A 
ATOM      4  C   UNL     1       2.206   7.858  18.611  0.00  0.00    +0.000 A 
ATOM      5  N   UNL     1       2.736   6.633  18.243  0.00  0.00    +0.000 NA
ATOM      6  C   UNL     1       2.596   5.741  19.200  0.00  0.00    +0.000 A 
ATOM      7  N   UNL     1       2.971   4.438  19.074  0.00  0.00    +0.000 N 
ATOM      8  C   UNL     1       3.685   3.984  17.877  0.00  0.00    +0.000 C 
ATOM      9  C   UNL     1       3.121   2.620  17.441  0.00  0.00    +0.000 C 
ATOM     10  O   UNL     1       3.160   1.658  18.511  0.00  0.00    +0.000 OA
ATOM     11  C   UNL     1       2.401   2.131  19.635  0.00  0.00    +0.000 C 
ATOM     12  C   UNL     1       2.954   3.463  20.165  0.00  0.00    +0.000 C 
ATOM     13  S   UNL     1       1.834   6.370  20.623  0.00  0.00    +0.000 S 
ATOM     14  C   UNL     1       1.666   7.906  19.890  0.00  0.00    +0.000 A 
ATOM     15  C   UNL     1       1.079   9.071  20.414  0.00  0.00    +0.000 A 
ENDROOT
BRANCH   1  16
ATOM     16  N   UNL     1       0.384  11.365  20.093  0.00  0.00    +0.000 N 
ATOM     17  H   UNL     1      -0.015  11.257  21.019  0.00  0.00    +0.000 HD
ATOM     18  H   UNL     1      -0.288  11.732  19.425  0.00  0.00    +0.000 HD
ENDBRANCH   1  16
TORSDOF 1
ENDMDL
MODEL 9
REMARK VINA RESULT:      -5.6      9.989     11.929
REMARK  Name = 
REMARK  1 active torsions:
REMARK  status: ('A' for Active; 'I' for Inactive)
REMARK    1  A    between atoms: N_1  and  C_2
REMARK                            x       y       z     vdW  Elec       q    Type
REMARK                         _______ _______ _______ _____ _____    ______ ____
ROOT
ATOM      1  C   UNL     1      11.090  13.078  17.200  0.00  0.00    +0.000 A 
ATOM      2  C   UNL     1      11.359  11.851  17.802  0.00  0.00    +0.000 A 
ATOM      3  C   UNL     1      10.794  11.505  19.039  0.00  0.00    +0.000 A 
ATOM      4  C   UNL     1       9.897  12.392  19.666  0.00  0.00    +0.000 A 
ATOM      5  N   UNL     1       9.248  12.193  20.874  0.00  0.00    +0.000 NA
ATOM      6  C   UNL     1       8.444  13.194  21.160  0.00  0.00    +0.000 A 
ATOM      7  N   UNL     1       7.638  13.221  22.256  0.00  0.00    +0.000 N 
ATOM      8  C   UNL     1       7.723  12.161  23.265  0.00  0.00    +0.000 C 
ATOM      9  C   UNL     1       6.301  11.770  23.706  0.00  0.00    +0.000 C 
ATOM     10  O   UNL     1       5.549  12.911  24.159  0.00  0.00    +0.000 OA
ATOM     11  C   UNL     1       5.452  13.892  23.113  0.00  0.00    +0.000 C 
ATOM     12  C   UNL     1       6.840  14.376  22.668  0.00  0.00    +0.000 C 
ATOM     13  S   UNL     1       8.467  14.456  19.974  0.00  0.00    +0.000 S 
ATOM     14  C   UNL     1       9.594  13.587  19.025  0.00  0.00    +0.000 A 
ATOM     15  C   UNL     1      10.158  13.939  17.787  0.00  0.00    +0.000 A 
ENDROOT
BRANCH   1  16
ATOM     16  N   UNL     1      11.563  13.351  15.909  0.00  0.00    +0.000 N 
ATOM     17  H   UNL     1      11.727  12.522  15.348  0.00  0.00    +0.000 HD
ATOM     18  H   UNL     1      12.350  13.992  15.885  0.00  0.00    +0.000 HD
ENDBRANCH   1  16
TORSDOF 1
ENDMDL
