MODEL 1
REMARK VINA RESULT:      -7.8      0.000      0.000
REMARK  Name = 
REMARK  5 active torsions:
REMARK  status: ('A' for Active; 'I' for Inactive)
REMARK    1  A    between atoms: C_1  and  C_2
REMARK    2  A    between atoms: C_2  and  C_3
REMARK    3  A    between atoms: C_3  and  C_4
REMARK    4  A    between atoms: C_3  and  C_10
REMARK    5  A    between atoms: C_13  and  C_14
REMARK                            x       y       z     vdW  Elec       q    Type
REMARK                         _______ _______ _______ _____ _____    ______ ____
ROOT
ATOM      1  C   UNL     1       4.475   5.596  18.162  0.00  0.00    +0.000 A 
ATOM      2  N   UNL     1       4.756   5.250  16.935  0.00  0.00    +0.000 NA
ATOM      3  N   UNL     1       6.065   4.874  16.944  0.00  0.00    +0.000 N 
ATOM      4  C   UNL     1       6.944   4.430  15.988  0.00  0.00    +0.000 A 
ATOM      5  N   UNL     1       8.111   4.202  16.585  0.00  0.00    +0.000 NA
ATOM      6  N   UNL     1       7.994   4.510  17.941  0.00  0.00    +0.000 NA
ATOM      7  C   UNL     1       6.766   4.909  18.099  0.00  0.00    +0.000 A 
ATOM      8  S   UNL     1       5.778   5.470  19.376  0.00  0.00    +0.000 S 
ENDROOT
BRANCH   4   9
ATOM      9  C   UNL     1       6.645   4.263  14.596  0.00  0.00    +0.000 A 
ATOM     10  C   UNL     1       5.577   3.590  14.026  0.00  0.00    +0.000 A 
ATOM     11  C   UNL     1       5.586   3.632  12.603  0.00  0.00    +0.000 A 
ATOM     12  C   UNL     1       6.664   4.337  12.120  0.00  0.00    +0.000 A 
ATOM     13  S   UNL     1       7.652   4.939  13.379  0.00  0.00    +0.000 S 
ENDBRANCH   4   9
BRANCH   1  14
ATOM     14  C   UNL     1       3.100   6.099  18.555  0.00  0.00    +0.000 C 
BRANCH  14  15
ATOM     15  C   UNL     1       2.212   4.959  19.043  0.00  0.00    +0.000 A 
ATOM     16  C   UNL     1       1.917   4.773  20.404  0.00  0.00    +0.000 A 
ATOM     17  C   UNL     1       1.133   3.697  20.825  0.00  0.00    +0.000 A 
ATOM     18  C   UNL     1       0.615   2.804  19.895  0.00  0.00    +0.000 A 
ATOM     19  C   UNL     1       0.869   2.992  18.538  0.00  0.00    +0.000 A 
ATOM     20  C   UNL     1       1.658   4.063  18.114  0.00  0.00    +0.000 A 
ENDBRANCH  14  15
BRANCH  14  22
ATOM     21  C   UNL     1       2.139   8.405  17.946  0.00  0.00    +0.000 C 
ATOM     22  C   UNL     1       2.436   6.986  17.482  0.00  0.00    +0.000 C 
ENDBRANCH  14  22
ENDBRANCH   1  14
TORSDOF 4
ENDMDL
MODEL 2
REMARK VINA RESULT:      -7.7      1.019      2.755
REMARK  Name = 
REMARK  5 active torsions:
REMARK  status: ('A' for Active; 'I' for Inactive)
REMARK    1  A    between atoms: C_1  and  C_2
REMARK    2  A    between atoms: C_2  and  C_3
REMARK    3  A    between atoms: C_3  and  C_4
REMARK    4  A    between atoms: C_3  and  C_10
REMARK    5  A    between atoms: C_13  and  C_14
REMARK                            x       y       z     vdW  Elec       q    Type
REMARK                         _______ _______ _______ _____ _____    ______ ____
ROOT
ATOM      1  C   UNL     1       3.918   4.987  17.903  0.00  0.00    +0.000 A 
ATOM      2  N   UNL     1       4.394   4.750  16.711  0.00  0.00    +0.000 NA
ATOM      3  N   UNL     1       5.743   4.648  16.862  0.00  0.00    +0.000 N 
ATOM      4  C   UNL     1       6.793   4.428  16.004  0.00  0.00    +0.000 A 
ATOM      5  N   UNL     1       7.910   4.420  16.725  0.00  0.00    +0.000 NA
ATOM      6  N   UNL     1       7.589   4.648  18.063  0.00  0.00    +0.000 NA
ATOM      7  C   UNL     1       6.295   4.783  18.089  0.00  0.00    +0.000 A 
ATOM      8  S   UNL     1       5.082   5.085  19.254  0.00  0.00    +0.000 S 
ENDROOT
BRANCH   4   9
ATOM      9  C   UNL     1       6.685   4.254  14.585  0.00  0.00    +0.000 A 
ATOM     10  C   UNL     1       5.784   3.467  13.886  0.00  0.00    +0.000 A 
ATOM     11  C   UNL     1       5.958   3.539  12.475  0.00  0.00    +0.000 A 
ATOM     12  C   UNL     1       6.990   4.381  12.130  0.00  0.00    +0.000 A 
ATOM     13  S   UNL     1       7.738   5.074  13.503  0.00  0.00    +0.000 S 
ENDBRANCH   4   9
BRANCH   1  14
ATOM     14  C   UNL     1       2.435   5.185  18.146  0.00  0.00    +0.000 C 
BRANCH  14  15
ATOM     15  C   UNL     1       2.142   6.581  18.685  0.00  0.00    +0.000 A 
ATOM     16  C   UNL     1       1.867   6.815  20.042  0.00  0.00    +0.000 A 
ATOM     17  C   UNL     1       1.565   8.099  20.500  0.00  0.00    +0.000 A 
ATOM     18  C   UNL     1       1.553   9.171  19.614  0.00  0.00    +0.000 A 
ATOM     19  C   UNL     1       1.857   8.964  18.271  0.00  0.00    +0.000 A 
ATOM     20  C   UNL     1       2.154   7.679  17.809  0.00  0.00    +0.000 A 
ENDBRANCH  14  15
BRANCH  14  22
ATOM     21  C   UNL     1       1.866   2.683  18.312  0.00  0.00    +0.000 C 
ATOM     22  C   UNL     1       1.787   4.053  18.969  0.00  0.00    +0.000 C 
ENDBRANCH  14  22
ENDBRANCH   1  14
TORSDOF 4
ENDMDL
MODEL 3
REMARK VINA RESULT:      -7.7      0.059      1.029
REMARK  Name = 
REMARK  5 active torsions:
REMARK  status: ('A' for Active; 'I' for Inactive)
REMARK    1  A    between atoms: C_1  and  C_2
REMARK    2  A    between atoms: C_2  and  C_3
REMARK    3  A    between atoms: C_3  and  C_4
REMARK    4  A    between atoms: C_3  and  C_10
REMARK    5  A    between atoms: C_13  and  C_14
REMARK                            x       y       z     vdW  Elec       q    Type
REMARK                         _______ _______ _______ _____ _____    ______ ____
ROOT
ATOM      1  C   UNL     1       4.510   5.594  18.156  0.00  0.00    +0.000 A 
ATOM      2  N   UNL     1       4.791   5.253  16.928  0.00  0.00    +0.000 NA
ATOM      3  N   UNL     1       6.099   4.875  16.935  0.00  0.00    +0.000 N 
ATOM      4  C   UNL     1       6.977   4.434  15.977  0.00  0.00    +0.000 A 
ATOM      5  N   UNL     1       8.143   4.201  16.572  0.00  0.00    +0.000 NA
ATOM      6  N   UNL     1       8.028   4.503  17.929  0.00  0.00    +0.000 NA
ATOM      7  C   UNL     1       6.800   4.903  18.090  0.00  0.00    +0.000 A 
ATOM      8  S   UNL     1       5.813   5.460  19.370  0.00  0.00    +0.000 S 
ENDROOT
BRANCH   4   9
ATOM      9  C   UNL     1       6.677   4.274  14.584  0.00  0.00    +0.000 A 
ATOM     10  C   UNL     1       5.609   3.604  14.011  0.00  0.00    +0.000 A 
ATOM     11  C   UNL     1       5.617   3.653  12.588  0.00  0.00    +0.000 A 
ATOM     12  C   UNL     1       6.695   4.360  12.108  0.00  0.00    +0.000 A 
ATOM     13  S   UNL     1       7.683   4.956  13.370  0.00  0.00    +0.000 S 
ENDBRANCH   4   9
BRANCH   1  14
ATOM     14  C   UNL     1       3.136   6.097  18.552  0.00  0.00    +0.000 C 
BRANCH  14  15
ATOM     15  C   UNL     1       2.244   4.955  19.028  0.00  0.00    +0.000 A 
ATOM     16  C   UNL     1       1.652   4.047  18.134  0.00  0.00    +0.000 A 
ATOM     17  C   UNL     1       0.809   3.035  18.596  0.00  0.00    +0.000 A 
ATOM     18  C   UNL     1       0.559   2.901  19.958  0.00  0.00    +0.000 A 
ATOM     19  C   UNL     1       1.165   3.771  20.862  0.00  0.00    +0.000 A 
ATOM     20  C   UNL     1       2.004   4.788  20.402  0.00  0.00    +0.000 A 
ENDBRANCH  14  15
BRANCH  14  22
ATOM     21  C   UNL     1       2.050   8.363  18.007  0.00  0.00    +0.000 C 
ATOM     22  C   UNL     1       2.477   6.997  17.488  0.00  0.00    +0.000 C 
ENDBRANCH  14  22
ENDBRANCH   1  14
TORSDOF 4
ENDMDL
MODEL 4
REMARK VINA RESULT:      -7.6      1.070      2.778
REMARK  Name = 
REMARK  5 active torsions:
REMARK  status: ('A' for Active; 'I' for Inactive)
REMARK    1  A    between atoms: C_1  and  C_2
REMARK    2  A    between atoms: C_2  and  C_3
REMARK    3  A    between atoms: C_3  and  C_4
REMARK    4  A    between atoms: C_3  and  C_10
REMARK    5  A    between atoms: C_13  and  C_14
REMARK                            x       y       z     vdW  Elec       q    Type
REMARK                         _______ _______ _______ _____ _____    ______ ____
ROOT
ATOM      1  C   UNL     1       3.942   4.823  17.804  0.00  0.00    +0.000 A 
ATOM      2  N   UNL     1       4.434   4.636  16.610  0.00  0.00    +0.000 NA
ATOM      3  N   UNL     1       5.784   4.568  16.769  0.00  0.00    +0.000 N 
ATOM      4  C   UNL     1       6.846   4.403  15.914  0.00  0.00    +0.000 A 
ATOM      5  N   UNL     1       7.958   4.405  16.644  0.00  0.00    +0.000 NA
ATOM      6  N   UNL     1       7.619   4.583  17.985  0.00  0.00    +0.000 NA
ATOM      7  C   UNL     1       6.322   4.681  18.004  0.00  0.00    +0.000 A 
ATOM      8  S   UNL     1       5.092   4.912  19.168  0.00  0.00    +0.000 S 
ENDROOT
BRANCH   4   9
ATOM      9  C   UNL     1       6.754   4.270  14.489  0.00  0.00    +0.000 A 
ATOM     10  C   UNL     1       5.862   3.502  13.759  0.00  0.00    +0.000 A 
ATOM     11  C   UNL     1       6.051   3.615  12.352  0.00  0.00    +0.000 A 
ATOM     12  C   UNL     1       7.085   4.468  12.043  0.00  0.00    +0.000 A 
ATOM     13  S   UNL     1       7.816   5.122  13.442  0.00  0.00    +0.000 S 
ENDBRANCH   4   9
BRANCH   1  14
ATOM     14  C   UNL     1       2.452   4.970  18.041  0.00  0.00    +0.000 C 
BRANCH  14  15
ATOM     15  C   UNL     1       2.128   6.291  18.731  0.00  0.00    +0.000 A 
ATOM     16  C   UNL     1       2.141   7.516  18.044  0.00  0.00    +0.000 A 
ATOM     17  C   UNL     1       1.878   8.714  18.711  0.00  0.00    +0.000 A 
ATOM     18  C   UNL     1       1.579   8.706  20.069  0.00  0.00    +0.000 A 
ATOM     19  C   UNL     1       1.528   7.497  20.760  0.00  0.00    +0.000 A 
ATOM     20  C   UNL     1       1.796   6.298  20.096  0.00  0.00    +0.000 A 
ENDBRANCH  14  15
BRANCH  14  22
ATOM     21  C   UNL     1       2.195   2.413  18.087  0.00  0.00    +0.000 C 
ATOM     22  C   UNL     1       1.809   3.743  18.717  0.00  0.00    +0.000 C 
ENDBRANCH  14  22
ENDBRANCH   1  14
TORSDOF 4
ENDMDL
MODEL 5
REMARK VINA RESULT:      -7.1      3.973      7.820
REMARK  Name = 
REMARK  5 active torsions:
REMARK  status: ('A' for Active; 'I' for Inactive)
REMARK    1  A    between atoms: C_1  and  C_2
REMARK    2  A    between atoms: C_2  and  C_3
REMARK    3  A    between atoms: C_3  and  C_4
REMARK    4  A    between atoms: C_3  and  C_10
REMARK    5  A    between atoms: C_13  and  C_14
REMARK                            x       y       z     vdW  Elec       q    Type
REMARK                         _______ _______ _______ _____ _____    ______ ____
ROOT
ATOM      1  C   UNL     1       2.658   6.699  19.028  0.00  0.00    +0.000 A 
ATOM      2  N   UNL     1       1.960   7.354  19.915  0.00  0.00    +0.000 NA
ATOM      3  N   UNL     1       1.736   8.585  19.377  0.00  0.00    +0.000 N 
ATOM      4  C   UNL     1       1.091   9.718  19.808  0.00  0.00    +0.000 A 
ATOM      5  N   UNL     1       1.184  10.628  18.842  0.00  0.00    +0.000 NA
ATOM      6  N   UNL     1       1.905  10.087  17.777  0.00  0.00    +0.000 NA
ATOM      7  C   UNL     1       2.213   8.878  18.148  0.00  0.00    +0.000 A 
ATOM      8  S   UNL     1       3.062   7.541  17.505  0.00  0.00    +0.000 S 
ENDROOT
BRANCH   4   9
ATOM      9  C   UNL     1       0.451   9.880  21.081  0.00  0.00    +0.000 A 
ATOM     10  C   UNL     1       0.620   9.117  22.224  0.00  0.00    +0.000 A 
ATOM     11  C   UNL     1      -0.172   9.568  23.318  0.00  0.00    +0.000 A 
ATOM     12  C   UNL     1      -0.929  10.666  22.981  0.00  0.00    +0.000 A 
ATOM     13  S   UNL     1      -0.680  11.142  21.358  0.00  0.00    +0.000 S 
ENDBRANCH   4   9
BRANCH   1  14
ATOM     14  C   UNL     1       3.126   5.277  19.270  0.00  0.00    +0.000 C 
BRANCH  14  15
ATOM     15  C   UNL     1       4.419   4.983  18.517  0.00  0.00    +0.000 A 
ATOM     16  C   UNL     1       5.679   5.322  19.036  0.00  0.00    +0.000 A 
ATOM     17  C   UNL     1       6.844   5.075  18.306  0.00  0.00    +0.000 A 
ATOM     18  C   UNL     1       6.769   4.467  17.057  0.00  0.00    +0.000 A 
ATOM     19  C   UNL     1       5.531   4.092  16.542  0.00  0.00    +0.000 A 
ATOM     20  C   UNL     1       4.364   4.344  17.267  0.00  0.00    +0.000 A 
ENDBRANCH  14  15
BRANCH  14  22
ATOM     21  C   UNL     1       1.282   3.825  20.320  0.00  0.00    +0.000 C 
ATOM     22  C   UNL     1       2.026   4.219  19.052  0.00  0.00    +0.000 C 
ENDBRANCH  14  22
ENDBRANCH   1  14
TORSDOF 4
ENDMDL
MODEL 6
REMARK VINA RESULT:      -7.0      3.982      7.883
REMARK  Name = 
REMARK  5 active torsions:
REMARK  status: ('A' for Active; 'I' for Inactive)
REMARK    1  A    between atoms: C_1  and  C_2
REMARK    2  A    between atoms: C_2  and  C_3
REMARK    3  A    between atoms: C_3  and  C_4
REMARK    4  A    between atoms: C_3  and  C_10
REMARK    5  A    between atoms: C_13  and  C_14
REMARK                            x       y       z     vdW  Elec       q    Type
REMARK                         _______ _______ _______ _____ _____    ______ ____
ROOT
ATOM      1  C   UNL     1       2.629   6.730  18.970  0.00  0.00    +0.000 A 
ATOM      2  N   UNL     1       1.938   7.376  19.870  0.00  0.00    +0.000 NA
ATOM      3  N   UNL     1       1.730   8.620  19.357  0.00  0.00    +0.000 N 
ATOM      4  C   UNL     1       1.099   9.753  19.809  0.00  0.00    +0.000 A 
ATOM      5  N   UNL     1       1.205  10.681  18.862  0.00  0.00    +0.000 NA
ATOM      6  N   UNL     1       1.920  10.152  17.787  0.00  0.00    +0.000 NA
ATOM      7  C   UNL     1       2.213   8.933  18.134  0.00  0.00    +0.000 A 
ATOM      8  S   UNL     1       3.045   7.598  17.466  0.00  0.00    +0.000 S 
ENDROOT
BRANCH   4   9
ATOM      9  C   UNL     1       0.459   9.896  21.085  0.00  0.00    +0.000 A 
ATOM     10  C   UNL     1       0.658   9.142  22.229  0.00  0.00    +0.000 A 
ATOM     11  C   UNL     1      -0.145   9.570  23.325  0.00  0.00    +0.000 A 
ATOM     12  C   UNL     1      -0.938  10.643  22.989  0.00  0.00    +0.000 A 
ATOM     13  S   UNL     1      -0.711  11.122  21.364  0.00  0.00    +0.000 S 
ENDBRANCH   4   9
BRANCH   1  14
ATOM     14  C   UNL     1       3.079   5.298  19.185  0.00  0.00    +0.000 C 
BRANCH  14  15
ATOM     15  C   UNL     1       4.385   5.012  18.452  0.00  0.00    +0.000 A 
ATOM     16  C   UNL     1       4.415   4.391  17.193  0.00  0.00    +0.000 A 
ATOM     17  C   UNL     1       5.628   4.107  16.563  0.00  0.00    +0.000 A 
ATOM     18  C   UNL     1       6.829   4.455  17.171  0.00  0.00    +0.000 A 
ATOM     19  C   UNL     1       6.818   5.103  18.405  0.00  0.00    +0.000 A 
ATOM     20  C   UNL     1       5.606   5.383  19.040  0.00  0.00    +0.000 A 
ENDBRANCH  14  15
BRANCH  14  22
ATOM     21  C   UNL     1       1.120   3.927  20.131  0.00  0.00    +0.000 C 
ATOM     22  C   UNL     1       1.974   4.257  18.915  0.00  0.00    +0.000 C 
ENDBRANCH  14  22
ENDBRANCH   1  14
TORSDOF 4
ENDMDL
MODEL 7
REMARK VINA RESULT:      -6.9      4.361      8.055
REMARK  Name = 
REMARK  5 active torsions:
REMARK  status: ('A' for Active; 'I' for Inactive)
REMARK    1  A    between atoms: C_1  and  C_2
REMARK    2  A    between atoms: C_2  and  C_3
REMARK    3  A    between atoms: C_3  and  C_4
REMARK    4  A    between atoms: C_3  and  C_10
REMARK    5  A    between atoms: C_13  and  C_14
REMARK                            x       y       z     vdW  Elec       q    Type
REMARK                         _______ _______ _______ _____ _____    ______ ____
ROOT
ATOM      1  C   UNL     1       2.300   7.084  19.573  0.00  0.00    +0.000 A 
ATOM      2  N   UNL     1       1.544   7.833  20.329  0.00  0.00    +0.000 NA
ATOM      3  N   UNL     1       1.348   8.987  19.633  0.00  0.00    +0.000 N 
ATOM      4  C   UNL     1       0.673  10.156  19.881  0.00  0.00    +0.000 A 
ATOM      5  N   UNL     1       0.822  10.943  18.820  0.00  0.00    +0.000 NA
ATOM      6  N   UNL     1       1.611  10.286  17.875  0.00  0.00    +0.000 NA
ATOM      7  C   UNL     1       1.901   9.135  18.409  0.00  0.00    +0.000 A 
ATOM      8  S   UNL     1       2.794   7.740  17.988  0.00  0.00    +0.000 S 
ENDROOT
BRANCH   4   9
ATOM      9  C   UNL     1      -0.046  10.463  21.083  0.00  0.00    +0.000 A 
ATOM     10  C   UNL     1      -0.097   9.731  22.259  0.00  0.00    +0.000 A 
ATOM     11  C   UNL     1      -0.907  10.340  23.259  0.00  0.00    +0.000 A 
ATOM     12  C   UNL     1      -1.456  11.523  22.822  0.00  0.00    +0.000 A 
ATOM     13  S   UNL     1      -0.995  11.889  21.217  0.00  0.00    +0.000 S 
ENDBRANCH   4   9
BRANCH   1  14
ATOM     14  C   UNL     1       2.758   5.708  20.016  0.00  0.00    +0.000 C 
BRANCH  14  15
ATOM     15  C   UNL     1       3.630   5.046  18.955  0.00  0.00    +0.000 A 
ATOM     16  C   UNL     1       5.033   5.102  18.999  0.00  0.00    +0.000 A 
ATOM     17  C   UNL     1       5.805   4.519  17.992  0.00  0.00    +0.000 A 
ATOM     18  C   UNL     1       5.190   3.856  16.937  0.00  0.00    +0.000 A 
ATOM     19  C   UNL     1       3.800   3.760  16.893  0.00  0.00    +0.000 A 
ATOM     20  C   UNL     1       3.026   4.347  17.896  0.00  0.00    +0.000 A 
ENDBRANCH  14  15
BRANCH  14  22
ATOM     21  C   UNL     1       2.076   3.631  21.370  0.00  0.00    +0.000 C 
ATOM     22  C   UNL     1       1.613   4.810  20.526  0.00  0.00    +0.000 C 
ENDBRANCH  14  22
ENDBRANCH   1  14
TORSDOF 4
ENDMDL
MODEL 8
REMARK VINA RESULT:      -6.9      1.743      3.082
REMARK  Name = 
REMARK  5 active torsions:
REMARK  status: ('A' for Active; 'I' for Inactive)
REMARK    1  A    between atoms: C_1  and  C_2
REMARK    2  A    between atoms: C_2  and  C_3
REMARK    3  A    between atoms: C_3  and  C_4
REMARK    4  A    between atoms: C_3  and  C_10
REMARK    5  A    between atoms: C_13  and  C_14
REMARK                            x       y       z     vdW  Elec       q    Type
REMARK                         _______ _______ _______ _____ _____    ______ ____
ROOT
ATOM      1  C   UNL     1       4.597   4.545  17.161  0.00  0.00    +0.000 A 
ATOM      2  N   UNL     1       4.661   4.087  15.941  0.00  0.00    +0.000 NA
ATOM      3  N   UNL     1       5.803   4.603  15.408  0.00  0.00    +0.000 N 
ATOM      4  C   UNL     1       6.417   4.516  14.183  0.00  0.00    +0.000 A 
ATOM      5  N   UNL     1       7.535   5.234  14.239  0.00  0.00    +0.000 NA
ATOM      6  N   UNL     1       7.647   5.803  15.507  0.00  0.00    +0.000 NA
ATOM      7  C   UNL     1       6.593   5.403  16.158  0.00  0.00    +0.000 A 
ATOM      8  S   UNL     1       5.921   5.608  17.716  0.00  0.00    +0.000 S 
ENDROOT
BRANCH   4   9
ATOM      9  C   UNL     1       5.918   3.790  13.052  0.00  0.00    +0.000 A 
ATOM     10  C   UNL     1       4.617   3.733  12.579  0.00  0.00    +0.000 A 
ATOM     11  C   UNL     1       4.480   2.917  11.421  0.00  0.00    +0.000 A 
ATOM     12  C   UNL     1       5.682   2.369  11.037  0.00  0.00    +0.000 A 
ATOM     13  S   UNL     1       6.960   2.839  12.071  0.00  0.00    +0.000 S 
ENDBRANCH   4   9
BRANCH   1  14
ATOM     14  C   UNL     1       3.443   4.204  18.084  0.00  0.00    +0.000 C 
BRANCH  14  15
ATOM     15  C   UNL     1       2.870   5.456  18.740  0.00  0.00    +0.000 A 
ATOM     16  C   UNL     1       2.751   6.674  18.051  0.00  0.00    +0.000 A 
ATOM     17  C   UNL     1       2.258   7.813  18.690  0.00  0.00    +0.000 A 
ATOM     18  C   UNL     1       1.858   7.749  20.020  0.00  0.00    +0.000 A 
ATOM     19  C   UNL     1       1.935   6.541  20.710  0.00  0.00    +0.000 A 
ATOM     20  C   UNL     1       2.434   5.401  20.075  0.00  0.00    +0.000 A 
ENDBRANCH  14  15
BRANCH  14  22
ATOM     21  C   UNL     1       3.458   1.676  18.553  0.00  0.00    +0.000 C 
ATOM     22  C   UNL     1       3.762   3.071  19.080  0.00  0.00    +0.000 C 
ENDBRANCH  14  22
ENDBRANCH   1  14
TORSDOF 4
ENDMDL
MODEL 9
REMARK VINA RESULT:      -6.8      3.864      7.213
REMARK  Name = 
REMARK  5 active torsions:
REMARK  status: ('A' for Active; 'I' for Inactive)
REMARK    1  A    between atoms: C_1  and  C_2
REMARK    2  A    between atoms: C_2  and  C_3
REMARK    3  A    between atoms: C_3  and  C_4
REMARK    4  A    between atoms: C_3  and  C_10
REMARK    5  A    between atoms: C_13  and  C_14
REMARK                            x       y       z     vdW  Elec       q    Type
REMARK                         _______ _______ _______ _____ _____    ______ ____
ROOT
ATOM      1  C   UNL     1       3.015   6.754  18.669  0.00  0.00    +0.000 A 
ATOM      2  N   UNL     1       2.249   7.304  19.572  0.00  0.00    +0.000 NA
ATOM      3  N   UNL     1       1.900   8.521  19.071  0.00  0.00    +0.000 N 
ATOM      4  C   UNL     1       1.140   9.567  19.532  0.00  0.00    +0.000 A 
ATOM      5  N   UNL     1       1.140  10.512  18.596  0.00  0.00    +0.000 NA
ATOM      6  N   UNL     1       1.917  10.083  17.520  0.00  0.00    +0.000 NA
ATOM      7  C   UNL     1       2.348   8.902  17.855  0.00  0.00    +0.000 A 
ATOM      8  S   UNL     1       3.334   7.681  17.176  0.00  0.00    +0.000 S 
ENDROOT
BRANCH   4   9
ATOM      9  C   UNL     1       0.482   9.621  20.806  0.00  0.00    +0.000 A 
ATOM     10  C   UNL     1       0.132   8.565  21.631  0.00  0.00    +0.000 A 
ATOM     11  C   UNL     1      -0.504   8.985  22.834  0.00  0.00    +0.000 A 
ATOM     12  C   UNL     1      -0.625  10.354  22.897  0.00  0.00    +0.000 A 
ATOM     13  S   UNL     1       0.025  11.118  21.513  0.00  0.00    +0.000 S 
ENDBRANCH   4   9
BRANCH   1  14
ATOM     14  C   UNL     1       3.628   5.381  18.870  0.00  0.00    +0.000 C 
BRANCH  14  15
ATOM     15  C   UNL     1       2.687   4.463  19.643  0.00  0.00    +0.000 A 
ATOM     16  C   UNL     1       2.823   4.243  21.023  0.00  0.00    +0.000 A 
ATOM     17  C   UNL     1       1.971   3.366  21.696  0.00  0.00    +0.000 A 
ATOM     18  C   UNL     1       0.957   2.711  21.006  0.00  0.00    +0.000 A 
ATOM     19  C   UNL     1       0.784   2.942  19.643  0.00  0.00    +0.000 A 
ATOM     20  C   UNL     1       1.640   3.815  18.966  0.00  0.00    +0.000 A 
ENDBRANCH  14  15
BRANCH  14  22
ATOM     21  C   UNL     1       6.148   5.202  18.395  0.00  0.00    +0.000 C 
ATOM     22  C   UNL     1       5.061   5.421  19.437  0.00  0.00    +0.000 C 
ENDBRANCH  14  22
ENDBRANCH   1  14
TORSDOF 4
ENDMDL
