MODEL 1
REMARK VINA RESULT:      -8.1      0.000      0.000
REMARK  Name = 
REMARK  7 active torsions:
REMARK  status: ('A' for Active; 'I' for Inactive)
REMARK    1  A    between atoms: C_1  and  C_2
REMARK    2  A    between atoms: C_5  and  N_6
REMARK    3  A    between atoms: N_14  and  C_15
REMARK    4  A    between atoms: C_15  and  C_16
REMARK    5  A    between atoms: C_15  and  C_17
REMARK    6  A    between atoms: C_20  and  C_21
REMARK    7  A    between atoms: C_26  and  C_27
REMARK                            x       y       z     vdW  Elec       q    Type
REMARK                         _______ _______ _______ _____ _____    ______ ____
ROOT
ATOM      1  N   UNL     1       4.471   3.879  17.188  0.00  0.00    +0.000 N 
ATOM      2  C   UNL     1       3.766   2.597  17.167  0.00  0.00    +0.000 C 
ATOM      3  C   UNL     1       3.525   2.192  18.627  0.00  0.00    +0.000 C 
ATOM      4  C   UNL     1       2.978   3.330  19.459  0.00  0.00    +0.000 A 
ATOM      5  N   UNL     1       2.460   3.004  20.659  0.00  0.00    +0.000 NA
ATOM      6  C   UNL     1       1.968   4.019  21.378  0.00  0.00    +0.000 A 
ATOM      7  N   UNL     1       1.912   5.306  21.003  0.00  0.00    +0.000 NA
ATOM      8  C   UNL     1       2.445   5.616  19.810  0.00  0.00    +0.000 A 
ATOM      9  N   UNL     1       2.420   6.955  19.365  0.00  0.00    +0.000 N 
ATOM     10  C   UNL     1       3.045   4.648  19.012  0.00  0.00    +0.000 A 
ATOM     11  C   UNL     1       3.647   4.994  17.685  0.00  0.00    +0.000 C 
ATOM     12  H   UNL     1       3.358   7.339  19.455  0.00  0.00    +0.000 HD
ENDROOT
BRANCH   1  17
ATOM     13  C   UNL     1       7.968   5.094  12.823  0.00  0.00    +0.000 C 
ATOM     14  C   UNL     1       7.074   4.819  13.995  0.00  0.00    +0.000 A 
ATOM     15  C   UNL     1       5.750   4.446  13.793  0.00  0.00    +0.000 A 
ATOM     16  C   UNL     1       4.929   4.185  14.886  0.00  0.00    +0.000 A 
ATOM     17  C   UNL     1       5.390   4.269  16.217  0.00  0.00    +0.000 A 
ATOM     18  C   UNL     1       6.723   4.665  16.420  0.00  0.00    +0.000 A 
ATOM     19  C   UNL     1       7.553   4.935  15.310  0.00  0.00    +0.000 A 
BRANCH  18  20
ATOM     20  C   UNL     1       7.309   4.754  17.729  0.00  0.00    +0.000 C 
ATOM     21  N   UNL     1       7.771   4.820  18.793  0.00  0.00    +0.000 NA
ENDBRANCH  18  20
ENDBRANCH   1  17
BRANCH   9  22
ATOM     22  C   UNL     1       1.393   7.809  19.975  0.00  0.00    +0.000 C 
ATOM     23  C   UNL     1       1.545   7.886  21.496  0.00  0.00    +0.000 C 
BRANCH  22  24
ATOM     24  C   UNL     1       1.441   9.206  19.400  0.00  0.00    +0.000 A 
ATOM     25  C   UNL     1       0.939  10.278  20.112  0.00  0.00    +0.000 A 
ATOM     26  N   UNL     1       1.023  11.565  19.717  0.00  0.00    +0.000 NA
ATOM     27  C   UNL     1       1.640  11.793  18.546  0.00  0.00    +0.000 A 
ATOM     28  C   UNL     1       1.793  13.212  18.100  0.00  0.00    +0.000 C 
ATOM     29  N   UNL     1       2.157  10.826  17.759  0.00  0.00    +0.000 NA
ATOM     30  C   UNL     1       2.041   9.556  18.207  0.00  0.00    +0.000 A 
ENDBRANCH  22  24
ENDBRANCH   9  22
TORSDOF 4
ENDMDL
MODEL 2
REMARK VINA RESULT:      -7.7      3.675      8.723
REMARK  Name = 
REMARK  7 active torsions:
REMARK  status: ('A' for Active; 'I' for Inactive)
REMARK    1  A    between atoms: C_1  and  C_2
REMARK    2  A    between atoms: C_5  and  N_6
REMARK    3  A    between atoms: N_14  and  C_15
REMARK    4  A    between atoms: C_15  and  C_16
REMARK    5  A    between atoms: C_15  and  C_17
REMARK    6  A    between atoms: C_20  and  C_21
REMARK    7  A    between atoms: C_26  and  C_27
REMARK                            x       y       z     vdW  Elec       q    Type
REMARK                         _______ _______ _______ _____ _____    ______ ____
ROOT
ATOM      1  N   UNL     1      -1.577  10.824  18.957  0.00  0.00    +0.000 N 
ATOM      2  C   UNL     1      -1.154  12.122  19.486  0.00  0.00    +0.000 C 
ATOM      3  C   UNL     1      -1.047  11.975  21.009  0.00  0.00    +0.000 C 
ATOM      4  C   UNL     1      -0.300  10.725  21.417  0.00  0.00    +0.000 A 
ATOM      5  N   UNL     1       0.103  10.656  22.701  0.00  0.00    +0.000 NA
ATOM      6  C   UNL     1       0.774   9.550  23.044  0.00  0.00    +0.000 A 
ATOM      7  N   UNL     1       1.108   8.537  22.229  0.00  0.00    +0.000 NA
ATOM      8  C   UNL     1       0.687   8.616  20.957  0.00  0.00    +0.000 A 
ATOM      9  N   UNL     1       1.004   7.577  20.055  0.00  0.00    +0.000 N 
ATOM     10  C   UNL     1      -0.077   9.689  20.512  0.00  0.00    +0.000 A 
ATOM     11  C   UNL     1      -0.554   9.773  19.094  0.00  0.00    +0.000 C 
ATOM     12  H   UNL     1       0.165   7.025  19.897  0.00  0.00    +0.000 HD
ENDROOT
BRANCH   1  17
ATOM     13  C   UNL     1      -4.298  10.208  13.961  0.00  0.00    +0.000 C 
ATOM     14  C   UNL     1      -3.634  10.360  15.297  0.00  0.00    +0.000 A 
ATOM     15  C   UNL     1      -2.365   9.834  15.511  0.00  0.00    +0.000 A 
ATOM     16  C   UNL     1      -1.752   9.986  16.751  0.00  0.00    +0.000 A 
ATOM     17  C   UNL     1      -2.365  10.676  17.819  0.00  0.00    +0.000 A 
ATOM     18  C   UNL     1      -3.656  11.190  17.607  0.00  0.00    +0.000 A 
ATOM     19  C   UNL     1      -4.277  11.029  16.349  0.00  0.00    +0.000 A 
BRANCH  18  20
ATOM     20  C   UNL     1      -4.362  11.936  18.611  0.00  0.00    +0.000 C 
ATOM     21  N   UNL     1      -4.943  12.545  19.412  0.00  0.00    +0.000 NA
ENDBRANCH  18  20
ENDBRANCH   1  17
BRANCH   9  22
ATOM     22  C   UNL     1       2.168   6.757  20.413  0.00  0.00    +0.000 C 
ATOM     23  C   UNL     1       1.755   5.366  20.905  0.00  0.00    +0.000 C 
BRANCH  22  24
ATOM     24  C   UNL     1       3.107   6.610  19.239  0.00  0.00    +0.000 A 
ATOM     25  C   UNL     1       4.028   5.580  19.200  0.00  0.00    +0.000 A 
ATOM     26  N   UNL     1       4.840   5.320  18.154  0.00  0.00    +0.000 NA
ATOM     27  C   UNL     1       4.726   6.134  17.091  0.00  0.00    +0.000 A 
ATOM     28  C   UNL     1       5.577   5.847  15.895  0.00  0.00    +0.000 C 
ATOM     29  N   UNL     1       3.874   7.178  17.021  0.00  0.00    +0.000 NA
ATOM     30  C   UNL     1       3.088   7.389  18.101  0.00  0.00    +0.000 A 
ENDBRANCH  22  24
ENDBRANCH   9  22
TORSDOF 4
ENDMDL
MODEL 3
REMARK VINA RESULT:      -7.6      2.388      3.786
REMARK  Name = 
REMARK  7 active torsions:
REMARK  status: ('A' for Active; 'I' for Inactive)
REMARK    1  A    between atoms: C_1  and  C_2
REMARK    2  A    between atoms: C_5  and  N_6
REMARK    3  A    between atoms: N_14  and  C_15
REMARK    4  A    between atoms: C_15  and  C_16
REMARK    5  A    between atoms: C_15  and  C_17
REMARK    6  A    between atoms: C_20  and  C_21
REMARK    7  A    between atoms: C_26  and  C_27
REMARK                            x       y       z     vdW  Elec       q    Type
REMARK                         _______ _______ _______ _____ _____    ______ ____
ROOT
ATOM      1  N   UNL     1       3.110   6.094  18.717  0.00  0.00    +0.000 N 
ATOM      2  C   UNL     1       2.096   5.149  19.187  0.00  0.00    +0.000 C 
ATOM      3  C   UNL     1       1.714   5.568  20.612  0.00  0.00    +0.000 C 
ATOM      4  C   UNL     1       1.456   7.054  20.726  0.00  0.00    +0.000 A 
ATOM      5  N   UNL     1       0.836   7.473  21.846  0.00  0.00    +0.000 NA
ATOM      6  C   UNL     1       0.602   8.788  21.928  0.00  0.00    +0.000 A 
ATOM      7  N   UNL     1       0.894   9.707  20.994  0.00  0.00    +0.000 NA
ATOM      8  C   UNL     1       1.525   9.274  19.891  0.00  0.00    +0.000 A 
ATOM      9  N   UNL     1       1.863  10.197  18.877  0.00  0.00    +0.000 N 
ATOM     10  C   UNL     1       1.878   7.938  19.735  0.00  0.00    +0.000 A 
ATOM     11  C   UNL     1       2.589   7.456  18.508  0.00  0.00    +0.000 C 
ATOM     12  H   UNL     1       2.865  10.367  18.921  0.00  0.00    +0.000 HD
ENDROOT
BRANCH   1  17
ATOM     13  C   UNL     1       6.963   4.978  14.637  0.00  0.00    +0.000 C 
ATOM     14  C   UNL     1       5.991   5.253  15.745  0.00  0.00    +0.000 A 
ATOM     15  C   UNL     1       5.192   6.390  15.709  0.00  0.00    +0.000 A 
ATOM     16  C   UNL     1       4.287   6.634  16.737  0.00  0.00    +0.000 A 
ATOM     17  C   UNL     1       4.127   5.756  17.829  0.00  0.00    +0.000 A 
ATOM     18  C   UNL     1       4.949   4.616  17.874  0.00  0.00    +0.000 A 
ATOM     19  C   UNL     1       5.871   4.374  16.832  0.00  0.00    +0.000 A 
BRANCH  18  20
ATOM     20  C   UNL     1       4.851   3.637  18.921  0.00  0.00    +0.000 C 
ATOM     21  N   UNL     1       4.785   2.850  19.773  0.00  0.00    +0.000 NA
ENDBRANCH  18  20
ENDBRANCH   1  17
BRANCH   9  22
ATOM     22  C   UNL     1       1.075  11.436  18.857  0.00  0.00    +0.000 C 
ATOM     23  C   UNL     1       1.742  12.521  18.007  0.00  0.00    +0.000 C 
BRANCH  22  24
ATOM     24  C   UNL     1      -0.319  11.181  18.333  0.00  0.00    +0.000 A 
ATOM     25  C   UNL     1      -1.313  12.129  18.489  0.00  0.00    +0.000 A 
ATOM     26  N   UNL     1      -2.556  12.025  17.974  0.00  0.00    +0.000 NA
ATOM     27  C   UNL     1      -2.820  10.913  17.268  0.00  0.00    +0.000 A 
ATOM     28  C   UNL     1      -4.172  10.785  16.643  0.00  0.00    +0.000 C 
ATOM     29  N   UNL     1      -1.935   9.916  17.061  0.00  0.00    +0.000 NA
ATOM     30  C   UNL     1      -0.706  10.076  17.603  0.00  0.00    +0.000 A 
ENDBRANCH  22  24
ENDBRANCH   9  22
TORSDOF 4
ENDMDL
MODEL 4
REMARK VINA RESULT:      -7.2      4.459      8.517
REMARK  Name = 
REMARK  7 active torsions:
REMARK  status: ('A' for Active; 'I' for Inactive)
REMARK    1  A    between atoms: C_1  and  C_2
REMARK    2  A    between atoms: C_5  and  N_6
REMARK    3  A    between atoms: N_14  and  C_15
REMARK    4  A    between atoms: C_15  and  C_16
REMARK    5  A    between atoms: C_15  and  C_17
REMARK    6  A    between atoms: C_20  and  C_21
REMARK    7  A    between atoms: C_26  and  C_27
REMARK                            x       y       z     vdW  Elec       q    Type
REMARK                         _______ _______ _______ _____ _____    ______ ____
ROOT
ATOM      1  N   UNL     1      -0.238  10.725  19.365  0.00  0.00    +0.000 N 
ATOM      2  C   UNL     1      -1.335  10.888  18.410  0.00  0.00    +0.000 C 
ATOM      3  C   UNL     1      -2.495  11.549  19.166  0.00  0.00    +0.000 C 
ATOM      4  C   UNL     1      -2.045  12.733  19.992  0.00  0.00    +0.000 A 
ATOM      5  N   UNL     1      -3.013  13.551  20.449  0.00  0.00    +0.000 NA
ATOM      6  C   UNL     1      -2.599  14.601  21.167  0.00  0.00    +0.000 A 
ATOM      7  N   UNL     1      -1.326  14.927  21.439  0.00  0.00    +0.000 NA
ATOM      8  C   UNL     1      -0.375  14.093  20.988  0.00  0.00    +0.000 A 
ATOM      9  N   UNL     1       0.982  14.382  21.248  0.00  0.00    +0.000 N 
ATOM     10  C   UNL     1      -0.699  12.935  20.290  0.00  0.00    +0.000 A 
ATOM     11  C   UNL     1       0.361  12.001  19.793  0.00  0.00    +0.000 C 
ATOM     12  H   UNL     1       1.309  13.750  21.975  0.00  0.00    +0.000 HD
ENDROOT
BRANCH   1  17
ATOM     13  C   UNL     1       3.355   6.341  18.578  0.00  0.00    +0.000 C 
ATOM     14  C   UNL     1       2.440   7.501  18.833  0.00  0.00    +0.000 A 
ATOM     15  C   UNL     1       2.064   8.339  17.789  0.00  0.00    +0.000 A 
ATOM     16  C   UNL     1       1.208   9.409  18.032  0.00  0.00    +0.000 A 
ATOM     17  C   UNL     1       0.681   9.680  19.312  0.00  0.00    +0.000 A 
ATOM     18  C   UNL     1       1.077   8.844  20.371  0.00  0.00    +0.000 A 
ATOM     19  C   UNL     1       1.950   7.763  20.122  0.00  0.00    +0.000 A 
BRANCH  18  20
ATOM     20  C   UNL     1       0.579   9.006  21.708  0.00  0.00    +0.000 C 
ATOM     21  N   UNL     1       0.179   9.152  22.790  0.00  0.00    +0.000 NA
ENDBRANCH  18  20
ENDBRANCH   1  17
BRANCH   9  22
ATOM     22  C   UNL     1       1.289  15.788  21.536  0.00  0.00    +0.000 C 
ATOM     23  C   UNL     1       2.659  15.948  22.201  0.00  0.00    +0.000 C 
BRANCH  22  24
ATOM     24  C   UNL     1       1.249  16.620  20.275  0.00  0.00    +0.000 A 
ATOM     25  C   UNL     1       1.980  16.247  19.163  0.00  0.00    +0.000 A 
ATOM     26  N   UNL     1       1.932  16.876  17.970  0.00  0.00    +0.000 NA
ATOM     27  C   UNL     1       1.111  17.936  17.886  0.00  0.00    +0.000 A 
ATOM     28  C   UNL     1       0.998  18.629  16.565  0.00  0.00    +0.000 C 
ATOM     29  N   UNL     1       0.361  18.400  18.907  0.00  0.00    +0.000 NA
ATOM     30  C   UNL     1       0.453  17.729  20.077  0.00  0.00    +0.000 A 
ENDBRANCH  22  24
ENDBRANCH   9  22
TORSDOF 4
ENDMDL
MODEL 5
REMARK VINA RESULT:      -7.1      4.637      8.574
REMARK  Name = 
REMARK  7 active torsions:
REMARK  status: ('A' for Active; 'I' for Inactive)
REMARK    1  A    between atoms: C_1  and  C_2
REMARK    2  A    between atoms: C_5  and  N_6
REMARK    3  A    between atoms: N_14  and  C_15
REMARK    4  A    between atoms: C_15  and  C_16
REMARK    5  A    between atoms: C_15  and  C_17
REMARK    6  A    between atoms: C_20  and  C_21
REMARK    7  A    between atoms: C_26  and  C_27
REMARK                            x       y       z     vdW  Elec       q    Type
REMARK                         _______ _______ _______ _____ _____    ______ ____
ROOT
ATOM      1  N   UNL     1       0.581  10.785  19.373  0.00  0.00    +0.000 N 
ATOM      2  C   UNL     1      -0.555  11.025  18.482  0.00  0.00    +0.000 C 
ATOM      3  C   UNL     1      -1.342  12.207  19.062  0.00  0.00    +0.000 C 
ATOM      4  C   UNL     1      -0.445  13.360  19.453  0.00  0.00    +0.000 A 
ATOM      5  N   UNL     1      -1.050  14.540  19.691  0.00  0.00    +0.000 NA
ATOM      6  C   UNL     1      -0.243  15.555  20.022  0.00  0.00    +0.000 A 
ATOM      7  N   UNL     1       1.096  15.512  20.103  0.00  0.00    +0.000 NA
ATOM      8  C   UNL     1       1.681  14.326  19.877  0.00  0.00    +0.000 A 
ATOM      9  N   UNL     1       3.087  14.219  19.954  0.00  0.00    +0.000 N 
ATOM     10  C   UNL     1       0.931  13.190  19.593  0.00  0.00    +0.000 A 
ATOM     11  C   UNL     1       1.583  11.864  19.348  0.00  0.00    +0.000 C 
ATOM     12  H   UNL     1       3.324  13.740  20.820  0.00  0.00    +0.000 HD
ENDROOT
BRANCH   1  17
ATOM     13  C   UNL     1       2.771   5.507  19.685  0.00  0.00    +0.000 C 
ATOM     14  C   UNL     1       2.216   6.900  19.656  0.00  0.00    +0.000 A 
ATOM     15  C   UNL     1       2.308   7.666  18.499  0.00  0.00    +0.000 A 
ATOM     16  C   UNL     1       1.784   8.955  18.477  0.00  0.00    +0.000 A 
ATOM     17  C   UNL     1       1.136   9.527  19.592  0.00  0.00    +0.000 A 
ATOM     18  C   UNL     1       1.060   8.759  20.767  0.00  0.00    +0.000 A 
ATOM     19  C   UNL     1       1.599   7.454  20.788  0.00  0.00    +0.000 A 
BRANCH  18  20
ATOM     20  C   UNL     1       0.396   9.227  21.952  0.00  0.00    +0.000 C 
ATOM     21  N   UNL     1      -0.147   9.592  22.911  0.00  0.00    +0.000 NA
ENDBRANCH  18  20
ENDBRANCH   1  17
BRANCH   9  22
ATOM     22  C   UNL     1       3.831  15.472  19.773  0.00  0.00    +0.000 C 
ATOM     23  C   UNL     1       3.906  16.283  21.070  0.00  0.00    +0.000 C 
BRANCH  22  24
ATOM     24  C   UNL     1       5.231  15.202  19.275  0.00  0.00    +0.000 A 
ATOM     25  C   UNL     1       6.292  15.134  20.159  0.00  0.00    +0.000 A 
ATOM     26  N   UNL     1       7.555  14.807  19.814  0.00  0.00    +0.000 NA
ATOM     27  C   UNL     1       7.769  14.536  18.515  0.00  0.00    +0.000 A 
ATOM     28  C   UNL     1       9.147  14.125  18.105  0.00  0.00    +0.000 C 
ATOM     29  N   UNL     1       6.816  14.583  17.561  0.00  0.00    +0.000 NA
ATOM     30  C   UNL     1       5.571  14.918  17.968  0.00  0.00    +0.000 A 
ENDBRANCH  22  24
ENDBRANCH   9  22
TORSDOF 4
ENDMDL
MODEL 6
REMARK VINA RESULT:      -7.0      4.517      8.757
REMARK  Name = 
REMARK  7 active torsions:
REMARK  status: ('A' for Active; 'I' for Inactive)
REMARK    1  A    between atoms: C_1  and  C_2
REMARK    2  A    between atoms: C_5  and  N_6
REMARK    3  A    between atoms: N_14  and  C_15
REMARK    4  A    between atoms: C_15  and  C_16
REMARK    5  A    between atoms: C_15  and  C_17
REMARK    6  A    between atoms: C_20  and  C_21
REMARK    7  A    between atoms: C_26  and  C_27
REMARK                            x       y       z     vdW  Elec       q    Type
REMARK                         _______ _______ _______ _____ _____    ______ ____
ROOT
ATOM      1  N   UNL     1       0.167  11.189  20.011  0.00  0.00    +0.000 N 
ATOM      2  C   UNL     1      -1.212  11.436  19.586  0.00  0.00    +0.000 C 
ATOM      3  C   UNL     1      -1.873  12.290  20.675  0.00  0.00    +0.000 C 
ATOM      4  C   UNL     1      -1.006  13.454  21.101  0.00  0.00    +0.000 A 
ATOM      5  N   UNL     1      -1.606  14.420  21.823  0.00  0.00    +0.000 NA
ATOM      6  C   UNL     1      -0.830  15.449  22.181  0.00  0.00    +0.000 A 
ATOM      7  N   UNL     1       0.462  15.620  21.862  0.00  0.00    +0.000 NA
ATOM      8  C   UNL     1       1.048  14.641  21.154  0.00  0.00    +0.000 A 
ATOM      9  N   UNL     1       2.407  14.764  20.794  0.00  0.00    +0.000 N 
ATOM     10  C   UNL     1       0.351  13.495  20.788  0.00  0.00    +0.000 A 
ATOM     11  C   UNL     1       1.007  12.399  20.006  0.00  0.00    +0.000 C 
ATOM     12  H   UNL     1       2.952  14.140  21.385  0.00  0.00    +0.000 HD
ENDROOT
BRANCH   1  17
ATOM     13  C   UNL     1       2.772   6.425  18.207  0.00  0.00    +0.000 C 
ATOM     14  C   UNL     1       2.126   7.675  18.723  0.00  0.00    +0.000 A 
ATOM     15  C   UNL     1       1.702   8.660  17.838  0.00  0.00    +0.000 A 
ATOM     16  C   UNL     1       1.096   9.815  18.324  0.00  0.00    +0.000 A 
ATOM     17  C   UNL     1       0.874  10.031  19.700  0.00  0.00    +0.000 A 
ATOM     18  C   UNL     1       1.321   9.043  20.595  0.00  0.00    +0.000 A 
ATOM     19  C   UNL     1       1.941   7.875  20.100  0.00  0.00    +0.000 A 
BRANCH  18  20
ATOM     20  C   UNL     1       1.120   9.142  22.014  0.00  0.00    +0.000 C 
ATOM     21  N   UNL     1       0.947   9.232  23.160  0.00  0.00    +0.000 NA
ENDBRANCH  18  20
ENDBRANCH   1  17
BRANCH   9  22
ATOM     22  C   UNL     1       2.938  16.132  20.768  0.00  0.00    +0.000 C 
ATOM     23  C   UNL     1       4.469  16.151  20.793  0.00  0.00    +0.000 C 
BRANCH  22  24
ATOM     24  C   UNL     1       2.453  16.877  19.546  0.00  0.00    +0.000 A 
ATOM     25  C   UNL     1       2.793  16.446  18.277  0.00  0.00    +0.000 A 
ATOM     26  N   UNL     1       2.331  16.994  17.135  0.00  0.00    +0.000 NA
ATOM     27  C   UNL     1       1.484  18.029  17.267  0.00  0.00    +0.000 A 
ATOM     28  C   UNL     1       0.916  18.631  16.021  0.00  0.00    +0.000 C 
ATOM     29  N   UNL     1       1.092  18.544  18.450  0.00  0.00    +0.000 NA
ATOM     30  C   UNL     1       1.590  17.955  19.560  0.00  0.00    +0.000 A 
ENDBRANCH  22  24
ENDBRANCH   9  22
TORSDOF 4
ENDMDL
MODEL 7
REMARK VINA RESULT:      -6.9      4.273      8.181
REMARK  Name = 
REMARK  7 active torsions:
REMARK  status: ('A' for Active; 'I' for Inactive)
REMARK    1  A    between atoms: C_1  and  C_2
REMARK    2  A    between atoms: C_5  and  N_6
REMARK    3  A    between atoms: N_14  and  C_15
REMARK    4  A    between atoms: C_15  and  C_16
REMARK    5  A    between atoms: C_15  and  C_17
REMARK    6  A    between atoms: C_20  and  C_21
REMARK    7  A    between atoms: C_26  and  C_27
REMARK                            x       y       z     vdW  Elec       q    Type
REMARK                         _______ _______ _______ _____ _____    ______ ____
ROOT
ATOM      1  N   UNL     1       0.713  10.251  18.981  0.00  0.00    +0.000 N 
ATOM      2  C   UNL     1      -0.396  10.413  18.040  0.00  0.00    +0.000 C 
ATOM      3  C   UNL     1      -1.286  11.540  18.581  0.00  0.00    +0.000 C 
ATOM      4  C   UNL     1      -0.487  12.751  19.005  0.00  0.00    +0.000 A 
ATOM      5  N   UNL     1      -1.180  13.888  19.212  0.00  0.00    +0.000 NA
ATOM      6  C   UNL     1      -0.459  14.955  19.574  0.00  0.00    +0.000 A 
ATOM      7  N   UNL     1       0.875  15.004  19.713  0.00  0.00    +0.000 NA
ATOM      8  C   UNL     1       1.549  13.859  19.518  0.00  0.00    +0.000 A 
ATOM      9  N   UNL     1       2.953  13.848  19.656  0.00  0.00    +0.000 N 
ATOM     10  C   UNL     1       0.890  12.675  19.206  0.00  0.00    +0.000 A 
ATOM     11  C   UNL     1       1.641  11.396  18.996  0.00  0.00    +0.000 C 
ATOM     12  H   UNL     1       3.184  13.388  20.534  0.00  0.00    +0.000 HD
ENDROOT
BRANCH   1  17
ATOM     13  C   UNL     1       3.186   5.110  19.423  0.00  0.00    +0.000 C 
ATOM     14  C   UNL     1       2.558   6.470  19.359  0.00  0.00    +0.000 A 
ATOM     15  C   UNL     1       2.561   7.186  18.167  0.00  0.00    +0.000 A 
ATOM     16  C   UNL     1       1.970   8.444  18.112  0.00  0.00    +0.000 A 
ATOM     17  C   UNL     1       1.342   9.035  19.229  0.00  0.00    +0.000 A 
ATOM     18  C   UNL     1       1.358   8.319  20.439  0.00  0.00    +0.000 A 
ATOM     19  C   UNL     1       1.963   7.044  20.493  0.00  0.00    +0.000 A 
BRANCH  18  20
ATOM     20  C   UNL     1       0.723   8.807  21.632  0.00  0.00    +0.000 C 
ATOM     21  N   UNL     1       0.202   9.213  22.588  0.00  0.00    +0.000 NA
ENDBRANCH  18  20
ENDBRANCH   1  17
BRANCH   9  22
ATOM     22  C   UNL     1       3.618  15.148  19.503  0.00  0.00    +0.000 C 
ATOM     23  C   UNL     1       3.472  16.015  20.757  0.00  0.00    +0.000 C 
BRANCH  22  24
ATOM     24  C   UNL     1       5.086  14.971  19.190  0.00  0.00    +0.000 A 
ATOM     25  C   UNL     1       5.507  14.747  17.893  0.00  0.00    +0.000 A 
ATOM     26  N   UNL     1       6.798  14.670  17.511  0.00  0.00    +0.000 NA
ATOM     27  C   UNL     1       7.719  14.822  18.478  0.00  0.00    +0.000 A 
ATOM     28  C   UNL     1       9.160  14.789  18.083  0.00  0.00    +0.000 C 
ATOM     29  N   UNL     1       7.427  15.032  19.779  0.00  0.00    +0.000 NA
ATOM     30  C   UNL     1       6.115  15.098  20.100  0.00  0.00    +0.000 A 
ENDBRANCH  22  24
ENDBRANCH   9  22
TORSDOF 4
ENDMDL
MODEL 8
REMARK VINA RESULT:      -6.9      4.451      8.543
REMARK  Name = 
REMARK  7 active torsions:
REMARK  status: ('A' for Active; 'I' for Inactive)
REMARK    1  A    between atoms: C_1  and  C_2
REMARK    2  A    between atoms: C_5  and  N_6
REMARK    3  A    between atoms: N_14  and  C_15
REMARK    4  A    between atoms: C_15  and  C_16
REMARK    5  A    between atoms: C_15  and  C_17
REMARK    6  A    between atoms: C_20  and  C_21
REMARK    7  A    between atoms: C_26  and  C_27
REMARK                            x       y       z     vdW  Elec       q    Type
REMARK                         _______ _______ _______ _____ _____    ______ ____
ROOT
ATOM      1  N   UNL     1       0.164  10.858  19.498  0.00  0.00    +0.000 N 
ATOM      2  C   UNL     1      -0.970  11.110  18.608  0.00  0.00    +0.000 C 
ATOM      3  C   UNL     1      -1.970  11.975  19.385  0.00  0.00    +0.000 C 
ATOM      4  C   UNL     1      -1.303  13.136  20.088  0.00  0.00    +0.000 A 
ATOM      5  N   UNL     1      -2.115  14.110  20.545  0.00  0.00    +0.000 NA
ATOM      6  C   UNL     1      -1.510  15.137  21.153  0.00  0.00    +0.000 A 
ATOM      7  N   UNL     1      -0.188  15.298  21.316  0.00  0.00    +0.000 NA
ATOM      8  C   UNL     1       0.605  14.312  20.868  0.00  0.00    +0.000 A 
ATOM      9  N   UNL     1       2.004  14.425  21.016  0.00  0.00    +0.000 N 
ATOM     10  C   UNL     1       0.076  13.167  20.281  0.00  0.00    +0.000 A 
ATOM     11  C   UNL     1       0.960  12.063  19.789  0.00  0.00    +0.000 C 
ATOM     12  H   UNL     1       2.297  13.802  21.765  0.00  0.00    +0.000 HD
ENDROOT
BRANCH   1  17
ATOM     13  C   UNL     1       3.126   6.015  18.781  0.00  0.00    +0.000 C 
ATOM     14  C   UNL     1       2.375   7.291  19.019  0.00  0.00    +0.000 A 
ATOM     15  C   UNL     1       2.160   8.181  17.973  0.00  0.00    +0.000 A 
ATOM     16  C   UNL     1       1.456   9.360  18.200  0.00  0.00    +0.000 A 
ATOM     17  C   UNL     1       0.927   9.694  19.464  0.00  0.00    +0.000 A 
ATOM     18  C   UNL     1       1.162   8.803  20.525  0.00  0.00    +0.000 A 
ATOM     19  C   UNL     1       1.882   7.610  20.293  0.00  0.00    +0.000 A 
BRANCH  18  20
ATOM     20  C   UNL     1       0.645   9.024  21.847  0.00  0.00    +0.000 C 
ATOM     21  N   UNL     1       0.235   9.215  22.917  0.00  0.00    +0.000 NA
ENDBRANCH  18  20
ENDBRANCH   1  17
BRANCH   9  22
ATOM     22  C   UNL     1       2.519  15.790  21.176  0.00  0.00    +0.000 C 
ATOM     23  C   UNL     1       2.767  16.137  22.647  0.00  0.00    +0.000 C 
BRANCH  22  24
ATOM     24  C   UNL     1       3.801  15.979  20.399  0.00  0.00    +0.000 A 
ATOM     25  C   UNL     1       4.094  17.194  19.809  0.00  0.00    +0.000 A 
ATOM     26  N   UNL     1       5.252  17.478  19.177  0.00  0.00    +0.000 NA
ATOM     27  C   UNL     1       6.165  16.493  19.131  0.00  0.00    +0.000 A 
ATOM     28  C   UNL     1       7.479  16.788  18.480  0.00  0.00    +0.000 C 
ATOM     29  N   UNL     1       5.986  15.265  19.659  0.00  0.00    +0.000 NA
ATOM     30  C   UNL     1       4.805  15.039  20.277  0.00  0.00    +0.000 A 
ENDBRANCH  22  24
ENDBRANCH   9  22
TORSDOF 4
ENDMDL
MODEL 9
REMARK VINA RESULT:      -6.8      1.875      3.603
REMARK  Name = 
REMARK  7 active torsions:
REMARK  status: ('A' for Active; 'I' for Inactive)
REMARK    1  A    between atoms: C_1  and  C_2
REMARK    2  A    between atoms: C_5  and  N_6
REMARK    3  A    between atoms: N_14  and  C_15
REMARK    4  A    between atoms: C_15  and  C_16
REMARK    5  A    between atoms: C_15  and  C_17
REMARK    6  A    between atoms: C_20  and  C_21
REMARK    7  A    between atoms: C_26  and  C_27
REMARK                            x       y       z     vdW  Elec       q    Type
REMARK                         _______ _______ _______ _____ _____    ______ ____
ROOT
ATOM      1  N   UNL     1       3.194   6.081  18.584  0.00  0.00    +0.000 N 
ATOM      2  C   UNL     1       2.233   5.141  19.162  0.00  0.00    +0.000 C 
ATOM      3  C   UNL     1       1.860   5.675  20.551  0.00  0.00    +0.000 C 
ATOM      4  C   UNL     1       1.538   7.152  20.533  0.00  0.00    +0.000 A 
ATOM      5  N   UNL     1       0.920   7.647  21.624  0.00  0.00    +0.000 NA
ATOM      6  C   UNL     1       0.630   8.953  21.589  0.00  0.00    +0.000 A 
ATOM      7  N   UNL     1       0.863   9.792  20.568  0.00  0.00    +0.000 NA
ATOM      8  C   UNL     1       1.491   9.286  19.496  0.00  0.00    +0.000 A 
ATOM      9  N   UNL     1       1.768  10.124  18.393  0.00  0.00    +0.000 N 
ATOM     10  C   UNL     1       1.900   7.958  19.455  0.00  0.00    +0.000 A 
ATOM     11  C   UNL     1       2.609   7.394  18.262  0.00  0.00    +0.000 C 
ATOM     12  H   UNL     1       2.762  10.340  18.398  0.00  0.00    +0.000 HD
ENDROOT
BRANCH   1  17
ATOM     13  C   UNL     1       7.037   4.799  14.543  0.00  0.00    +0.000 C 
ATOM     14  C   UNL     1       6.068   5.118  15.641  0.00  0.00    +0.000 A 
ATOM     15  C   UNL     1       5.279   6.261  15.568  0.00  0.00    +0.000 A 
ATOM     16  C   UNL     1       4.376   6.546  16.587  0.00  0.00    +0.000 A 
ATOM     17  C   UNL     1       4.208   5.705  17.707  0.00  0.00    +0.000 A 
ATOM     18  C   UNL     1       5.020   4.561  17.790  0.00  0.00    +0.000 A 
ATOM     19  C   UNL     1       5.940   4.277  16.757  0.00  0.00    +0.000 A 
BRANCH  18  20
ATOM     20  C   UNL     1       4.914   3.617  18.868  0.00  0.00    +0.000 C 
ATOM     21  N   UNL     1       4.813   2.854  19.739  0.00  0.00    +0.000 NA
ENDBRANCH  18  20
ENDBRANCH   1  17
BRANCH   9  22
ATOM     22  C   UNL     1       0.926  11.321  18.277  0.00  0.00    +0.000 C 
ATOM     23  C   UNL     1      -0.449  11.116  18.920  0.00  0.00    +0.000 C 
BRANCH  22  24
ATOM     24  C   UNL     1       1.597  12.517  18.910  0.00  0.00    +0.000 A 
ATOM     25  C   UNL     1       2.686  13.115  18.305  0.00  0.00    +0.000 A 
ATOM     26  N   UNL     1       3.287  14.238  18.751  0.00  0.00    +0.000 NA
ATOM     27  C   UNL     1       2.772  14.792  19.861  0.00  0.00    +0.000 A 
ATOM     28  C   UNL     1       3.384  16.063  20.357  0.00  0.00    +0.000 C 
ATOM     29  N   UNL     1       1.721  14.292  20.543  0.00  0.00    +0.000 NA
ATOM     30  C   UNL     1       1.162  13.164  20.050  0.00  0.00    +0.000 A 
ENDBRANCH  22  24
ENDBRANCH   9  22
TORSDOF 4
ENDMDL
