MODEL 1
REMARK VINA RESULT:      -8.5      0.000      0.000
REMARK  Name = 
REMARK  5 active torsions:
REMARK  status: ('A' for Active; 'I' for Inactive)
REMARK    1  A    between atoms: C_1  and  C_2
REMARK    2  A    between atoms: C_7  and  C_9
REMARK    3  A    between atoms: N_13  and  S_14
REMARK    4  A    between atoms: S_14  and  C_17
REMARK    5  A    between atoms: N_26  and  C_27
REMARK                            x       y       z     vdW  Elec       q    Type
REMARK                         _______ _______ _______ _____ _____    ______ ____
ROOT
ATOM      1  C   UNL     1       6.685   6.898  17.372  0.00  0.00    +0.000 C 
ATOM      2  C   UNL     1       7.210   5.739  16.521  0.00  0.00    +0.000 C 
ATOM      3  C   UNL     1       6.063   5.262  15.635  0.00  0.00    +0.000 C 
ATOM      4  C   UNL     1       4.825   4.863  16.445  0.00  0.00    +0.000 C 
ATOM      5  N   UNL     1       4.460   5.880  17.486  0.00  0.00    +0.000 NA
ATOM      6  C   UNL     1       5.629   6.332  18.317  0.00  0.00    +0.000 C 
ENDROOT
BRANCH   1  13
ATOM      7  C   UNL     1       9.436  13.454  17.567  0.00  0.00    +0.000 C 
ATOM      8  C   UNL     1       9.238  12.125  18.197  0.00  0.00    +0.000 A 
ATOM      9  C   UNL     1       9.789  11.661  19.377  0.00  0.00    +0.000 A 
ATOM     10  S   UNL     1       9.347  10.018  19.621  0.00  0.00    +0.000 S 
ATOM     11  C   UNL     1       8.443  10.070  18.188  0.00  0.00    +0.000 A 
ATOM     12  N   UNL     1       7.701   9.026  17.720  0.00  0.00    +0.000 N 
ATOM     13  C   UNL     1       7.785   7.693  18.065  0.00  0.00    +0.000 C 
ATOM     14  O   UNL     1       8.583   7.176  18.832  0.00  0.00    +0.000 OA
ATOM     15  N   UNL     1       8.421  11.217  17.553  0.00  0.00    +0.000 NA
ATOM     16  H   UNL     1       7.106   9.312  16.958  0.00  0.00    +0.000 HD
ENDBRANCH   1  13
BRANCH   5  17
ATOM     17  S   UNL     1       3.083   5.457  18.432  0.00  0.00    +0.000 S 
ATOM     18  O   UNL     1       2.114   4.832  17.556  0.00  0.00    +0.000 OA
ATOM     19  O   UNL     1       3.527   4.809  19.648  0.00  0.00    +0.000 OA
BRANCH  17  20
ATOM     20  C   UNL     1       2.429   7.035  18.942  0.00  0.00    +0.000 A 
ATOM     21  C   UNL     1       2.136   8.021  17.972  0.00  0.00    +0.000 A 
ATOM     22  C   UNL     1       1.509   9.217  18.343  0.00  0.00    +0.000 A 
ATOM     23  C   UNL     1       1.190   9.373  19.676  0.00  0.00    +0.000 A 
ATOM     24  C   UNL     1       1.460   8.404  20.622  0.00  0.00    +0.000 A 
ATOM     25  C   UNL     1       2.080   7.215  20.289  0.00  0.00    +0.000 A 
ATOM     26  O   UNL     1       1.026   8.761  21.889  0.00  0.00    +0.000 OA
ATOM     27  C   UNL     1       0.474  10.035  21.684  0.00  0.00    +0.000 A 
ATOM     28  O   UNL     1      -0.005  10.713  22.581  0.00  0.00    +0.000 OA
ATOM     29  N   UNL     1       0.572  10.398  20.352  0.00  0.00    +0.000 N 
ATOM     30  C   UNL     1       0.143  11.638  19.774  0.00  0.00    +0.000 C 
ENDBRANCH  17  20
ENDBRANCH   5  17
TORSDOF 3
ENDMDL
MODEL 2
REMARK VINA RESULT:      -8.4      1.205      1.604
REMARK  Name = 
REMARK  5 active torsions:
REMARK  status: ('A' for Active; 'I' for Inactive)
REMARK    1  A    between atoms: C_1  and  C_2
REMARK    2  A    between atoms: C_7  and  C_9
REMARK    3  A    between atoms: N_13  and  S_14
REMARK    4  A    between atoms: S_14  and  C_17
REMARK    5  A    between atoms: N_26  and  C_27
REMARK                            x       y       z     vdW  Elec       q    Type
REMARK                         _______ _______ _______ _____ _____    ______ ____
ROOT
ATOM      1  C   UNL     1       6.692   6.807  17.334  0.00  0.00    +0.000 C 
ATOM      2  C   UNL     1       7.247   5.766  16.359  0.00  0.00    +0.000 C 
ATOM      3  C   UNL     1       6.091   5.294  15.481  0.00  0.00    +0.000 C 
ATOM      4  C   UNL     1       4.920   4.743  16.303  0.00  0.00    +0.000 C 
ATOM      5  N   UNL     1       4.543   5.637  17.447  0.00  0.00    +0.000 NA
ATOM      6  C   UNL     1       5.720   6.090  18.266  0.00  0.00    +0.000 C 
ENDROOT
BRANCH   1  13
ATOM      7  C   UNL     1       9.434  13.366  17.549  0.00  0.00    +0.000 C 
ATOM      8  C   UNL     1       9.219  12.042  18.185  0.00  0.00    +0.000 A 
ATOM      9  C   UNL     1       9.737  11.589  19.384  0.00  0.00    +0.000 A 
ATOM     10  S   UNL     1       9.288   9.949  19.630  0.00  0.00    +0.000 S 
ATOM     11  C   UNL     1       8.424   9.987  18.171  0.00  0.00    +0.000 A 
ATOM     12  N   UNL     1       7.697   8.939  17.692  0.00  0.00    +0.000 N 
ATOM     13  C   UNL     1       7.771   7.609  18.051  0.00  0.00    +0.000 C 
ATOM     14  O   UNL     1       8.548   7.099  18.844  0.00  0.00    +0.000 OA
ATOM     15  N   UNL     1       8.420  11.128  17.525  0.00  0.00    +0.000 NA
ATOM     16  H   UNL     1       7.123   9.218  16.911  0.00  0.00    +0.000 HD
ENDBRANCH   1  13
BRANCH   5  17
ATOM     17  S   UNL     1       3.241   5.041  18.406  0.00  0.00    +0.000 S 
ATOM     18  O   UNL     1       2.335   4.324  17.534  0.00  0.00    +0.000 OA
ATOM     19  O   UNL     1       3.779   4.426  19.602  0.00  0.00    +0.000 OA
BRANCH  17  20
ATOM     20  C   UNL     1       2.419   6.523  18.959  0.00  0.00    +0.000 A 
ATOM     21  C   UNL     1       1.978   6.623  20.298  0.00  0.00    +0.000 A 
ATOM     22  C   UNL     1       1.442   7.824  20.779  0.00  0.00    +0.000 A 
ATOM     23  C   UNL     1       1.379   8.884  19.898  0.00  0.00    +0.000 A 
ATOM     24  C   UNL     1       1.825   8.792  18.595  0.00  0.00    +0.000 A 
ATOM     25  C   UNL     1       2.356   7.621  18.089  0.00  0.00    +0.000 A 
ATOM     26  O   UNL     1       1.693   9.985  17.901  0.00  0.00    +0.000 OA
ATOM     27  C   UNL     1       1.115  10.839  18.854  0.00  0.00    +0.000 A 
ATOM     28  O   UNL     1       0.813  11.999  18.621  0.00  0.00    +0.000 OA
ATOM     29  N   UNL     1       0.931  10.173  20.054  0.00  0.00    +0.000 N 
ATOM     30  C   UNL     1       0.341  10.714  21.244  0.00  0.00    +0.000 C 
ENDBRANCH  17  20
ENDBRANCH   5  17
TORSDOF 3
ENDMDL
MODEL 3
REMARK VINA RESULT:      -8.0      4.352      9.870
REMARK  Name = 
REMARK  5 active torsions:
REMARK  status: ('A' for Active; 'I' for Inactive)
REMARK    1  A    between atoms: C_1  and  C_2
REMARK    2  A    between atoms: C_7  and  C_9
REMARK    3  A    between atoms: N_13  and  S_14
REMARK    4  A    between atoms: S_14  and  C_17
REMARK    5  A    between atoms: N_26  and  C_27
REMARK                            x       y       z     vdW  Elec       q    Type
REMARK                         _______ _______ _______ _____ _____    ______ ____
ROOT
ATOM      1  C   UNL     1      -1.405  11.364  18.513  0.00  0.00    +0.000 C 
ATOM      2  C   UNL     1      -0.888  12.758  18.877  0.00  0.00    +0.000 C 
ATOM      3  C   UNL     1       0.628  12.663  19.020  0.00  0.00    +0.000 C 
ATOM      4  C   UNL     1       1.055  11.607  20.046  0.00  0.00    +0.000 C 
ATOM      5  N   UNL     1       0.338  10.302  19.867  0.00  0.00    +0.000 NA
ATOM      6  C   UNL     1      -1.150  10.452  19.709  0.00  0.00    +0.000 C 
ENDROOT
BRANCH   1  13
ATOM      7  C   UNL     1      -7.916  13.411  20.514  0.00  0.00    +0.000 C 
ATOM      8  C   UNL     1      -6.964  13.023  19.444  0.00  0.00    +0.000 A 
ATOM      9  C   UNL     1      -7.233  12.852  18.098  0.00  0.00    +0.000 A 
ATOM     10  S   UNL     1      -5.825  12.289  17.290  0.00  0.00    +0.000 S 
ATOM     11  C   UNL     1      -4.979  12.357  18.758  0.00  0.00    +0.000 A 
ATOM     12  N   UNL     1      -3.655  12.061  18.885  0.00  0.00    +0.000 N 
ATOM     13  C   UNL     1      -2.846  11.357  18.016  0.00  0.00    +0.000 C 
ATOM     14  O   UNL     1      -3.177  10.814  16.973  0.00  0.00    +0.000 OA
ATOM     15  N   UNL     1      -5.650  12.787  19.799  0.00  0.00    +0.000 NA
ATOM     16  H   UNL     1      -3.305  12.329  19.792  0.00  0.00    +0.000 HD
ENDBRANCH   1  13
BRANCH   5  17
ATOM     17  S   UNL     1       0.777   9.094  21.015  0.00  0.00    +0.000 S 
ATOM     18  O   UNL     1       1.724   9.681  21.940  0.00  0.00    +0.000 OA
ATOM     19  O   UNL     1      -0.422   8.431  21.484  0.00  0.00    +0.000 OA
BRANCH  17  20
ATOM     20  C   UNL     1       1.641   7.882  20.035  0.00  0.00    +0.000 A 
ATOM     21  C   UNL     1       2.148   8.239  18.763  0.00  0.00    +0.000 A 
ATOM     22  C   UNL     1       2.933   7.337  18.035  0.00  0.00    +0.000 A 
ATOM     23  C   UNL     1       3.189   6.112  18.616  0.00  0.00    +0.000 A 
ATOM     24  C   UNL     1       2.709   5.769  19.865  0.00  0.00    +0.000 A 
ATOM     25  C   UNL     1       1.929   6.634  20.607  0.00  0.00    +0.000 A 
ATOM     26  O   UNL     1       3.113   4.504  20.261  0.00  0.00    +0.000 OA
ATOM     27  C   UNL     1       3.874   4.061  19.168  0.00  0.00    +0.000 A 
ATOM     28  O   UNL     1       4.397   2.958  19.116  0.00  0.00    +0.000 OA
ATOM     29  N   UNL     1       3.918   5.032  18.182  0.00  0.00    +0.000 N 
ATOM     30  C   UNL     1       4.576   4.925  16.912  0.00  0.00    +0.000 C 
ENDBRANCH  17  20
ENDBRANCH   5  17
TORSDOF 3
ENDMDL
MODEL 4
REMARK VINA RESULT:      -8.0      4.455      9.761
REMARK  Name = 
REMARK  5 active torsions:
REMARK  status: ('A' for Active; 'I' for Inactive)
REMARK    1  A    between atoms: C_1  and  C_2
REMARK    2  A    between atoms: C_7  and  C_9
REMARK    3  A    between atoms: N_13  and  S_14
REMARK    4  A    between atoms: S_14  and  C_17
REMARK    5  A    between atoms: N_26  and  C_27
REMARK                            x       y       z     vdW  Elec       q    Type
REMARK                         _______ _______ _______ _____ _____    ______ ____
ROOT
ATOM      1  C   UNL     1      -1.084  11.129  18.314  0.00  0.00    +0.000 C 
ATOM      2  C   UNL     1      -0.453  12.502  18.558  0.00  0.00    +0.000 C 
ATOM      3  C   UNL     1       1.035  12.285  18.818  0.00  0.00    +0.000 C 
ATOM      4  C   UNL     1       1.291  11.322  19.983  0.00  0.00    +0.000 C 
ATOM      5  N   UNL     1       0.459  10.076  19.898  0.00  0.00    +0.000 NA
ATOM      6  C   UNL     1      -0.994  10.344  19.619  0.00  0.00    +0.000 C 
ENDROOT
BRANCH   1  13
ATOM      7  C   UNL     1      -7.852  12.062  20.292  0.00  0.00    +0.000 C 
ATOM      8  C   UNL     1      -6.806  12.088  19.238  0.00  0.00    +0.000 A 
ATOM      9  C   UNL     1      -6.975  12.337  17.889  0.00  0.00    +0.000 A 
ATOM     10  S   UNL     1      -5.478  12.140  17.068  0.00  0.00    +0.000 S 
ATOM     11  C   UNL     1      -4.735  11.787  18.551  0.00  0.00    +0.000 A 
ATOM     12  N   UNL     1      -3.401  11.542  18.692  0.00  0.00    +0.000 N 
ATOM     13  C   UNL     1      -2.485  11.198  17.719  0.00  0.00    +0.000 C 
ATOM     14  O   UNL     1      -2.705  10.994  16.535  0.00  0.00    +0.000 OA
ATOM     15  N   UNL     1      -5.502  11.827  19.613  0.00  0.00    +0.000 NA
ATOM     16  H   UNL     1      -3.132  11.529  19.664  0.00  0.00    +0.000 HD
ENDBRANCH   1  13
BRANCH   5  17
ATOM     17  S   UNL     1       0.705   8.976  21.202  0.00  0.00    +0.000 S 
ATOM     18  O   UNL     1       1.561   9.621  22.175  0.00  0.00    +0.000 OA
ATOM     19  O   UNL     1      -0.570   8.404  21.583  0.00  0.00    +0.000 OA
BRANCH  17  20
ATOM     20  C   UNL     1       1.623   7.644  20.455  0.00  0.00    +0.000 A 
ATOM     21  C   UNL     1       1.506   6.333  20.971  0.00  0.00    +0.000 A 
ATOM     22  C   UNL     1       2.123   5.257  20.321  0.00  0.00    +0.000 A 
ATOM     23  C   UNL     1       2.829   5.538  19.169  0.00  0.00    +0.000 A 
ATOM     24  C   UNL     1       2.931   6.816  18.655  0.00  0.00    +0.000 A 
ATOM     25  C   UNL     1       2.336   7.898  19.273  0.00  0.00    +0.000 A 
ATOM     26  O   UNL     1       3.661   6.859  17.477  0.00  0.00    +0.000 OA
ATOM     27  C   UNL     1       4.029   5.517  17.288  0.00  0.00    +0.000 A 
ATOM     28  O   UNL     1       4.715   5.135  16.351  0.00  0.00    +0.000 OA
ATOM     29  N   UNL     1       3.525   4.727  18.306  0.00  0.00    +0.000 N 
ATOM     30  C   UNL     1       3.720   3.315  18.462  0.00  0.00    +0.000 C 
ENDBRANCH  17  20
ENDBRANCH   5  17
TORSDOF 3
ENDMDL
MODEL 5
REMARK VINA RESULT:      -7.8      5.322     10.763
REMARK  Name = 
REMARK  5 active torsions:
REMARK  status: ('A' for Active; 'I' for Inactive)
REMARK    1  A    between atoms: C_1  and  C_2
REMARK    2  A    between atoms: C_7  and  C_9
REMARK    3  A    between atoms: N_13  and  S_14
REMARK    4  A    between atoms: S_14  and  C_17
REMARK    5  A    between atoms: N_26  and  C_27
REMARK                            x       y       z     vdW  Elec       q    Type
REMARK                         _______ _______ _______ _____ _____    ______ ____
ROOT
ATOM      1  C   UNL     1      -3.973  11.160  18.402  0.00  0.00    +0.000 C 
ATOM      2  C   UNL     1      -3.849  10.908  16.898  0.00  0.00    +0.000 C 
ATOM      3  C   UNL     1      -2.744   9.876  16.693  0.00  0.00    +0.000 C 
ATOM      4  C   UNL     1      -1.413  10.314  17.312  0.00  0.00    +0.000 C 
ATOM      5  N   UNL     1      -1.565  10.830  18.712  0.00  0.00    +0.000 NA
ATOM      6  C   UNL     1      -2.681  11.828  18.864  0.00  0.00    +0.000 C 
ENDROOT
BRANCH   1  13
ATOM      7  C   UNL     1      -7.554  13.257  24.180  0.00  0.00    +0.000 C 
ATOM      8  C   UNL     1      -7.261  13.391  22.730  0.00  0.00    +0.000 A 
ATOM      9  C   UNL     1      -7.883  14.224  21.819  0.00  0.00    +0.000 A 
ATOM     10  S   UNL     1      -7.264  13.929  20.243  0.00  0.00    +0.000 S 
ATOM     11  C   UNL     1      -6.210  12.772  20.895  0.00  0.00    +0.000 A 
ATOM     12  N   UNL     1      -5.290  12.083  20.162  0.00  0.00    +0.000 N 
ATOM     13  C   UNL     1      -5.240  11.910  18.794  0.00  0.00    +0.000 C 
ATOM     14  O   UNL     1      -6.050  12.304  17.968  0.00  0.00    +0.000 OA
ATOM     15  N   UNL     1      -6.263  12.601  22.194  0.00  0.00    +0.000 NA
ATOM     16  H   UNL     1      -4.651  11.579  20.757  0.00  0.00    +0.000 HD
ENDBRANCH   1  13
BRANCH   5  17
ATOM     17  S   UNL     1      -0.091  11.352  19.436  0.00  0.00    +0.000 S 
ATOM     18  O   UNL     1       0.546  12.284  18.529  0.00  0.00    +0.000 OA
ATOM     19  O   UNL     1      -0.341  11.699  20.819  0.00  0.00    +0.000 OA
BRANCH  17  20
ATOM     20  C   UNL     1       0.895   9.868  19.485  0.00  0.00    +0.000 A 
ATOM     21  C   UNL     1       0.790   8.990  20.589  0.00  0.00    +0.000 A 
ATOM     22  C   UNL     1       1.464   7.763  20.586  0.00  0.00    +0.000 A 
ATOM     23  C   UNL     1       2.212   7.457  19.468  0.00  0.00    +0.000 A 
ATOM     24  C   UNL     1       2.302   8.306  18.382  0.00  0.00    +0.000 A 
ATOM     25  C   UNL     1       1.652   9.525  18.355  0.00  0.00    +0.000 A 
ATOM     26  O   UNL     1       3.081   7.783  17.362  0.00  0.00    +0.000 OA
ATOM     27  C   UNL     1       3.493   6.547  17.884  0.00  0.00    +0.000 A 
ATOM     28  O   UNL     1       4.229   5.776  17.286  0.00  0.00    +0.000 OA
ATOM     29  N   UNL     1       2.966   6.354  19.149  0.00  0.00    +0.000 N 
ATOM     30  C   UNL     1       3.191   5.223  20.002  0.00  0.00    +0.000 C 
ENDBRANCH  17  20
ENDBRANCH   5  17
TORSDOF 3
ENDMDL
MODEL 6
REMARK VINA RESULT:      -7.7      3.866      8.352
REMARK  Name = 
REMARK  5 active torsions:
REMARK  status: ('A' for Active; 'I' for Inactive)
REMARK    1  A    between atoms: C_1  and  C_2
REMARK    2  A    between atoms: C_7  and  C_9
REMARK    3  A    between atoms: N_13  and  S_14
REMARK    4  A    between atoms: S_14  and  C_17
REMARK    5  A    between atoms: N_26  and  C_27
REMARK                            x       y       z     vdW  Elec       q    Type
REMARK                         _______ _______ _______ _____ _____    ______ ____
ROOT
ATOM      1  C   UNL     1       3.263   6.244  19.286  0.00  0.00    +0.000 C 
ATOM      2  C   UNL     1       2.655   4.858  19.056  0.00  0.00    +0.000 C 
ATOM      3  C   UNL     1       3.637   3.828  19.608  0.00  0.00    +0.000 C 
ATOM      4  C   UNL     1       5.030   3.954  18.983  0.00  0.00    +0.000 C 
ATOM      5  N   UNL     1       5.526   5.370  18.951  0.00  0.00    +0.000 NA
ATOM      6  C   UNL     1       4.514   6.347  18.419  0.00  0.00    +0.000 C 
ENDROOT
BRANCH   1  13
ATOM      7  C   UNL     1      -0.971  10.545  23.051  0.00  0.00    +0.000 C 
ATOM      8  C   UNL     1      -0.223  10.249  21.804  0.00  0.00    +0.000 A 
ATOM      9  C   UNL     1      -0.215  10.982  20.632  0.00  0.00    +0.000 A 
ATOM     10  S   UNL     1       0.717  10.166  19.440  0.00  0.00    +0.000 S 
ATOM     11  C   UNL     1       1.060   8.950  20.570  0.00  0.00    +0.000 A 
ATOM     12  N   UNL     1       1.868   7.882  20.315  0.00  0.00    +0.000 N 
ATOM     13  C   UNL     1       2.271   7.385  19.092  0.00  0.00    +0.000 C 
ATOM     14  O   UNL     1       1.937   7.782  17.986  0.00  0.00    +0.000 OA
ATOM     15  N   UNL     1       0.560   9.111  21.771  0.00  0.00    +0.000 NA
ATOM     16  H   UNL     1       2.084   7.375  21.160  0.00  0.00    +0.000 HD
ENDBRANCH   1  13
BRANCH   5  17
ATOM     17  S   UNL     1       7.084   5.555  18.237  0.00  0.00    +0.000 S 
ATOM     18  O   UNL     1       7.352   6.972  18.112  0.00  0.00    +0.000 OA
ATOM     19  O   UNL     1       8.016   4.668  18.900  0.00  0.00    +0.000 OA
BRANCH  17  20
ATOM     20  C   UNL     1       6.871   4.887  16.598  0.00  0.00    +0.000 A 
ATOM     21  C   UNL     1       5.927   3.857  16.376  0.00  0.00    +0.000 A 
ATOM     22  C   UNL     1       5.661   3.408  15.077  0.00  0.00    +0.000 A 
ATOM     23  C   UNL     1       6.346   4.017  14.046  0.00  0.00    +0.000 A 
ATOM     24  C   UNL     1       7.256   5.034  14.260  0.00  0.00    +0.000 A 
ATOM     25  C   UNL     1       7.543   5.498  15.529  0.00  0.00    +0.000 A 
ATOM     26  O   UNL     1       7.801   5.517  13.081  0.00  0.00    +0.000 OA
ATOM     27  C   UNL     1       7.184   4.723  12.102  0.00  0.00    +0.000 A 
ATOM     28  O   UNL     1       7.420   4.824  10.907  0.00  0.00    +0.000 OA
ATOM     29  N   UNL     1       6.309   3.825  12.686  0.00  0.00    +0.000 N 
ATOM     30  C   UNL     1       5.523   2.836  12.006  0.00  0.00    +0.000 C 
ENDBRANCH  17  20
ENDBRANCH   5  17
TORSDOF 3
ENDMDL
MODEL 7
REMARK VINA RESULT:      -7.7      4.866      8.329
REMARK  Name = 
REMARK  5 active torsions:
REMARK  status: ('A' for Active; 'I' for Inactive)
REMARK    1  A    between atoms: C_1  and  C_2
REMARK    2  A    between atoms: C_7  and  C_9
REMARK    3  A    between atoms: N_13  and  S_14
REMARK    4  A    between atoms: S_14  and  C_17
REMARK    5  A    between atoms: N_26  and  C_27
REMARK                            x       y       z     vdW  Elec       q    Type
REMARK                         _______ _______ _______ _____ _____    ______ ____
ROOT
ATOM      1  C   UNL     1       0.826   8.967  20.675  0.00  0.00    +0.000 C 
ATOM      2  C   UNL     1       1.207   8.863  22.154  0.00  0.00    +0.000 C 
ATOM      3  C   UNL     1       0.038   9.408  22.970  0.00  0.00    +0.000 C 
ATOM      4  C   UNL     1      -0.334  10.841  22.573  0.00  0.00    +0.000 C 
ATOM      5  N   UNL     1      -0.439  11.023  21.088  0.00  0.00    +0.000 NA
ATOM      6  C   UNL     1       0.727  10.450  20.330  0.00  0.00    +0.000 C 
ENDROOT
BRANCH   1  13
ATOM      7  C   UNL     1       4.060   2.645  20.264  0.00  0.00    +0.000 C 
ATOM      8  C   UNL     1       3.541   3.868  19.602  0.00  0.00    +0.000 A 
ATOM      9  C   UNL     1       3.655   4.218  18.269  0.00  0.00    +0.000 A 
ATOM     10  S   UNL     1       2.989   5.782  18.018  0.00  0.00    +0.000 S 
ATOM     11  C   UNL     1       2.575   5.847  19.661  0.00  0.00    +0.000 A 
ATOM     12  N   UNL     1       1.906   6.888  20.234  0.00  0.00    +0.000 N 
ATOM     13  C   UNL     1       1.740   8.169  19.752  0.00  0.00    +0.000 C 
ATOM     14  O   UNL     1       2.208   8.641  18.727  0.00  0.00    +0.000 OA
ATOM     15  N   UNL     1       2.868   4.790  20.379  0.00  0.00    +0.000 NA
ATOM     16  H   UNL     1       1.604   6.659  21.169  0.00  0.00    +0.000 HD
ENDBRANCH   1  13
BRANCH   5  17
ATOM     17  S   UNL     1      -0.837  12.628  20.601  0.00  0.00    +0.000 S 
ATOM     18  O   UNL     1      -0.160  13.546  21.494  0.00  0.00    +0.000 OA
ATOM     19  O   UNL     1      -0.697  12.734  19.164  0.00  0.00    +0.000 OA
BRANCH  17  20
ATOM     20  C   UNL     1      -2.587  12.737  20.921  0.00  0.00    +0.000 A 
ATOM     21  C   UNL     1      -3.509  12.489  19.877  0.00  0.00    +0.000 A 
ATOM     22  C   UNL     1      -4.884  12.450  20.140  0.00  0.00    +0.000 A 
ATOM     23  C   UNL     1      -5.282  12.653  21.446  0.00  0.00    +0.000 A 
ATOM     24  C   UNL     1      -4.382  12.879  22.469  0.00  0.00    +0.000 A 
ATOM     25  C   UNL     1      -3.020  12.926  22.242  0.00  0.00    +0.000 A 
ATOM     26  O   UNL     1      -5.001  13.025  23.700  0.00  0.00    +0.000 OA
ATOM     27  C   UNL     1      -6.362  12.891  23.384  0.00  0.00    +0.000 A 
ATOM     28  O   UNL     1      -7.257  12.983  24.211  0.00  0.00    +0.000 OA
ATOM     29  N   UNL     1      -6.526  12.665  22.028  0.00  0.00    +0.000 N 
ATOM     30  C   UNL     1      -7.772  12.507  21.336  0.00  0.00    +0.000 C 
ENDBRANCH  17  20
ENDBRANCH   5  17
TORSDOF 3
ENDMDL
MODEL 8
REMARK VINA RESULT:      -7.7      3.666      7.132
REMARK  Name = 
REMARK  5 active torsions:
REMARK  status: ('A' for Active; 'I' for Inactive)
REMARK    1  A    between atoms: C_1  and  C_2
REMARK    2  A    between atoms: C_7  and  C_9
REMARK    3  A    between atoms: N_13  and  S_14
REMARK    4  A    between atoms: S_14  and  C_17
REMARK    5  A    between atoms: N_26  and  C_27
REMARK                            x       y       z     vdW  Elec       q    Type
REMARK                         _______ _______ _______ _____ _____    ______ ____
ROOT
ATOM      1  C   UNL     1       0.834   8.172  20.893  0.00  0.00    +0.000 C 
ATOM      2  C   UNL     1       1.413   8.880  22.121  0.00  0.00    +0.000 C 
ATOM      3  C   UNL     1       0.333   9.808  22.668  0.00  0.00    +0.000 C 
ATOM      4  C   UNL     1      -0.171  10.803  21.617  0.00  0.00    +0.000 C 
ATOM      5  N   UNL     1      -0.483  10.151  20.303  0.00  0.00    +0.000 NA
ATOM      6  C   UNL     1       0.603   9.230  19.819  0.00  0.00    +0.000 C 
ENDROOT
BRANCH   1  13
ATOM      7  C   UNL     1       5.262   6.253  15.667  0.00  0.00    +0.000 C 
ATOM      8  C   UNL     1       4.731   6.054  17.039  0.00  0.00    +0.000 A 
ATOM      9  C   UNL     1       5.053   5.046  17.929  0.00  0.00    +0.000 A 
ATOM     10  S   UNL     1       4.087   5.188  19.344  0.00  0.00    +0.000 S 
ATOM     11  C   UNL     1       3.365   6.574  18.688  0.00  0.00    +0.000 A 
ATOM     12  N   UNL     1       2.433   7.326  19.340  0.00  0.00    +0.000 N 
ATOM     13  C   UNL     1       1.662   6.979  20.429  0.00  0.00    +0.000 C 
ATOM     14  O   UNL     1       1.628   5.898  20.998  0.00  0.00    +0.000 OA
ATOM     15  N   UNL     1       3.799   6.958  17.512  0.00  0.00    +0.000 NA
ATOM     16  H   UNL     1       2.261   8.196  18.858  0.00  0.00    +0.000 HD
ENDBRANCH   1  13
BRANCH   5  17
ATOM     17  S   UNL     1      -1.035  11.241  19.088  0.00  0.00    +0.000 S 
ATOM     18  O   UNL     1      -1.150  10.506  17.846  0.00  0.00    +0.000 OA
ATOM     19  O   UNL     1      -2.143  12.011  19.613  0.00  0.00    +0.000 OA
BRANCH  17  20
ATOM     20  C   UNL     1       0.313  12.396  18.923  0.00  0.00    +0.000 A 
ATOM     21  C   UNL     1       1.579  11.941  18.488  0.00  0.00    +0.000 A 
ATOM     22  C   UNL     1       2.612  12.852  18.236  0.00  0.00    +0.000 A 
ATOM     23  C   UNL     1       2.331  14.190  18.422  0.00  0.00    +0.000 A 
ATOM     24  C   UNL     1       1.090  14.637  18.831  0.00  0.00    +0.000 A 
ATOM     25  C   UNL     1       0.051  13.764  19.091  0.00  0.00    +0.000 A 
ATOM     26  O   UNL     1       1.026  16.019  18.923  0.00  0.00    +0.000 OA
ATOM     27  C   UNL     1       2.321  16.417  18.557  0.00  0.00    +0.000 A 
ATOM     28  O   UNL     1       2.684  17.584  18.535  0.00  0.00    +0.000 OA
ATOM     29  N   UNL     1       3.101  15.315  18.254  0.00  0.00    +0.000 N 
ATOM     30  C   UNL     1       4.483  15.330  17.869  0.00  0.00    +0.000 C 
ENDBRANCH  17  20
ENDBRANCH   5  17
TORSDOF 3
ENDMDL
MODEL 9
REMARK VINA RESULT:      -7.6      4.657      7.862
REMARK  Name = 
REMARK  5 active torsions:
REMARK  status: ('A' for Active; 'I' for Inactive)
REMARK    1  A    between atoms: C_1  and  C_2
REMARK    2  A    between atoms: C_7  and  C_9
REMARK    3  A    between atoms: N_13  and  S_14
REMARK    4  A    between atoms: S_14  and  C_17
REMARK    5  A    between atoms: N_26  and  C_27
REMARK                            x       y       z     vdW  Elec       q    Type
REMARK                         _______ _______ _______ _____ _____    ______ ____
ROOT
ATOM      1  C   UNL     1       1.195   8.484  19.957  0.00  0.00    +0.000 C 
ATOM      2  C   UNL     1       1.363   8.369  21.474  0.00  0.00    +0.000 C 
ATOM      3  C   UNL     1       0.103   8.937  22.121  0.00  0.00    +0.000 C 
ATOM      4  C   UNL     1      -0.181  10.378  21.684  0.00  0.00    +0.000 C 
ATOM      5  N   UNL     1      -0.073  10.566  20.199  0.00  0.00    +0.000 NA
ATOM      6  C   UNL     1       1.175   9.970  19.609  0.00  0.00    +0.000 C 
ENDROOT
BRANCH   1  13
ATOM      7  C   UNL     1       4.460   2.166  20.073  0.00  0.00    +0.000 C 
ATOM      8  C   UNL     1       4.022   3.372  19.327  0.00  0.00    +0.000 A 
ATOM      9  C   UNL     1       4.293   3.692  18.010  0.00  0.00    +0.000 A 
ATOM     10  S   UNL     1       3.660   5.248  17.646  0.00  0.00    +0.000 S 
ATOM     11  C   UNL     1       3.054   5.349  19.227  0.00  0.00    +0.000 A 
ATOM     12  N   UNL     1       2.321   6.399  19.694  0.00  0.00    +0.000 N 
ATOM     13  C   UNL     1       2.212   7.669  19.167  0.00  0.00    +0.000 C 
ATOM     14  O   UNL     1       2.798   8.120  18.194  0.00  0.00    +0.000 OA
ATOM     15  N   UNL     1       3.261   4.309  19.998  0.00  0.00    +0.000 NA
ATOM     16  H   UNL     1       1.911   6.190  20.591  0.00  0.00    +0.000 HD
ENDBRANCH   1  13
BRANCH   5  17
ATOM     17  S   UNL     1      -0.366  12.180  19.670  0.00  0.00    +0.000 S 
ATOM     18  O   UNL     1      -0.080  13.070  20.776  0.00  0.00    +0.000 OA
ATOM     19  O   UNL     1       0.248  12.370  18.373  0.00  0.00    +0.000 OA
BRANCH  17  20
ATOM     20  C   UNL     1      -2.124  12.209  19.377  0.00  0.00    +0.000 A 
ATOM     21  C   UNL     1      -2.656  11.574  18.231  0.00  0.00    +0.000 A 
ATOM     22  C   UNL     1      -4.041  11.482  18.051  0.00  0.00    +0.000 A 
ATOM     23  C   UNL     1      -4.842  12.024  19.035  0.00  0.00    +0.000 A 
ATOM     24  C   UNL     1      -4.324  12.629  20.163  0.00  0.00    +0.000 A 
ATOM     25  C   UNL     1      -2.962  12.739  20.369  0.00  0.00    +0.000 A 
ATOM     26  O   UNL     1      -5.311  13.074  21.029  0.00  0.00    +0.000 OA
ATOM     27  C   UNL     1      -6.495  12.721  20.363  0.00  0.00    +0.000 A 
ATOM     28  O   UNL     1      -7.610  12.967  20.798  0.00  0.00    +0.000 OA
ATOM     29  N   UNL     1      -6.208  12.088  19.166  0.00  0.00    +0.000 N 
ATOM     30  C   UNL     1      -7.161  11.612  18.206  0.00  0.00    +0.000 C 
ENDBRANCH  17  20
ENDBRANCH   5  17
TORSDOF 3
ENDMDL
