MODEL 1
REMARK VINA RESULT:      -6.8      0.000      0.000
REMARK  Name = 
REMARK  8 active torsions:
REMARK  status: ('A' for Active; 'I' for Inactive)
REMARK    1  A    between atoms: C_1  and  C_2
REMARK    2  A    between atoms: C_2  and  C_3
REMARK    3  A    between atoms: C_6  and  C_7
REMARK    4  A    between atoms: C_7  and  C_8
REMARK    5  A    between atoms: C_7  and  N_9
REMARK    6  A    between atoms: C_10  and  C_12
REMARK    7  A    between atoms: C_15  and  O_16
REMARK    8  A    between atoms: O_16  and  C_17
REMARK                            x       y       z     vdW  Elec       q    Type
REMARK                         _______ _______ _______ _____ _____    ______ ____
ROOT
ATOM      1  N   UNL     1       3.940   5.735  17.479  0.00  0.00    +0.000 N 
ATOM      2  C   UNL     1       3.463   6.144  18.706  0.00  0.00    +0.000 C 
ATOM      3  O   UNL     1       3.716   5.554  19.751  0.00  0.00    +0.000 OA
ATOM      4  H   UNL     1       3.811   6.286  16.638  0.00  0.00    +0.000 HD
ENDROOT
BRANCH   2   5
ATOM      5  C   UNL     1       2.640   7.362  18.748  0.00  0.00    +0.000 A 
ATOM      6  C   UNL     1       1.960   7.801  19.861  0.00  0.00    +0.000 A 
ATOM      7  N   UNL     1       1.210   8.924  19.887  0.00  0.00    +0.000 NA
ATOM      8  C   UNL     1       1.180   9.644  18.752  0.00  0.00    +0.000 A 
ATOM      9  N   UNL     1       1.815   9.324  17.612  0.00  0.00    +0.000 NA
ATOM     10  C   UNL     1       2.541   8.180  17.642  0.00  0.00    +0.000 A 
BRANCH   8  11
ATOM     11  O   UNL     1       0.369  10.755  18.793  0.00  0.00    +0.000 OA
ATOM     12  C   UNL     1      -0.909  10.508  18.223  0.00  0.00    +0.000 C 
ENDBRANCH   8  11
ENDBRANCH   2   5
BRANCH   1  13
ATOM     13  C   UNL     1       4.770   4.537  17.354  0.00  0.00    +0.000 C 
ATOM     14  C   UNL     1       3.902   3.284  17.291  0.00  0.00    +0.000 C 
BRANCH  13  18
ATOM     15  C   UNL     1       6.560   4.568  14.267  0.00  0.00    +0.000 A 
ATOM     16  N   UNL     1       7.433   5.244  15.024  0.00  0.00    +0.000 NA
ATOM     17  O   UNL     1       6.804   5.297  16.267  0.00  0.00    +0.000 OA
ATOM     18  C   UNL     1       5.613   4.645  16.127  0.00  0.00    +0.000 A 
ATOM     19  N   UNL     1       5.409   4.181  14.911  0.00  0.00    +0.000 NA
BRANCH  15  21
ATOM     20  C   UNL     1       5.831   3.253  12.276  0.00  0.00    +0.000 C 
ATOM     21  C   UNL     1       6.830   4.249  12.843  0.00  0.00    +0.000 C 
ENDBRANCH  15  21
ENDBRANCH  13  18
ENDBRANCH   1  13
TORSDOF 5
ENDMDL
MODEL 2
REMARK VINA RESULT:      -6.8      2.790      4.053
REMARK  Name = 
REMARK  8 active torsions:
REMARK  status: ('A' for Active; 'I' for Inactive)
REMARK    1  A    between atoms: C_1  and  C_2
REMARK    2  A    between atoms: C_2  and  C_3
REMARK    3  A    between atoms: C_6  and  C_7
REMARK    4  A    between atoms: C_7  and  C_8
REMARK    5  A    between atoms: C_7  and  N_9
REMARK    6  A    between atoms: C_10  and  C_12
REMARK    7  A    between atoms: C_15  and  O_16
REMARK    8  A    between atoms: O_16  and  C_17
REMARK                            x       y       z     vdW  Elec       q    Type
REMARK                         _______ _______ _______ _____ _____    ______ ____
ROOT
ATOM      1  N   UNL     1       5.310   5.821  17.945  0.00  0.00    +0.000 N 
ATOM      2  C   UNL     1       3.988   6.191  18.059  0.00  0.00    +0.000 C 
ATOM      3  O   UNL     1       3.509   7.152  17.465  0.00  0.00    +0.000 OA
ATOM      4  H   UNL     1       5.671   4.968  18.357  0.00  0.00    +0.000 HD
ENDROOT
BRANCH   2   5
ATOM      5  C   UNL     1       3.119   5.367  18.913  0.00  0.00    +0.000 A 
ATOM      6  C   UNL     1       2.304   5.866  19.903  0.00  0.00    +0.000 A 
ATOM      7  N   UNL     1       1.508   5.098  20.678  0.00  0.00    +0.000 NA
ATOM      8  C   UNL     1       1.516   3.781  20.413  0.00  0.00    +0.000 A 
ATOM      9  N   UNL     1       2.255   3.183  19.463  0.00  0.00    +0.000 NA
ATOM     10  C   UNL     1       3.043   4.002  18.727  0.00  0.00    +0.000 A 
BRANCH   8  11
ATOM     11  O   UNL     1       0.733   3.018  21.250  0.00  0.00    +0.000 OA
ATOM     12  C   UNL     1       1.510   2.267  22.173  0.00  0.00    +0.000 C 
ENDBRANCH   8  11
ENDBRANCH   2   5
BRANCH   1  13
ATOM     13  C   UNL     1       6.237   6.586  17.110  0.00  0.00    +0.000 C 
ATOM     14  C   UNL     1       7.543   6.847  17.856  0.00  0.00    +0.000 C 
BRANCH  13  18
ATOM     15  C   UNL     1       6.565   4.624  14.147  0.00  0.00    +0.000 A 
ATOM     16  N   UNL     1       7.791   5.160  14.183  0.00  0.00    +0.000 NA
ATOM     17  O   UNL     1       7.754   5.969  15.317  0.00  0.00    +0.000 OA
ATOM     18  C   UNL     1       6.504   5.833  15.848  0.00  0.00    +0.000 A 
ATOM     19  N   UNL     1       5.727   5.020  15.163  0.00  0.00    +0.000 NA
BRANCH  15  21
ATOM     20  C   UNL     1       6.964   3.816  11.821  0.00  0.00    +0.000 C 
ATOM     21  C   UNL     1       6.154   3.659  13.098  0.00  0.00    +0.000 C 
ENDBRANCH  15  21
ENDBRANCH  13  18
ENDBRANCH   1  13
TORSDOF 5
ENDMDL
MODEL 3
REMARK VINA RESULT:      -6.6      0.661      1.244
REMARK  Name = 
REMARK  8 active torsions:
REMARK  status: ('A' for Active; 'I' for Inactive)
REMARK    1  A    between atoms: C_1  and  C_2
REMARK    2  A    between atoms: C_2  and  C_3
REMARK    3  A    between atoms: C_6  and  C_7
REMARK    4  A    between atoms: C_7  and  C_8
REMARK    5  A    between atoms: C_7  and  N_9
REMARK    6  A    between atoms: C_10  and  C_12
REMARK    7  A    between atoms: C_15  and  O_16
REMARK    8  A    between atoms: O_16  and  C_17
REMARK                            x       y       z     vdW  Elec       q    Type
REMARK                         _______ _______ _______ _____ _____    ______ ____
ROOT
ATOM      1  N   UNL     1       3.615   5.652  17.673  0.00  0.00    +0.000 N 
ATOM      2  C   UNL     1       3.204   6.143  18.893  0.00  0.00    +0.000 C 
ATOM      3  O   UNL     1       3.434   5.572  19.955  0.00  0.00    +0.000 OA
ATOM      4  H   UNL     1       3.510   6.180  16.814  0.00  0.00    +0.000 HD
ENDROOT
BRANCH   2   5
ATOM      5  C   UNL     1       2.484   7.425  18.907  0.00  0.00    +0.000 A 
ATOM      6  C   UNL     1       2.377   8.267  17.823  0.00  0.00    +0.000 A 
ATOM      7  N   UNL     1       1.710   9.440  17.848  0.00  0.00    +0.000 NA
ATOM      8  C   UNL     1       1.101   9.752  19.005  0.00  0.00    +0.000 A 
ATOM      9  N   UNL     1       1.122   9.003  20.121  0.00  0.00    +0.000 NA
ATOM     10  C   UNL     1       1.818   7.843  20.040  0.00  0.00    +0.000 A 
BRANCH   8  11
ATOM     11  O   UNL     1       0.470  10.975  19.017  0.00  0.00    +0.000 OA
ATOM     12  C   UNL     1      -0.190  11.227  20.249  0.00  0.00    +0.000 C 
ENDBRANCH   8  11
ENDBRANCH   2   5
BRANCH   1  13
ATOM     13  C   UNL     1       4.341   4.385  17.576  0.00  0.00    +0.000 C 
ATOM     14  C   UNL     1       3.377   3.229  17.327  0.00  0.00    +0.000 C 
BRANCH  13  18
ATOM     15  C   UNL     1       6.481   4.459  14.721  0.00  0.00    +0.000 A 
ATOM     16  N   UNL     1       7.380   4.756  15.667  0.00  0.00    +0.000 NA
ATOM     17  O   UNL     1       6.623   4.766  16.837  0.00  0.00    +0.000 OA
ATOM     18  C   UNL     1       5.341   4.472  16.470  0.00  0.00    +0.000 A 
ATOM     19  N   UNL     1       5.196   4.280  15.175  0.00  0.00    +0.000 NA
BRANCH  15  21
ATOM     20  C   UNL     1       5.899   3.409  12.533  0.00  0.00    +0.000 C 
ATOM     21  C   UNL     1       6.854   4.317  13.292  0.00  0.00    +0.000 C 
ENDBRANCH  15  21
ENDBRANCH  13  18
ENDBRANCH   1  13
TORSDOF 5
ENDMDL
MODEL 4
REMARK VINA RESULT:      -6.6      3.050      4.117
REMARK  Name = 
REMARK  8 active torsions:
REMARK  status: ('A' for Active; 'I' for Inactive)
REMARK    1  A    between atoms: C_1  and  C_2
REMARK    2  A    between atoms: C_2  and  C_3
REMARK    3  A    between atoms: C_6  and  C_7
REMARK    4  A    between atoms: C_7  and  C_8
REMARK    5  A    between atoms: C_7  and  N_9
REMARK    6  A    between atoms: C_10  and  C_12
REMARK    7  A    between atoms: C_15  and  O_16
REMARK    8  A    between atoms: O_16  and  C_17
REMARK                            x       y       z     vdW  Elec       q    Type
REMARK                         _______ _______ _______ _____ _____    ______ ____
ROOT
ATOM      1  N   UNL     1       5.199   4.773  16.240  0.00  0.00    +0.000 N 
ATOM      2  C   UNL     1       4.448   5.662  16.978  0.00  0.00    +0.000 C 
ATOM      3  O   UNL     1       4.574   6.879  16.887  0.00  0.00    +0.000 OA
ATOM      4  H   UNL     1       5.017   3.776  16.247  0.00  0.00    +0.000 HD
ENDROOT
BRANCH   2   5
ATOM      5  C   UNL     1       3.434   5.109  17.889  0.00  0.00    +0.000 A 
ATOM      6  C   UNL     1       2.994   5.735  19.033  0.00  0.00    +0.000 A 
ATOM      7  N   UNL     1       2.059   5.217  19.858  0.00  0.00    +0.000 NA
ATOM      8  C   UNL     1       1.528   4.040  19.488  0.00  0.00    +0.000 A 
ATOM      9  N   UNL     1       1.865   3.346  18.388  0.00  0.00    +0.000 NA
ATOM     10  C   UNL     1       2.818   3.908  17.605  0.00  0.00    +0.000 A 
BRANCH   8  11
ATOM     11  O   UNL     1       0.614   3.513  20.373  0.00  0.00    +0.000 OA
ATOM     12  C   UNL     1       1.238   2.761  21.404  0.00  0.00    +0.000 C 
ENDBRANCH   8  11
ENDBRANCH   2   5
BRANCH   1  13
ATOM     13  C   UNL     1       6.225   5.244  15.309  0.00  0.00    +0.000 C 
ATOM     14  C   UNL     1       7.620   5.009  15.879  0.00  0.00    +0.000 C 
BRANCH  13  18
ATOM     15  C   UNL     1       5.552   3.422  12.315  0.00  0.00    +0.000 A 
ATOM     16  N   UNL     1       6.816   3.786  12.062  0.00  0.00    +0.000 NA
ATOM     17  O   UNL     1       7.166   4.528  13.188  0.00  0.00    +0.000 OA
ATOM     18  C   UNL     1       6.072   4.533  14.005  0.00  0.00    +0.000 A 
ATOM     19  N   UNL     1       5.046   3.871  13.511  0.00  0.00    +0.000 NA
BRANCH  15  21
ATOM     20  C   UNL     1       3.602   3.336  10.762  0.00  0.00    +0.000 C 
ATOM     21  C   UNL     1       4.769   2.581  11.376  0.00  0.00    +0.000 C 
ENDBRANCH  15  21
ENDBRANCH  13  18
ENDBRANCH   1  13
TORSDOF 5
ENDMDL
MODEL 5
REMARK VINA RESULT:      -6.5      3.192      4.509
REMARK  Name = 
REMARK  8 active torsions:
REMARK  status: ('A' for Active; 'I' for Inactive)
REMARK    1  A    between atoms: C_1  and  C_2
REMARK    2  A    between atoms: C_2  and  C_3
REMARK    3  A    between atoms: C_6  and  C_7
REMARK    4  A    between atoms: C_7  and  C_8
REMARK    5  A    between atoms: C_7  and  N_9
REMARK    6  A    between atoms: C_10  and  C_12
REMARK    7  A    between atoms: C_15  and  O_16
REMARK    8  A    between atoms: O_16  and  C_17
REMARK                            x       y       z     vdW  Elec       q    Type
REMARK                         _______ _______ _______ _____ _____    ______ ____
ROOT
ATOM      1  N   UNL     1       5.669   5.659  17.948  0.00  0.00    +0.000 N 
ATOM      2  C   UNL     1       4.317   5.686  18.214  0.00  0.00    +0.000 C 
ATOM      3  O   UNL     1       3.532   6.408  17.607  0.00  0.00    +0.000 OA
ATOM      4  H   UNL     1       6.292   4.987  18.382  0.00  0.00    +0.000 HD
ENDROOT
BRANCH   2   5
ATOM      5  C   UNL     1       3.806   4.781  19.254  0.00  0.00    +0.000 A 
ATOM      6  C   UNL     1       2.772   5.087  20.109  0.00  0.00    +0.000 A 
ATOM      7  N   UNL     1       2.310   4.244  21.059  0.00  0.00    +0.000 NA
ATOM      8  C   UNL     1       2.897   3.037  21.116  0.00  0.00    +0.000 A 
ATOM      9  N   UNL     1       3.901   2.622  20.325  0.00  0.00    +0.000 NA
ATOM     10  C   UNL     1       4.331   3.514  19.400  0.00  0.00    +0.000 A 
BRANCH   8  11
ATOM     11  O   UNL     1       2.440   2.218  22.124  0.00  0.00    +0.000 OA
ATOM     12  C   UNL     1       1.034   2.319  22.300  0.00  0.00    +0.000 C 
ENDBRANCH   8  11
ENDBRANCH   2   5
BRANCH   1  13
ATOM     13  C   UNL     1       6.254   6.525  16.924  0.00  0.00    +0.000 C 
ATOM     14  C   UNL     1       7.546   7.160  17.430  0.00  0.00    +0.000 C 
BRANCH  13  18
ATOM     15  C   UNL     1       6.590   4.434  14.051  0.00  0.00    +0.000 A 
ATOM     16  N   UNL     1       7.782   5.043  14.011  0.00  0.00    +0.000 NA
ATOM     17  O   UNL     1       7.738   5.906  15.104  0.00  0.00    +0.000 OA
ATOM     18  C   UNL     1       6.519   5.725  15.691  0.00  0.00    +0.000 A 
ATOM     19  N   UNL     1       5.768   4.833  15.078  0.00  0.00    +0.000 NA
BRANCH  15  21
ATOM     20  C   UNL     1       5.008   3.816  12.224  0.00  0.00    +0.000 C 
ATOM     21  C   UNL     1       6.200   3.394  13.068  0.00  0.00    +0.000 C 
ENDBRANCH  15  21
ENDBRANCH  13  18
ENDBRANCH   1  13
TORSDOF 5
ENDMDL
MODEL 6
REMARK VINA RESULT:      -6.4      3.260      4.310
REMARK  Name = 
REMARK  8 active torsions:
REMARK  status: ('A' for Active; 'I' for Inactive)
REMARK    1  A    between atoms: C_1  and  C_2
REMARK    2  A    between atoms: C_2  and  C_3
REMARK    3  A    between atoms: C_6  and  C_7
REMARK    4  A    between atoms: C_7  and  C_8
REMARK    5  A    between atoms: C_7  and  N_9
REMARK    6  A    between atoms: C_10  and  C_12
REMARK    7  A    between atoms: C_15  and  O_16
REMARK    8  A    between atoms: O_16  and  C_17
REMARK                            x       y       z     vdW  Elec       q    Type
REMARK                         _______ _______ _______ _____ _____    ______ ____
ROOT
ATOM      1  N   UNL     1       5.286   5.012  16.868  0.00  0.00    +0.000 N 
ATOM      2  C   UNL     1       4.132   5.564  17.382  0.00  0.00    +0.000 C 
ATOM      3  O   UNL     1       3.753   6.697  17.102  0.00  0.00    +0.000 OA
ATOM      4  H   UNL     1       5.536   4.042  17.024  0.00  0.00    +0.000 HD
ENDROOT
BRANCH   2   5
ATOM      5  C   UNL     1       3.317   4.733  18.280  0.00  0.00    +0.000 A 
ATOM      6  C   UNL     1       3.832   3.898  19.245  0.00  0.00    +0.000 A 
ATOM      7  N   UNL     1       3.071   3.142  20.066  0.00  0.00    +0.000 NA
ATOM      8  C   UNL     1       1.741   3.268  19.925  0.00  0.00    +0.000 A 
ATOM      9  N   UNL     1       1.126   4.062  19.032  0.00  0.00    +0.000 NA
ATOM     10  C   UNL     1       1.940   4.786  18.226  0.00  0.00    +0.000 A 
BRANCH   8  11
ATOM     11  O   UNL     1       0.992   2.450  20.740  0.00  0.00    +0.000 OA
ATOM     12  C   UNL     1       1.478   2.434  22.075  0.00  0.00    +0.000 C 
ENDBRANCH   8  11
ENDBRANCH   2   5
BRANCH   1  13
ATOM     13  C   UNL     1       6.148   5.772  15.963  0.00  0.00    +0.000 C 
ATOM     14  C   UNL     1       7.530   5.973  16.578  0.00  0.00    +0.000 C 
BRANCH  13  18
ATOM     15  C   UNL     1       6.158   3.831  12.969  0.00  0.00    +0.000 A 
ATOM     16  N   UNL     1       7.260   4.559  12.752  0.00  0.00    +0.000 NA
ATOM     17  O   UNL     1       7.332   5.373  13.881  0.00  0.00    +0.000 OA
ATOM     18  C   UNL     1       6.261   5.048  14.663  0.00  0.00    +0.000 A 
ATOM     19  N   UNL     1       5.500   4.106  14.144  0.00  0.00    +0.000 NA
BRANCH  15  21
ATOM     20  C   UNL     1       4.393   3.173  11.332  0.00  0.00    +0.000 C 
ATOM     21  C   UNL     1       5.697   2.792  12.015  0.00  0.00    +0.000 C 
ENDBRANCH  15  21
ENDBRANCH  13  18
ENDBRANCH   1  13
TORSDOF 5
ENDMDL
MODEL 7
REMARK VINA RESULT:      -6.4      3.023      7.169
REMARK  Name = 
REMARK  8 active torsions:
REMARK  status: ('A' for Active; 'I' for Inactive)
REMARK    1  A    between atoms: C_1  and  C_2
REMARK    2  A    between atoms: C_2  and  C_3
REMARK    3  A    between atoms: C_6  and  C_7
REMARK    4  A    between atoms: C_7  and  C_8
REMARK    5  A    between atoms: C_7  and  N_9
REMARK    6  A    between atoms: C_10  and  C_12
REMARK    7  A    between atoms: C_15  and  O_16
REMARK    8  A    between atoms: O_16  and  C_17
REMARK                            x       y       z     vdW  Elec       q    Type
REMARK                         _______ _______ _______ _____ _____    ______ ____
ROOT
ATOM      1  N   UNL     1       4.812   3.229  18.450  0.00  0.00    +0.000 N 
ATOM      2  C   UNL     1       4.429   3.558  17.167  0.00  0.00    +0.000 C 
ATOM      3  O   UNL     1       3.284   3.408  16.754  0.00  0.00    +0.000 OA
ATOM      4  H   UNL     1       5.732   3.451  18.813  0.00  0.00    +0.000 HD
ENDROOT
BRANCH   2   5
ATOM      5  C   UNL     1       5.445   4.141  16.279  0.00  0.00    +0.000 A 
ATOM      6  C   UNL     1       6.376   5.075  16.672  0.00  0.00    +0.000 A 
ATOM      7  N   UNL     1       7.307   5.600  15.846  0.00  0.00    +0.000 NA
ATOM      8  C   UNL     1       7.313   5.133  14.586  0.00  0.00    +0.000 A 
ATOM      9  N   UNL     1       6.466   4.212  14.094  0.00  0.00    +0.000 NA
ATOM     10  C   UNL     1       5.546   3.731  14.965  0.00  0.00    +0.000 A 
BRANCH   8  11
ATOM     11  O   UNL     1       8.239   5.721  13.755  0.00  0.00    +0.000 OA
ATOM     12  C   UNL     1       7.963   5.472  12.384  0.00  0.00    +0.000 C 
ENDBRANCH   8  11
ENDBRANCH   2   5
BRANCH   1  13
ATOM     13  C   UNL     1       3.859   2.649  19.396  0.00  0.00    +0.000 C 
ATOM     14  C   UNL     1       4.588   2.043  20.592  0.00  0.00    +0.000 C 
BRANCH  13  18
ATOM     15  C   UNL     1       1.865   5.396  20.500  0.00  0.00    +0.000 A 
ATOM     16  N   UNL     1       0.955   4.420  20.600  0.00  0.00    +0.000 NA
ATOM     17  O   UNL     1       1.647   3.290  20.168  0.00  0.00    +0.000 OA
ATOM     18  C   UNL     1       2.909   3.707  19.852  0.00  0.00    +0.000 A 
ATOM     19  N   UNL     1       3.095   4.998  20.032  0.00  0.00    +0.000 NA
BRANCH  15  21
ATOM     20  C   UNL     1       1.983   7.791  19.812  0.00  0.00    +0.000 C 
ATOM     21  C   UNL     1       1.567   6.797  20.885  0.00  0.00    +0.000 C 
ENDBRANCH  15  21
ENDBRANCH  13  18
ENDBRANCH   1  13
TORSDOF 5
ENDMDL
MODEL 8
REMARK VINA RESULT:      -6.4      3.097      4.449
REMARK  Name = 
REMARK  8 active torsions:
REMARK  status: ('A' for Active; 'I' for Inactive)
REMARK    1  A    between atoms: C_1  and  C_2
REMARK    2  A    between atoms: C_2  and  C_3
REMARK    3  A    between atoms: C_6  and  C_7
REMARK    4  A    between atoms: C_7  and  C_8
REMARK    5  A    between atoms: C_7  and  N_9
REMARK    6  A    between atoms: C_10  and  C_12
REMARK    7  A    between atoms: C_15  and  O_16
REMARK    8  A    between atoms: O_16  and  C_17
REMARK                            x       y       z     vdW  Elec       q    Type
REMARK                         _______ _______ _______ _____ _____    ______ ____
ROOT
ATOM      1  N   UNL     1       5.667   5.818  17.952  0.00  0.00    +0.000 N 
ATOM      2  C   UNL     1       4.317   5.847  18.224  0.00  0.00    +0.000 C 
ATOM      3  O   UNL     1       3.528   6.557  17.610  0.00  0.00    +0.000 OA
ATOM      4  H   UNL     1       6.294   5.154  18.394  0.00  0.00    +0.000 HD
ENDROOT
BRANCH   2   5
ATOM      5  C   UNL     1       3.813   4.958  19.283  0.00  0.00    +0.000 A 
ATOM      6  C   UNL     1       4.256   3.672  19.492  0.00  0.00    +0.000 A 
ATOM      7  N   UNL     1       3.788   2.868  20.471  0.00  0.00    +0.000 NA
ATOM      8  C   UNL     1       2.862   3.402  21.285  0.00  0.00    +0.000 A 
ATOM      9  N   UNL     1       2.367   4.648  21.188  0.00  0.00    +0.000 NA
ATOM     10  C   UNL     1       2.865   5.404  20.180  0.00  0.00    +0.000 A 
BRANCH   8  11
ATOM     11  O   UNL     1       2.367   2.544  22.241  0.00  0.00    +0.000 OA
ATOM     12  C   UNL     1       0.983   2.280  22.059  0.00  0.00    +0.000 C 
ENDBRANCH   8  11
ENDBRANCH   2   5
BRANCH   1  13
ATOM     13  C   UNL     1       6.246   6.667  16.911  0.00  0.00    +0.000 C 
ATOM     14  C   UNL     1       7.558   7.284  17.386  0.00  0.00    +0.000 C 
BRANCH  13  18
ATOM     15  C   UNL     1       6.461   4.595  14.014  0.00  0.00    +0.000 A 
ATOM     16  N   UNL     1       7.731   5.013  14.070  0.00  0.00    +0.000 NA
ATOM     17  O   UNL     1       7.743   5.855  15.180  0.00  0.00    +0.000 OA
ATOM     18  C   UNL     1       6.472   5.855  15.678  0.00  0.00    +0.000 A 
ATOM     19  N   UNL     1       5.639   5.099  14.993  0.00  0.00    +0.000 NA
BRANCH  15  21
ATOM     20  C   UNL     1       6.953   3.534  11.809  0.00  0.00    +0.000 C 
ATOM     21  C   UNL     1       5.987   3.642  12.979  0.00  0.00    +0.000 C 
ENDBRANCH  15  21
ENDBRANCH  13  18
ENDBRANCH   1  13
TORSDOF 5
ENDMDL
MODEL 9
REMARK VINA RESULT:      -6.3      2.439      7.253
REMARK  Name = 
REMARK  8 active torsions:
REMARK  status: ('A' for Active; 'I' for Inactive)
REMARK    1  A    between atoms: C_1  and  C_2
REMARK    2  A    between atoms: C_2  and  C_3
REMARK    3  A    between atoms: C_6  and  C_7
REMARK    4  A    between atoms: C_7  and  C_8
REMARK    5  A    between atoms: C_7  and  N_9
REMARK    6  A    between atoms: C_10  and  C_12
REMARK    7  A    between atoms: C_15  and  O_16
REMARK    8  A    between atoms: O_16  and  C_17
REMARK                            x       y       z     vdW  Elec       q    Type
REMARK                         _______ _______ _______ _____ _____    ______ ____
ROOT
ATOM      1  N   UNL     1       3.921   6.320  17.347  0.00  0.00    +0.000 N 
ATOM      2  C   UNL     1       5.081   5.577  17.382  0.00  0.00    +0.000 C 
ATOM      3  O   UNL     1       5.592   5.187  18.427  0.00  0.00    +0.000 OA
ATOM      4  H   UNL     1       3.451   6.549  16.478  0.00  0.00    +0.000 HD
ENDROOT
BRANCH   2   5
ATOM      5  C   UNL     1       5.703   5.221  16.098  0.00  0.00    +0.000 A 
ATOM      6  C   UNL     1       5.088   4.475  15.118  0.00  0.00    +0.000 A 
ATOM      7  N   UNL     1       5.670   4.157  13.942  0.00  0.00    +0.000 NA
ATOM      8  C   UNL     1       6.906   4.645  13.741  0.00  0.00    +0.000 A 
ATOM      9  N   UNL     1       7.597   5.396  14.615  0.00  0.00    +0.000 NA
ATOM     10  C   UNL     1       6.968   5.671  15.783  0.00  0.00    +0.000 A 
BRANCH   8  11
ATOM     11  O   UNL     1       7.493   4.265  12.555  0.00  0.00    +0.000 OA
ATOM     12  C   UNL     1       6.715   3.303  11.856  0.00  0.00    +0.000 C 
ENDBRANCH   8  11
ENDBRANCH   2   5
BRANCH   1  13
ATOM     13  C   UNL     1       3.238   6.711  18.581  0.00  0.00    +0.000 C 
ATOM     14  C   UNL     1       2.313   7.899  18.332  0.00  0.00    +0.000 C 
BRANCH  13  18
ATOM     15  C   UNL     1       1.543   3.985  20.140  0.00  0.00    +0.000 A 
ATOM     16  N   UNL     1       1.147   3.785  18.877  0.00  0.00    +0.000 NA
ATOM     17  O   UNL     1       1.756   4.828  18.182  0.00  0.00    +0.000 OA
ATOM     18  C   UNL     1       2.459   5.550  19.104  0.00  0.00    +0.000 A 
ATOM     19  N   UNL     1       2.356   5.076  20.329  0.00  0.00    +0.000 NA
BRANCH  15  21
ATOM     20  C   UNL     1       2.325   2.310  21.816  0.00  0.00    +0.000 C 
ATOM     21  C   UNL     1       1.144   3.079  21.246  0.00  0.00    +0.000 C 
ENDBRANCH  15  21
ENDBRANCH  13  18
ENDBRANCH   1  13
TORSDOF 5
ENDMDL
