MODEL 1
REMARK VINA RESULT:      -8.3      0.000      0.000
REMARK  Name = 
REMARK  3 active torsions:
REMARK  status: ('A' for Active; 'I' for Inactive)
REMARK    1  A    between atoms: C_2  and  C_3
REMARK    2  A    between atoms: C_8  and  N_9
REMARK    3  A    between atoms: C_12  and  C_13
REMARK                            x       y       z     vdW  Elec       q    Type
REMARK                         _______ _______ _______ _____ _____    ______ ____
ROOT
ATOM      1  N   UNL     1       5.119   4.654  17.855  0.00  0.00    +0.000 N 
ATOM      2  N   UNL     1       6.421   4.528  18.197  0.00  0.00    +0.000 NA
ATOM      3  N   UNL     1       7.086   4.400  17.058  0.00  0.00    +0.000 NA
ATOM      4  C   UNL     1       6.153   4.423  16.052  0.00  0.00    +0.000 A 
ATOM      5  N   UNL     1       4.899   4.494  16.527  0.00  0.00    +0.000 NA
ENDROOT
BRANCH   1  11
ATOM      6  C   UNL     1       2.560   4.255  20.518  0.00  0.00    +0.000 A 
ATOM      7  C   UNL     1       1.886   5.473  20.456  0.00  0.00    +0.000 A 
ATOM      8  C   UNL     1       2.298   6.452  19.549  0.00  0.00    +0.000 A 
ATOM      9  C   UNL     1       3.381   6.232  18.684  0.00  0.00    +0.000 A 
ATOM     10 CL   UNL     1       3.746   7.542  17.617  0.00  0.00    +0.000 Cl
ATOM     11  C   UNL     1       4.059   5.005  18.728  0.00  0.00    +0.000 A 
ATOM     12  C   UNL     1       3.640   4.026  19.660  0.00  0.00    +0.000 A 
BRANCH   6  14
ATOM     13  N   UNL     1       1.791   2.430  22.194  0.00  0.00    +0.000 NA
ATOM     14  C   UNL     1       2.139   3.241  21.443  0.00  0.00    +0.000 C 
ENDBRANCH   6  14
ENDBRANCH   1  11
BRANCH   4  15
ATOM     15  C   UNL     1       6.504   4.491  14.634  0.00  0.00    +0.000 A 
ATOM     16  C   UNL     1       5.879   3.665  13.704  0.00  0.00    +0.000 A 
ATOM     17  C   UNL     1       6.350   3.657  12.392  0.00  0.00    +0.000 A 
ATOM     18  C   UNL     1       7.417   4.478  12.044  0.00  0.00    +0.000 A 
ATOM     19  C   UNL     1       7.962   5.292  13.021  0.00  0.00    +0.000 A 
ATOM     20  N   UNL     1       7.531   5.318  14.298  0.00  0.00    +0.000 NA
ENDBRANCH   4  15
TORSDOF 3
ENDMDL
MODEL 2
REMARK VINA RESULT:      -8.0      1.983      2.381
REMARK  Name = 
REMARK  3 active torsions:
REMARK  status: ('A' for Active; 'I' for Inactive)
REMARK    1  A    between atoms: C_2  and  C_3
REMARK    2  A    between atoms: C_8  and  N_9
REMARK    3  A    between atoms: C_12  and  C_13
REMARK                            x       y       z     vdW  Elec       q    Type
REMARK                         _______ _______ _______ _____ _____    ______ ____
ROOT
ATOM      1  N   UNL     1       5.021   4.148  17.754  0.00  0.00    +0.000 N 
ATOM      2  N   UNL     1       6.286   4.413  18.148  0.00  0.00    +0.000 NA
ATOM      3  N   UNL     1       7.005   4.491  17.037  0.00  0.00    +0.000 NA
ATOM      4  C   UNL     1       6.148   4.237  15.996  0.00  0.00    +0.000 A 
ATOM      5  N   UNL     1       4.912   3.932  16.421  0.00  0.00    +0.000 NA
ENDROOT
BRANCH   1  11
ATOM      6  C   UNL     1       2.338   5.546  19.911  0.00  0.00    +0.000 A 
ATOM      7  C   UNL     1       1.679   4.395  20.335  0.00  0.00    +0.000 A 
ATOM      8  C   UNL     1       2.101   3.142  19.882  0.00  0.00    +0.000 A 
ATOM      9  C   UNL     1       3.190   3.016  19.005  0.00  0.00    +0.000 A 
ATOM     10 CL   UNL     1       3.587   1.395  18.557  0.00  0.00    +0.000 Cl
ATOM     11  C   UNL     1       3.869   4.167  18.581  0.00  0.00    +0.000 A 
ATOM     12  C   UNL     1       3.424   5.431  19.038  0.00  0.00    +0.000 A 
BRANCH   6  14
ATOM     13  N   UNL     1       1.576   7.875  20.764  0.00  0.00    +0.000 NA
ATOM     14  C   UNL     1       1.914   6.835  20.377  0.00  0.00    +0.000 C 
ENDBRANCH   6  14
ENDBRANCH   1  11
BRANCH   4  15
ATOM     15  C   UNL     1       6.520   4.409  14.592  0.00  0.00    +0.000 A 
ATOM     16  C   UNL     1       5.946   3.618  13.600  0.00  0.00    +0.000 A 
ATOM     17  C   UNL     1       6.439   3.712  12.300  0.00  0.00    +0.000 A 
ATOM     18  C   UNL     1       7.478   4.594  12.025  0.00  0.00    +0.000 A 
ATOM     19  C   UNL     1       7.973   5.366  13.061  0.00  0.00    +0.000 A 
ATOM     20  N   UNL     1       7.520   5.294  14.329  0.00  0.00    +0.000 NA
ENDBRANCH   4  15
TORSDOF 3
ENDMDL
MODEL 3
REMARK VINA RESULT:      -7.6      0.643      1.084
REMARK  Name = 
REMARK  3 active torsions:
REMARK  status: ('A' for Active; 'I' for Inactive)
REMARK    1  A    between atoms: C_2  and  C_3
REMARK    2  A    between atoms: C_8  and  N_9
REMARK    3  A    between atoms: C_12  and  C_13
REMARK                            x       y       z     vdW  Elec       q    Type
REMARK                         _______ _______ _______ _____ _____    ______ ____
ROOT
ATOM      1  N   UNL     1       5.263   4.617  17.829  0.00  0.00    +0.000 N 
ATOM      2  N   UNL     1       6.565   4.584  18.193  0.00  0.00    +0.000 NA
ATOM      3  N   UNL     1       7.252   4.412  17.073  0.00  0.00    +0.000 NA
ATOM      4  C   UNL     1       6.333   4.315  16.059  0.00  0.00    +0.000 A 
ATOM      5  N   UNL     1       5.070   4.352  16.514  0.00  0.00    +0.000 NA
ENDROOT
BRANCH   1  11
ATOM      6  C   UNL     1       2.639   4.242  20.433  0.00  0.00    +0.000 A 
ATOM      7  C   UNL     1       1.946   5.445  20.321  0.00  0.00    +0.000 A 
ATOM      8  C   UNL     1       2.366   6.408  19.399  0.00  0.00    +0.000 A 
ATOM      9  C   UNL     1       3.476   6.185  18.569  0.00  0.00    +0.000 A 
ATOM     10 CL   UNL     1       3.846   7.472  17.478  0.00  0.00    +0.000 Cl
ATOM     11  C   UNL     1       4.173   4.972  18.664  0.00  0.00    +0.000 A 
ATOM     12  C   UNL     1       3.746   4.010  19.611  0.00  0.00    +0.000 A 
BRANCH   6  14
ATOM     13  N   UNL     1       1.872   2.433  22.128  0.00  0.00    +0.000 NA
ATOM     14  C   UNL     1       2.211   3.246  21.373  0.00  0.00    +0.000 C 
ENDBRANCH   6  14
ENDBRANCH   1  11
BRANCH   4  15
ATOM     15  C   UNL     1       6.700   4.302  14.643  0.00  0.00    +0.000 A 
ATOM     16  C   UNL     1       7.626   5.211  14.138  0.00  0.00    +0.000 A 
ATOM     17  C   UNL     1       7.832   5.261  12.761  0.00  0.00    +0.000 A 
ATOM     18  C   UNL     1       7.121   4.401  11.932  0.00  0.00    +0.000 A 
ATOM     19  C   UNL     1       6.242   3.506  12.516  0.00  0.00    +0.000 A 
ATOM     20  N   UNL     1       6.019   3.438  13.843  0.00  0.00    +0.000 NA
ENDBRANCH   4  15
TORSDOF 3
ENDMDL
MODEL 4
REMARK VINA RESULT:      -7.1      1.818      2.175
REMARK  Name = 
REMARK  3 active torsions:
REMARK  status: ('A' for Active; 'I' for Inactive)
REMARK    1  A    between atoms: C_2  and  C_3
REMARK    2  A    between atoms: C_8  and  N_9
REMARK    3  A    between atoms: C_12  and  C_13
REMARK                            x       y       z     vdW  Elec       q    Type
REMARK                         _______ _______ _______ _____ _____    ______ ____
ROOT
ATOM      1  N   UNL     1       4.639   4.645  17.397  0.00  0.00    +0.000 N 
ATOM      2  N   UNL     1       4.585   5.977  17.172  0.00  0.00    +0.000 NA
ATOM      3  N   UNL     1       5.179   6.174  16.004  0.00  0.00    +0.000 NA
ATOM      4  C   UNL     1       5.605   4.945  15.567  0.00  0.00    +0.000 A 
ATOM      5  N   UNL     1       5.358   3.976  16.463  0.00  0.00    +0.000 NA
ENDROOT
BRANCH   1  11
ATOM      6  C   UNL     1       4.174   2.379  20.304  0.00  0.00    +0.000 A 
ATOM      7  C   UNL     1       2.790   2.388  20.459  0.00  0.00    +0.000 A 
ATOM      8  C   UNL     1       1.999   3.175  19.617  0.00  0.00    +0.000 A 
ATOM      9  C   UNL     1       2.573   3.958  18.603  0.00  0.00    +0.000 A 
ATOM     10 CL   UNL     1       1.449   4.856  17.646  0.00  0.00    +0.000 Cl
ATOM     11  C   UNL     1       3.964   3.947  18.430  0.00  0.00    +0.000 A 
ATOM     12  C   UNL     1       4.756   3.156  19.297  0.00  0.00    +0.000 A 
BRANCH   6  14
ATOM     13  N   UNL     1       5.656   0.924  21.860  0.00  0.00    +0.000 NA
ATOM     14  C   UNL     1       4.993   1.570  21.160  0.00  0.00    +0.000 C 
ENDBRANCH   6  14
ENDBRANCH   1  11
BRANCH   4  15
ATOM     15  C   UNL     1       6.147   4.713  14.228  0.00  0.00    +0.000 A 
ATOM     16  C   UNL     1       5.620   3.720  13.408  0.00  0.00    +0.000 A 
ATOM     17  C   UNL     1       6.263   3.434  12.204  0.00  0.00    +0.000 A 
ATOM     18  C   UNL     1       7.400   4.151  11.851  0.00  0.00    +0.000 A 
ATOM     19  C   UNL     1       7.842   5.144  12.708  0.00  0.00    +0.000 A 
ATOM     20  N   UNL     1       7.244   5.439  13.880  0.00  0.00    +0.000 NA
ENDBRANCH   4  15
TORSDOF 3
ENDMDL
MODEL 5
REMARK VINA RESULT:      -7.1      2.081      2.624
REMARK  Name = 
REMARK  3 active torsions:
REMARK  status: ('A' for Active; 'I' for Inactive)
REMARK    1  A    between atoms: C_2  and  C_3
REMARK    2  A    between atoms: C_8  and  N_9
REMARK    3  A    between atoms: C_12  and  C_13
REMARK                            x       y       z     vdW  Elec       q    Type
REMARK                         _______ _______ _______ _____ _____    ______ ____
ROOT
ATOM      1  N   UNL     1       4.931   4.202  17.911  0.00  0.00    +0.000 N 
ATOM      2  N   UNL     1       6.181   4.494  18.335  0.00  0.00    +0.000 NA
ATOM      3  N   UNL     1       6.944   4.485  17.252  0.00  0.00    +0.000 NA
ATOM      4  C   UNL     1       6.129   4.155  16.198  0.00  0.00    +0.000 A 
ATOM      5  N   UNL     1       4.875   3.885  16.595  0.00  0.00    +0.000 NA
ENDROOT
BRANCH   1  11
ATOM      6  C   UNL     1       2.248   5.746  19.965  0.00  0.00    +0.000 A 
ATOM      7  C   UNL     1       1.500   4.634  20.346  0.00  0.00    +0.000 A 
ATOM      8  C   UNL     1       1.862   3.362  19.896  0.00  0.00    +0.000 A 
ATOM      9  C   UNL     1       2.980   3.175  19.067  0.00  0.00    +0.000 A 
ATOM     10 CL   UNL     1       3.294   1.537  18.617  0.00  0.00    +0.000 Cl
ATOM     11  C   UNL     1       3.748   4.286  18.687  0.00  0.00    +0.000 A 
ATOM     12  C   UNL     1       3.362   5.571  19.139  0.00  0.00    +0.000 A 
BRANCH   6  14
ATOM     13  N   UNL     1       1.581   8.110  20.801  0.00  0.00    +0.000 NA
ATOM     14  C   UNL     1       1.885   7.055  20.427  0.00  0.00    +0.000 C 
ENDBRANCH   6  14
ENDBRANCH   1  11
BRANCH   4  15
ATOM     15  C   UNL     1       6.559   4.218  14.802  0.00  0.00    +0.000 A 
ATOM     16  C   UNL     1       7.535   5.124  14.397  0.00  0.00    +0.000 A 
ATOM     17  C   UNL     1       7.804   5.254  13.035  0.00  0.00    +0.000 A 
ATOM     18  C   UNL     1       7.103   4.474  12.123  0.00  0.00    +0.000 A 
ATOM     19  C   UNL     1       6.170   3.576  12.610  0.00  0.00    +0.000 A 
ATOM     20  N   UNL     1       5.885   3.431  13.919  0.00  0.00    +0.000 NA
ENDBRANCH   4  15
TORSDOF 3
ENDMDL
MODEL 6
REMARK VINA RESULT:      -7.1      2.034      2.872
REMARK  Name = 
REMARK  3 active torsions:
REMARK  status: ('A' for Active; 'I' for Inactive)
REMARK    1  A    between atoms: C_2  and  C_3
REMARK    2  A    between atoms: C_8  and  N_9
REMARK    3  A    between atoms: C_12  and  C_13
REMARK                            x       y       z     vdW  Elec       q    Type
REMARK                         _______ _______ _______ _____ _____    ______ ____
ROOT
ATOM      1  N   UNL     1       5.357   4.691  17.605  0.00  0.00    +0.000 N 
ATOM      2  N   UNL     1       6.662   4.703  17.958  0.00  0.00    +0.000 NA
ATOM      3  N   UNL     1       7.344   4.529  16.835  0.00  0.00    +0.000 NA
ATOM      4  C   UNL     1       6.421   4.386  15.831  0.00  0.00    +0.000 A 
ATOM      5  N   UNL     1       5.161   4.396  16.296  0.00  0.00    +0.000 NA
ENDROOT
BRANCH   1  11
ATOM      6  C   UNL     1       2.633   6.752  19.067  0.00  0.00    +0.000 A 
ATOM      7  C   UNL     1       2.169   5.931  20.093  0.00  0.00    +0.000 A 
ATOM      8  C   UNL     1       2.736   4.669  20.287  0.00  0.00    +0.000 A 
ATOM      9  C   UNL     1       3.780   4.207  19.470  0.00  0.00    +0.000 A 
ATOM     10 CL   UNL     1       4.375   2.633  19.858  0.00  0.00    +0.000 Cl
ATOM     11  C   UNL     1       4.264   5.030  18.442  0.00  0.00    +0.000 A 
ATOM     12  C   UNL     1       3.672   6.301  18.248  0.00  0.00    +0.000 A 
BRANCH   6  14
ATOM     13  N   UNL     1       1.589   9.100  18.711  0.00  0.00    +0.000 NA
ATOM     14  C   UNL     1       2.059   8.051  18.865  0.00  0.00    +0.000 C 
ENDBRANCH   6  14
ENDBRANCH   1  11
BRANCH   4  15
ATOM     15  C   UNL     1       6.776   4.357  14.412  0.00  0.00    +0.000 A 
ATOM     16  C   UNL     1       7.654   5.296  13.878  0.00  0.00    +0.000 A 
ATOM     17  C   UNL     1       7.847   5.323  12.497  0.00  0.00    +0.000 A 
ATOM     18  C   UNL     1       7.170   4.411  11.695  0.00  0.00    +0.000 A 
ATOM     19  C   UNL     1       6.339   3.490  12.308  0.00  0.00    +0.000 A 
ATOM     20  N   UNL     1       6.130   3.442  13.639  0.00  0.00    +0.000 NA
ENDBRANCH   4  15
TORSDOF 3
ENDMDL
MODEL 7
REMARK VINA RESULT:      -6.9      4.168      8.085
REMARK  Name = 
REMARK  3 active torsions:
REMARK  status: ('A' for Active; 'I' for Inactive)
REMARK    1  A    between atoms: C_2  and  C_3
REMARK    2  A    between atoms: C_8  and  N_9
REMARK    3  A    between atoms: C_12  and  C_13
REMARK                            x       y       z     vdW  Elec       q    Type
REMARK                         _______ _______ _______ _____ _____    ______ ____
ROOT
ATOM      1  N   UNL     1       2.339   6.867  19.470  0.00  0.00    +0.000 N 
ATOM      2  N   UNL     1       2.375   7.795  18.487  0.00  0.00    +0.000 NA
ATOM      3  N   UNL     1       1.721   8.847  18.955  0.00  0.00    +0.000 NA
ATOM      4  C   UNL     1       1.279   8.510  20.210  0.00  0.00    +0.000 A 
ATOM      5  N   UNL     1       1.577   7.239  20.526  0.00  0.00    +0.000 NA
ENDROOT
BRANCH   1  11
ATOM      6  C   UNL     1       5.189   4.537  18.969  0.00  0.00    +0.000 A 
ATOM      7  C   UNL     1       4.636   3.317  19.353  0.00  0.00    +0.000 A 
ATOM      8  C   UNL     1       3.318   3.263  19.813  0.00  0.00    +0.000 A 
ATOM      9  C   UNL     1       2.527   4.421  19.891  0.00  0.00    +0.000 A 
ATOM     10 CL   UNL     1       0.918   4.172  20.467  0.00  0.00    +0.000 Cl
ATOM     11  C   UNL     1       3.070   5.652  19.495  0.00  0.00    +0.000 A 
ATOM     12  C   UNL     1       4.410   5.695  19.043  0.00  0.00    +0.000 A 
BRANCH   6  14
ATOM     13  N   UNL     1       7.631   4.662  18.100  0.00  0.00    +0.000 NA
ATOM     14  C   UNL     1       6.541   4.600  18.489  0.00  0.00    +0.000 C 
ENDBRANCH   6  14
ENDBRANCH   1  11
BRANCH   4  15
ATOM     15  C   UNL     1       0.670   9.469  21.130  0.00  0.00    +0.000 A 
ATOM     16  C   UNL     1       0.177   9.058  22.366  0.00  0.00    +0.000 A 
ATOM     17  C   UNL     1      -0.528   9.975  23.144  0.00  0.00    +0.000 A 
ATOM     18  C   UNL     1      -0.711  11.271  22.675  0.00  0.00    +0.000 A 
ATOM     19  C   UNL     1      -0.162  11.608  21.450  0.00  0.00    +0.000 A 
ATOM     20  N   UNL     1       0.520  10.743  20.674  0.00  0.00    +0.000 NA
ENDBRANCH   4  15
TORSDOF 3
ENDMDL
MODEL 8
REMARK VINA RESULT:      -6.9      1.966      7.108
REMARK  Name = 
REMARK  3 active torsions:
REMARK  status: ('A' for Active; 'I' for Inactive)
REMARK    1  A    between atoms: C_2  and  C_3
REMARK    2  A    between atoms: C_8  and  N_9
REMARK    3  A    between atoms: C_12  and  C_13
REMARK                            x       y       z     vdW  Elec       q    Type
REMARK                         _______ _______ _______ _____ _____    ______ ____
ROOT
ATOM      1  N   UNL     1       4.500   5.165  16.733  0.00  0.00    +0.000 N 
ATOM      2  N   UNL     1       4.158   6.321  17.346  0.00  0.00    +0.000 NA
ATOM      3  N   UNL     1       3.388   5.976  18.368  0.00  0.00    +0.000 NA
ATOM      4  C   UNL     1       3.262   4.611  18.324  0.00  0.00    +0.000 A 
ATOM      5  N   UNL     1       3.878   4.080  17.255  0.00  0.00    +0.000 NA
ENDROOT
BRANCH   1  11
ATOM      6  C   UNL     1       6.005   3.999  13.543  0.00  0.00    +0.000 A 
ATOM      7  C   UNL     1       7.294   4.519  13.624  0.00  0.00    +0.000 A 
ATOM      8  C   UNL     1       7.666   5.292  14.727  0.00  0.00    +0.000 A 
ATOM      9  C   UNL     1       6.763   5.552  15.771  0.00  0.00    +0.000 A 
ATOM     10 CL   UNL     1       7.391   6.510  17.063  0.00  0.00    +0.000 Cl
ATOM     11  C   UNL     1       5.466   5.022  15.705  0.00  0.00    +0.000 A 
ATOM     12  C   UNL     1       5.098   4.251  14.576  0.00  0.00    +0.000 A 
BRANCH   6  14
ATOM     13  N   UNL     1       5.295   2.560  11.504  0.00  0.00    +0.000 NA
ATOM     14  C   UNL     1       5.618   3.199  12.416  0.00  0.00    +0.000 C 
ENDBRANCH   6  14
ENDBRANCH   1  11
BRANCH   4  15
ATOM     15  C   UNL     1       2.638   3.828  19.390  0.00  0.00    +0.000 A 
ATOM     16  C   UNL     1       1.259   3.848  19.575  0.00  0.00    +0.000 A 
ATOM     17  C   UNL     1       0.723   3.210  20.693  0.00  0.00    +0.000 A 
ATOM     18  C   UNL     1       1.574   2.564  21.583  0.00  0.00    +0.000 A 
ATOM     19  C   UNL     1       2.930   2.564  21.311  0.00  0.00    +0.000 A 
ATOM     20  N   UNL     1       3.477   3.177  20.241  0.00  0.00    +0.000 NA
ENDBRANCH   4  15
TORSDOF 3
ENDMDL
MODEL 9
REMARK VINA RESULT:      -6.9      3.931      8.055
REMARK  Name = 
REMARK  3 active torsions:
REMARK  status: ('A' for Active; 'I' for Inactive)
REMARK    1  A    between atoms: C_2  and  C_3
REMARK    2  A    between atoms: C_8  and  N_9
REMARK    3  A    between atoms: C_12  and  C_13
REMARK                            x       y       z     vdW  Elec       q    Type
REMARK                         _______ _______ _______ _____ _____    ______ ____
ROOT
ATOM      1  N   UNL     1       2.545   7.369  18.209  0.00  0.00    +0.000 N 
ATOM      2  N   UNL     1       2.448   8.495  17.466  0.00  0.00    +0.000 NA
ATOM      3  N   UNL     1       1.801   9.373  18.218  0.00  0.00    +0.000 NA
ATOM      4  C   UNL     1       1.496   8.735  19.395  0.00  0.00    +0.000 A 
ATOM      5  N   UNL     1       1.874   7.447  19.384  0.00  0.00    +0.000 NA
ENDROOT
BRANCH   1  11
ATOM      6  C   UNL     1       5.356   5.380  16.814  0.00  0.00    +0.000 A 
ATOM      7  C   UNL     1       4.941   4.075  17.069  0.00  0.00    +0.000 A 
ATOM      8  C   UNL     1       3.736   3.844  17.738  0.00  0.00    +0.000 A 
ATOM      9  C   UNL     1       2.921   4.909  18.155  0.00  0.00    +0.000 A 
ATOM     10 CL   UNL     1       1.460   4.445  18.953  0.00  0.00    +0.000 Cl
ATOM     11  C   UNL     1       3.323   6.227  17.893  0.00  0.00    +0.000 A 
ATOM     12  C   UNL     1       4.552   6.447  17.226  0.00  0.00    +0.000 A 
BRANCH   6  14
ATOM     13  N   UNL     1       7.586   5.834  15.567  0.00  0.00    +0.000 NA
ATOM     14  C   UNL     1       6.590   5.625  16.123  0.00  0.00    +0.000 C 
ENDBRANCH   6  14
ENDBRANCH   1  11
BRANCH   4  15
ATOM     15  C   UNL     1       0.942   9.424  20.559  0.00  0.00    +0.000 A 
ATOM     16  C   UNL     1       0.723   8.742  21.753  0.00  0.00    +0.000 A 
ATOM     17  C   UNL     1       0.055   9.398  22.786  0.00  0.00    +0.000 A 
ATOM     18  C   UNL     1      -0.364  10.712  22.603  0.00  0.00    +0.000 A 
ATOM     19  C   UNL     1      -0.080  11.328  21.397  0.00  0.00    +0.000 A 
ATOM     20  N   UNL     1       0.560  10.718  20.379  0.00  0.00    +0.000 NA
ENDBRANCH   4  15
TORSDOF 3
ENDMDL
