MODEL 1
REMARK VINA RESULT:      -8.3      0.000      0.000
REMARK  Name = 
REMARK  5 active torsions:
REMARK  status: ('A' for Active; 'I' for Inactive)
REMARK    1  A    between atoms: C_2  and  C_3
REMARK    2  A    between atoms: C_7  and  C_8
REMARK    3  A    between atoms: C_20  and  C_21
REMARK    4  A    between atoms: C_24  and  O_25
REMARK    5  A    between atoms: O_25  and  C_26
REMARK                            x       y       z     vdW  Elec       q    Type
REMARK                         _______ _______ _______ _____ _____    ______ ____
ROOT
ATOM      1  O   UNL     1      -6.604  15.169  20.966  0.00  0.00    +0.000 OA
ATOM      2  C   UNL     1      -6.419  14.124  21.587  0.00  0.00    +0.000 C 
ATOM      3  N   UNL     1      -6.118  14.106  22.957  0.00  0.00    +0.000 N 
ATOM      4  C   UNL     1      -6.215  15.358  23.708  0.00  0.00    +0.000 C 
ATOM      5  C   UNL     1      -4.866  16.051  23.904  0.00  0.00    +0.000 C 
ATOM      6  O   UNL     1      -4.021  15.314  24.807  0.00  0.00    +0.000 OA
ATOM      7  C   UNL     1      -3.280  14.384  24.127  0.00  0.00    +0.000 A 
ATOM      8  C   UNL     1      -1.905  14.561  24.105  0.00  0.00    +0.000 A 
ATOM      9  C   UNL     1      -1.100  13.661  23.404  0.00  0.00    +0.000 A 
ATOM     10  C   UNL     1      -1.649  12.567  22.708  0.00  0.00    +0.000 A 
ATOM     11  C   UNL     1      -3.045  12.387  22.792  0.00  0.00    +0.000 A 
ATOM     12  C   UNL     1      -3.868  13.278  23.509  0.00  0.00    +0.000 A 
ATOM     13  C   UNL     1      -5.355  13.040  23.610  0.00  0.00    +0.000 C 
ENDROOT
BRANCH   2  14
ATOM     14  C   UNL     1      -6.570  12.827  20.849  0.00  0.00    +0.000 A 
ATOM     15  C   UNL     1      -7.561  11.927  21.209  0.00  0.00    +0.000 A 
ATOM     16  C   UNL     1      -7.649  10.727  20.504  0.00  0.00    +0.000 A 
ATOM     17  C   UNL     1      -6.743  10.462  19.475  0.00  0.00    +0.000 A 
ATOM     18  C   UNL     1      -5.751  11.398  19.187  0.00  0.00    +0.000 A 
ATOM     19  N   UNL     1      -5.657  12.566  19.878  0.00  0.00    +0.000 NA
BRANCH  18  20
ATOM     20  C   UNL     1      -4.754  11.159  18.063  0.00  0.00    +0.000 C 
ATOM     21  F   UNL     1      -4.275   9.882  18.021  0.00  0.00    +0.000 F 
ATOM     22  F   UNL     1      -5.296  11.386  16.830  0.00  0.00    +0.000 F 
ATOM     23  F   UNL     1      -3.656  11.962  18.143  0.00  0.00    +0.000 F 
ENDBRANCH  18  20
ENDBRANCH   2  14
BRANCH  10  24
ATOM     24  C   UNL     1      -0.789  11.673  21.893  0.00  0.00    +0.000 A 
ATOM     25  C   UNL     1      -0.664  10.300  22.156  0.00  0.00    +0.000 A 
ATOM     26  C   UNL     1       0.109   9.471  21.333  0.00  0.00    +0.000 A 
ATOM     27  C   UNL     1       0.787   9.991  20.228  0.00  0.00    +0.000 A 
ATOM     28  C   UNL     1       0.737  11.358  19.997  0.00  0.00    +0.000 A 
ATOM     29  C   UNL     1      -0.065  12.177  20.798  0.00  0.00    +0.000 A 
BRANCH  27  30
ATOM     30  O   UNL     1       1.496   9.087  19.502  0.00  0.00    +0.000 OA
BRANCH  30  31
ATOM     31  C   UNL     1       1.465   9.154  18.082  0.00  0.00    +0.000 C 
ATOM     32  F   UNL     1       2.249  10.113  17.545  0.00  0.00    +0.000 F 
ATOM     33  F   UNL     1       1.835   7.958  17.571  0.00  0.00    +0.000 F 
ATOM     34  F   UNL     1       0.193   9.401  17.693  0.00  0.00    +0.000 F 
ENDBRANCH  30  31
ENDBRANCH  27  30
ENDBRANCH  10  24
TORSDOF 5
ENDMDL
MODEL 2
REMARK VINA RESULT:      -8.0      0.240      1.096
REMARK  Name = 
REMARK  5 active torsions:
REMARK  status: ('A' for Active; 'I' for Inactive)
REMARK    1  A    between atoms: C_2  and  C_3
REMARK    2  A    between atoms: C_7  and  C_8
REMARK    3  A    between atoms: C_20  and  C_21
REMARK    4  A    between atoms: C_24  and  O_25
REMARK    5  A    between atoms: O_25  and  C_26
REMARK                            x       y       z     vdW  Elec       q    Type
REMARK                         _______ _______ _______ _____ _____    ______ ____
ROOT
ATOM      1  O   UNL     1      -6.442  15.417  21.106  0.00  0.00    +0.000 OA
ATOM      2  C   UNL     1      -6.291  14.350  21.698  0.00  0.00    +0.000 C 
ATOM      3  N   UNL     1      -5.965  14.285  23.061  0.00  0.00    +0.000 N 
ATOM      4  C   UNL     1      -5.991  15.521  23.843  0.00  0.00    +0.000 C 
ATOM      5  C   UNL     1      -4.609  16.150  24.027  0.00  0.00    +0.000 C 
ATOM      6  O   UNL     1      -3.780  15.354  24.894  0.00  0.00    +0.000 OA
ATOM      7  C   UNL     1      -3.094  14.409  24.178  0.00  0.00    +0.000 A 
ATOM      8  C   UNL     1      -1.713  14.526  24.131  0.00  0.00    +0.000 A 
ATOM      9  C   UNL     1      -0.963  13.609  23.392  0.00  0.00    +0.000 A 
ATOM     10  C   UNL     1      -1.574  12.558  22.682  0.00  0.00    +0.000 A 
ATOM     11  C   UNL     1      -2.975  12.438  22.791  0.00  0.00    +0.000 A 
ATOM     12  C   UNL     1      -3.743  13.346  23.546  0.00  0.00    +0.000 A 
ATOM     13  C   UNL     1      -5.237  13.171  23.672  0.00  0.00    +0.000 C 
ENDROOT
BRANCH   2  14
ATOM     14  C   UNL     1      -6.514  13.079  20.933  0.00  0.00    +0.000 A 
ATOM     15  C   UNL     1      -7.596  12.263  21.229  0.00  0.00    +0.000 A 
ATOM     16  C   UNL     1      -7.750  11.084  20.502  0.00  0.00    +0.000 A 
ATOM     17  C   UNL     1      -6.818  10.753  19.516  0.00  0.00    +0.000 A 
ATOM     18  C   UNL     1      -5.737  11.603  19.292  0.00  0.00    +0.000 A 
ATOM     19  N   UNL     1      -5.579  12.751  20.006  0.00  0.00    +0.000 NA
BRANCH  18  20
ATOM     20  C   UNL     1      -4.707  11.292  18.216  0.00  0.00    +0.000 C 
ATOM     21  F   UNL     1      -5.016  11.823  16.997  0.00  0.00    +0.000 F 
ATOM     22  F   UNL     1      -3.470  11.782  18.524  0.00  0.00    +0.000 F 
ATOM     23  F   UNL     1      -4.540   9.957  18.006  0.00  0.00    +0.000 F 
ENDBRANCH  18  20
ENDBRANCH   2  14
BRANCH  10  24
ATOM     24  C   UNL     1      -0.771  11.647  21.829  0.00  0.00    +0.000 A 
ATOM     25  C   UNL     1      -0.047  12.098  20.715  0.00  0.00    +0.000 A 
ATOM     26  C   UNL     1       0.749  11.223  19.963  0.00  0.00    +0.000 A 
ATOM     27  C   UNL     1       0.838   9.871  20.299  0.00  0.00    +0.000 A 
ATOM     28  C   UNL     1       0.071   9.391  21.350  0.00  0.00    +0.000 A 
ATOM     29  C   UNL     1      -0.694  10.274  22.120  0.00  0.00    +0.000 A 
BRANCH  27  30
ATOM     30  O   UNL     1       1.648   9.125  19.501  0.00  0.00    +0.000 OA
BRANCH  30  31
ATOM     31  C   UNL     1       1.477   9.175  18.091  0.00  0.00    +0.000 C 
ATOM     32  F   UNL     1       2.191  10.138  17.470  0.00  0.00    +0.000 F 
ATOM     33  F   UNL     1       1.811   7.979  17.558  0.00  0.00    +0.000 F 
ATOM     34  F   UNL     1       0.170   9.402  17.826  0.00  0.00    +0.000 F 
ENDBRANCH  30  31
ENDBRANCH  27  30
ENDBRANCH  10  24
TORSDOF 5
ENDMDL
MODEL 3
REMARK VINA RESULT:      -7.8      1.060      1.572
REMARK  Name = 
REMARK  5 active torsions:
REMARK  status: ('A' for Active; 'I' for Inactive)
REMARK    1  A    between atoms: C_2  and  C_3
REMARK    2  A    between atoms: C_7  and  C_8
REMARK    3  A    between atoms: C_20  and  C_21
REMARK    4  A    between atoms: C_24  and  O_25
REMARK    5  A    between atoms: O_25  and  C_26
REMARK                            x       y       z     vdW  Elec       q    Type
REMARK                         _______ _______ _______ _____ _____    ______ ____
ROOT
ATOM      1  O   UNL     1      -6.349  15.198  21.093  0.00  0.00    +0.000 OA
ATOM      2  C   UNL     1      -6.018  14.100  21.538  0.00  0.00    +0.000 C 
ATOM      3  N   UNL     1      -5.500  13.938  22.831  0.00  0.00    +0.000 N 
ATOM      4  C   UNL     1      -5.532  15.082  23.743  0.00  0.00    +0.000 C 
ATOM      5  C   UNL     1      -4.202  15.834  23.816  0.00  0.00    +0.000 C 
ATOM      6  O   UNL     1      -3.190  15.051  24.476  0.00  0.00    +0.000 OA
ATOM      7  C   UNL     1      -2.526  14.260  23.576  0.00  0.00    +0.000 A 
ATOM      8  C   UNL     1      -1.182  14.529  23.365  0.00  0.00    +0.000 A 
ATOM      9  C   UNL     1      -0.460  13.775  22.438  0.00  0.00    +0.000 A 
ATOM     10  C   UNL     1      -1.063  12.739  21.700  0.00  0.00    +0.000 A 
ATOM     11  C   UNL     1      -2.417  12.458  21.974  0.00  0.00    +0.000 A 
ATOM     12  C   UNL     1      -3.154  13.200  22.919  0.00  0.00    +0.000 A 
ATOM     13  C   UNL     1      -4.593  12.854  23.216  0.00  0.00    +0.000 C 
ENDROOT
BRANCH   2  14
ATOM     14  C   UNL     1      -6.226  12.894  20.671  0.00  0.00    +0.000 A 
ATOM     15  C   UNL     1      -7.320  12.066  20.873  0.00  0.00    +0.000 A 
ATOM     16  C   UNL     1      -7.458  10.947  20.053  0.00  0.00    +0.000 A 
ATOM     17  C   UNL     1      -6.501  10.687  19.070  0.00  0.00    +0.000 A 
ATOM     18  C   UNL     1      -5.410  11.544  18.943  0.00  0.00    +0.000 A 
ATOM     19  N   UNL     1      -5.266  12.632  19.747  0.00  0.00    +0.000 NA
BRANCH  18  20
ATOM     20  C   UNL     1      -4.352  11.310  17.875  0.00  0.00    +0.000 C 
ATOM     21  F   UNL     1      -4.709  11.775  16.643  0.00  0.00    +0.000 F 
ATOM     22  F   UNL     1      -3.170  11.928  18.170  0.00  0.00    +0.000 F 
ATOM     23  F   UNL     1      -4.053   9.992  17.699  0.00  0.00    +0.000 F 
ENDBRANCH  18  20
ENDBRANCH   2  14
BRANCH  10  24
ATOM     24  C   UNL     1      -0.306  12.007  20.654  0.00  0.00    +0.000 A 
ATOM     25  C   UNL     1       0.926  12.460  20.158  0.00  0.00    +0.000 A 
ATOM     26  C   UNL     1       1.646  11.717  19.213  0.00  0.00    +0.000 A 
ATOM     27  C   UNL     1       1.152  10.504  18.731  0.00  0.00    +0.000 A 
ATOM     28  C   UNL     1      -0.099  10.077  19.152  0.00  0.00    +0.000 A 
ATOM     29  C   UNL     1      -0.798  10.802  20.122  0.00  0.00    +0.000 A 
BRANCH  27  30
ATOM     30  O   UNL     1       1.944   9.871  17.825  0.00  0.00    +0.000 OA
BRANCH  30  31
ATOM     31  C   UNL     1       2.203   8.481  17.974  0.00  0.00    +0.000 C 
ATOM     32  F   UNL     1       1.268   7.672  17.433  0.00  0.00    +0.000 F 
ATOM     33  F   UNL     1       3.401   8.189  17.420  0.00  0.00    +0.000 F 
ATOM     34  F   UNL     1       2.272   8.198  19.296  0.00  0.00    +0.000 F 
ENDBRANCH  30  31
ENDBRANCH  27  30
ENDBRANCH  10  24
TORSDOF 5
ENDMDL
MODEL 4
REMARK VINA RESULT:      -7.8      1.537      1.836
REMARK  Name = 
REMARK  5 active torsions:
REMARK  status: ('A' for Active; 'I' for Inactive)
REMARK    1  A    between atoms: C_2  and  C_3
REMARK    2  A    between atoms: C_7  and  C_8
REMARK    3  A    between atoms: C_20  and  C_21
REMARK    4  A    between atoms: C_24  and  O_25
REMARK    5  A    between atoms: O_25  and  C_26
REMARK                            x       y       z     vdW  Elec       q    Type
REMARK                         _______ _______ _______ _____ _____    ______ ____
ROOT
ATOM      1  O   UNL     1      -6.046  15.210  19.335  0.00  0.00    +0.000 OA
ATOM      2  C   UNL     1      -6.155  14.194  20.017  0.00  0.00    +0.000 C 
ATOM      3  N   UNL     1      -6.431  14.237  21.392  0.00  0.00    +0.000 N 
ATOM      4  C   UNL     1      -6.786  15.524  21.991  0.00  0.00    +0.000 C 
ATOM      5  C   UNL     1      -5.611  16.212  22.686  0.00  0.00    +0.000 C 
ATOM      6  O   UNL     1      -5.221  15.510  23.881  0.00  0.00    +0.000 OA
ATOM      7  C   UNL     1      -4.296  14.542  23.594  0.00  0.00    +0.000 A 
ATOM      8  C   UNL     1      -3.023  14.704  24.121  0.00  0.00    +0.000 A 
ATOM      9  C   UNL     1      -2.030  13.764  23.838  0.00  0.00    +0.000 A 
ATOM     10  C   UNL     1      -2.283  12.645  23.023  0.00  0.00    +0.000 A 
ATOM     11  C   UNL     1      -3.599  12.483  22.545  0.00  0.00    +0.000 A 
ATOM     12  C   UNL     1      -4.616  13.414  22.835  0.00  0.00    +0.000 A 
ATOM     13  C   UNL     1      -6.024  13.196  22.338  0.00  0.00    +0.000 C 
ENDROOT
BRANCH   2  14
ATOM     14  C   UNL     1      -6.033  12.865  19.332  0.00  0.00    +0.000 A 
ATOM     15  C   UNL     1      -7.156  12.079  19.122  0.00  0.00    +0.000 A 
ATOM     16  C   UNL     1      -6.987  10.844  18.497  0.00  0.00    +0.000 A 
ATOM     17  C   UNL     1      -5.710  10.432  18.114  0.00  0.00    +0.000 A 
ATOM     18  C   UNL     1      -4.621  11.258  18.385  0.00  0.00    +0.000 A 
ATOM     19  N   UNL     1      -4.780  12.460  19.002  0.00  0.00    +0.000 NA
BRANCH  18  20
ATOM     20  C   UNL     1      -3.213  10.858  17.970  0.00  0.00    +0.000 C 
ATOM     21  F   UNL     1      -2.304  10.930  18.985  0.00  0.00    +0.000 F 
ATOM     22  F   UNL     1      -3.151   9.571  17.516  0.00  0.00    +0.000 F 
ATOM     23  F   UNL     1      -2.710  11.633  16.969  0.00  0.00    +0.000 F 
ENDBRANCH  18  20
ENDBRANCH   2  14
BRANCH  10  24
ATOM     24  C   UNL     1      -1.194  11.705  22.659  0.00  0.00    +0.000 A 
ATOM     25  C   UNL     1      -1.003  10.479  23.315  0.00  0.00    +0.000 A 
ATOM     26  C   UNL     1      -0.002   9.586  22.910  0.00  0.00    +0.000 A 
ATOM     27  C   UNL     1       0.843   9.896  21.843  0.00  0.00    +0.000 A 
ATOM     28  C   UNL     1       0.720  11.136  21.231  0.00  0.00    +0.000 A 
ATOM     29  C   UNL     1      -0.303  12.009  21.614  0.00  0.00    +0.000 A 
BRANCH  27  30
ATOM     30  O   UNL     1       1.768   8.949  21.538  0.00  0.00    +0.000 OA
BRANCH  30  31
ATOM     31  C   UNL     1       1.495   8.013  20.502  0.00  0.00    +0.000 C 
ATOM     32  F   UNL     1       2.537   7.224  20.165  0.00  0.00    +0.000 F 
ATOM     33  F   UNL     1       0.461   7.227  20.874  0.00  0.00    +0.000 F 
ATOM     34  F   UNL     1       1.125   8.697  19.395  0.00  0.00    +0.000 F 
ENDBRANCH  30  31
ENDBRANCH  27  30
ENDBRANCH  10  24
TORSDOF 5
ENDMDL
MODEL 5
REMARK VINA RESULT:      -7.7      0.725      1.345
REMARK  Name = 
REMARK  5 active torsions:
REMARK  status: ('A' for Active; 'I' for Inactive)
REMARK    1  A    between atoms: C_2  and  C_3
REMARK    2  A    between atoms: C_7  and  C_8
REMARK    3  A    between atoms: C_20  and  C_21
REMARK    4  A    between atoms: C_24  and  O_25
REMARK    5  A    between atoms: O_25  and  C_26
REMARK                            x       y       z     vdW  Elec       q    Type
REMARK                         _______ _______ _______ _____ _____    ______ ____
ROOT
ATOM      1  O   UNL     1      -6.028  15.285  20.452  0.00  0.00    +0.000 OA
ATOM      2  C   UNL     1      -5.974  14.235  21.090  0.00  0.00    +0.000 C 
ATOM      3  N   UNL     1      -5.718  14.205  22.469  0.00  0.00    +0.000 N 
ATOM      4  C   UNL     1      -5.702  15.471  23.202  0.00  0.00    +0.000 C 
ATOM      5  C   UNL     1      -4.293  16.019  23.432  0.00  0.00    +0.000 C 
ATOM      6  O   UNL     1      -3.559  15.209  24.369  0.00  0.00    +0.000 OA
ATOM      7  C   UNL     1      -2.902  14.195  23.723  0.00  0.00    +0.000 A 
ATOM      8  C   UNL     1      -1.515  14.224  23.741  0.00  0.00    +0.000 A 
ATOM      9  C   UNL     1      -0.792  13.233  23.075  0.00  0.00    +0.000 A 
ATOM     10  C   UNL     1      -1.434  12.195  22.375  0.00  0.00    +0.000 A 
ATOM     11  C   UNL     1      -2.842  12.166  22.418  0.00  0.00    +0.000 A 
ATOM     12  C   UNL     1      -3.586  13.150  23.099  0.00  0.00    +0.000 A 
ATOM     13  C   UNL     1      -5.093  13.073  23.157  0.00  0.00    +0.000 C 
ENDROOT
BRANCH   2  14
ATOM     14  C   UNL     1      -6.241  12.951  20.362  0.00  0.00    +0.000 A 
ATOM     15  C   UNL     1      -7.362  12.193  20.666  0.00  0.00    +0.000 A 
ATOM     16  C   UNL     1      -7.556  10.998  19.975  0.00  0.00    +0.000 A 
ATOM     17  C   UNL     1      -6.625  10.596  19.015  0.00  0.00    +0.000 A 
ATOM     18  C   UNL     1      -5.505  11.391  18.781  0.00  0.00    +0.000 A 
ATOM     19  N   UNL     1      -5.307  12.553  19.460  0.00  0.00    +0.000 NA
BRANCH  18  20
ATOM     20  C   UNL     1      -4.474  11.001  17.733  0.00  0.00    +0.000 C 
ATOM     21  F   UNL     1      -3.311  11.710  17.822  0.00  0.00    +0.000 F 
ATOM     22  F   UNL     1      -4.109   9.688  17.825  0.00  0.00    +0.000 F 
ATOM     23  F   UNL     1      -4.916  11.179  16.456  0.00  0.00    +0.000 F 
ENDBRANCH  18  20
ENDBRANCH   2  14
BRANCH  10  24
ATOM     24  C   UNL     1      -0.651  11.202  21.598  0.00  0.00    +0.000 A 
ATOM     25  C   UNL     1      -0.769  11.069  20.206  0.00  0.00    +0.000 A 
ATOM     26  C   UNL     1       0.027  10.163  19.492  0.00  0.00    +0.000 A 
ATOM     27  C   UNL     1       0.959   9.358  20.150  0.00  0.00    +0.000 A 
ATOM     28  C   UNL     1       1.037   9.421  21.534  0.00  0.00    +0.000 A 
ATOM     29  C   UNL     1       0.267  10.352  22.239  0.00  0.00    +0.000 A 
BRANCH  27  30
ATOM     30  O   UNL     1       1.677   8.527  19.350  0.00  0.00    +0.000 OA
BRANCH  30  31
ATOM     31  C   UNL     1       1.968   8.920  18.015  0.00  0.00    +0.000 C 
ATOM     32  F   UNL     1       0.916   8.871  17.171  0.00  0.00    +0.000 F 
ATOM     33  F   UNL     1       2.460  10.179  18.019  0.00  0.00    +0.000 F 
ATOM     34  F   UNL     1       2.923   8.097  17.525  0.00  0.00    +0.000 F 
ENDBRANCH  30  31
ENDBRANCH  27  30
ENDBRANCH  10  24
TORSDOF 5
ENDMDL
MODEL 6
REMARK VINA RESULT:      -7.3      6.555     11.198
REMARK  Name = 
REMARK  5 active torsions:
REMARK  status: ('A' for Active; 'I' for Inactive)
REMARK    1  A    between atoms: C_2  and  C_3
REMARK    2  A    between atoms: C_7  and  C_8
REMARK    3  A    between atoms: C_20  and  C_21
REMARK    4  A    between atoms: C_24  and  O_25
REMARK    5  A    between atoms: O_25  and  C_26
REMARK                            x       y       z     vdW  Elec       q    Type
REMARK                         _______ _______ _______ _____ _____    ______ ____
ROOT
ATOM      1  O   UNL     1       2.408   5.646  20.431  0.00  0.00    +0.000 OA
ATOM      2  C   UNL     1       2.634   6.122  19.320  0.00  0.00    +0.000 C 
ATOM      3  N   UNL     1       3.209   5.371  18.284  0.00  0.00    +0.000 N 
ATOM      4  C   UNL     1       3.369   3.929  18.474  0.00  0.00    +0.000 C 
ATOM      5  C   UNL     1       4.781   3.531  18.908  0.00  0.00    +0.000 C 
ATOM      6  O   UNL     1       5.732   3.723  17.846  0.00  0.00    +0.000 OA
ATOM      7  C   UNL     1       6.240   4.995  17.874  0.00  0.00    +0.000 A 
ATOM      8  C   UNL     1       7.591   5.133  18.157  0.00  0.00    +0.000 A 
ATOM      9  C   UNL     1       8.159   6.406  18.228  0.00  0.00    +0.000 A 
ATOM     10  C   UNL     1       7.392   7.568  18.021  0.00  0.00    +0.000 A 
ATOM     11  C   UNL     1       6.034   7.392  17.686  0.00  0.00    +0.000 A 
ATOM     12  C   UNL     1       5.451   6.112  17.595  0.00  0.00    +0.000 A 
ATOM     13  C   UNL     1       4.003   5.953  17.200  0.00  0.00    +0.000 C 
ENDROOT
BRANCH   2  14
ATOM     14  C   UNL     1       2.230   7.544  19.063  0.00  0.00    +0.000 A 
ATOM     15  C   UNL     1       2.516   8.145  17.847  0.00  0.00    +0.000 A 
ATOM     16  C   UNL     1       2.137   9.473  17.664  0.00  0.00    +0.000 A 
ATOM     17  C   UNL     1       1.497  10.158  18.699  0.00  0.00    +0.000 A 
ATOM     18  C   UNL     1       1.269   9.503  19.907  0.00  0.00    +0.000 A 
ATOM     19  N   UNL     1       1.645   8.208  20.093  0.00  0.00    +0.000 NA
BRANCH  18  20
ATOM     20  C   UNL     1       0.559  10.203  21.056  0.00  0.00    +0.000 C 
ATOM     21  F   UNL     1       1.018  11.467  21.290  0.00  0.00    +0.000 F 
ATOM     22  F   UNL     1      -0.782  10.338  20.834  0.00  0.00    +0.000 F 
ATOM     23  F   UNL     1       0.679   9.542  22.241  0.00  0.00    +0.000 F 
ENDBRANCH  18  20
ENDBRANCH   2  14
BRANCH  10  24
ATOM     24  C   UNL     1       7.991   8.916  18.190  0.00  0.00    +0.000 A 
ATOM     25  C   UNL     1       8.957   9.197  19.168  0.00  0.00    +0.000 A 
ATOM     26  C   UNL     1       9.546  10.464  19.264  0.00  0.00    +0.000 A 
ATOM     27  C   UNL     1       9.183  11.490  18.390  0.00  0.00    +0.000 A 
ATOM     28  C   UNL     1       8.176  11.254  17.465  0.00  0.00    +0.000 A 
ATOM     29  C   UNL     1       7.615   9.978  17.349  0.00  0.00    +0.000 A 
BRANCH  27  30
ATOM     30  O   UNL     1       9.830  12.671  18.576  0.00  0.00    +0.000 OA
BRANCH  30  31
ATOM     31  C   UNL     1      11.056  12.909  17.897  0.00  0.00    +0.000 C 
ATOM     32  F   UNL     1      12.017  13.482  18.653  0.00  0.00    +0.000 F 
ATOM     33  F   UNL     1      11.530  11.742  17.408  0.00  0.00    +0.000 F 
ATOM     34  F   UNL     1      10.813  13.734  16.853  0.00  0.00    +0.000 F 
ENDBRANCH  30  31
ENDBRANCH  27  30
ENDBRANCH  10  24
TORSDOF 5
ENDMDL
MODEL 7
REMARK VINA RESULT:      -7.3      0.933      1.531
REMARK  Name = 
REMARK  5 active torsions:
REMARK  status: ('A' for Active; 'I' for Inactive)
REMARK    1  A    between atoms: C_2  and  C_3
REMARK    2  A    between atoms: C_7  and  C_8
REMARK    3  A    between atoms: C_20  and  C_21
REMARK    4  A    between atoms: C_24  and  O_25
REMARK    5  A    between atoms: O_25  and  C_26
REMARK                            x       y       z     vdW  Elec       q    Type
REMARK                         _______ _______ _______ _____ _____    ______ ____
ROOT
ATOM      1  O   UNL     1      -5.709  15.514  20.040  0.00  0.00    +0.000 OA
ATOM      2  C   UNL     1      -5.742  14.450  20.656  0.00  0.00    +0.000 C 
ATOM      3  N   UNL     1      -5.605  14.385  22.051  0.00  0.00    +0.000 N 
ATOM      4  C   UNL     1      -5.615  15.636  22.811  0.00  0.00    +0.000 C 
ATOM      5  C   UNL     1      -4.215  16.134  23.171  0.00  0.00    +0.000 C 
ATOM      6  O   UNL     1      -3.588  15.283  24.149  0.00  0.00    +0.000 OA
ATOM      7  C   UNL     1      -2.909  14.262  23.539  0.00  0.00    +0.000 A 
ATOM      8  C   UNL     1      -1.529  14.247  23.676  0.00  0.00    +0.000 A 
ATOM      9  C   UNL     1      -0.780  13.247  23.052  0.00  0.00    +0.000 A 
ATOM     10  C   UNL     1      -1.391  12.243  22.277  0.00  0.00    +0.000 A 
ATOM     11  C   UNL     1      -2.798  12.258  22.199  0.00  0.00    +0.000 A 
ATOM     12  C   UNL     1      -3.568  13.251  22.837  0.00  0.00    +0.000 A 
ATOM     13  C   UNL     1      -5.075  13.221  22.765  0.00  0.00    +0.000 C 
ENDROOT
BRANCH   2  14
ATOM     14  C   UNL     1      -5.984  13.190  19.880  0.00  0.00    +0.000 A 
ATOM     15  C   UNL     1      -7.222  12.567  19.923  0.00  0.00    +0.000 A 
ATOM     16  C   UNL     1      -7.391  11.388  19.199  0.00  0.00    +0.000 A 
ATOM     17  C   UNL     1      -6.322  10.866  18.468  0.00  0.00    +0.000 A 
ATOM     18  C   UNL     1      -5.096  11.527  18.495  0.00  0.00    +0.000 A 
ATOM     19  N   UNL     1      -4.924  12.673  19.207  0.00  0.00    +0.000 NA
BRANCH  18  20
ATOM     20  C   UNL     1      -3.909  11.004  17.700  0.00  0.00    +0.000 C 
ATOM     21  F   UNL     1      -3.904  11.410  16.397  0.00  0.00    +0.000 F 
ATOM     22  F   UNL     1      -2.714  11.420  18.215  0.00  0.00    +0.000 F 
ATOM     23  F   UNL     1      -3.847   9.644  17.662  0.00  0.00    +0.000 F 
ENDBRANCH  18  20
ENDBRANCH   2  14
BRANCH  10  24
ATOM     24  C   UNL     1      -0.574  11.242  21.547  0.00  0.00    +0.000 A 
ATOM     25  C   UNL     1       0.117  11.547  20.365  0.00  0.00    +0.000 A 
ATOM     26  C   UNL     1       0.927  10.597  19.731  0.00  0.00    +0.000 A 
ATOM     27  C   UNL     1       1.064   9.310  20.255  0.00  0.00    +0.000 A 
ATOM     28  C   UNL     1       0.330   8.966  21.380  0.00  0.00    +0.000 A 
ATOM     29  C   UNL     1      -0.450   9.928  22.031  0.00  0.00    +0.000 A 
BRANCH  27  30
ATOM     30  O   UNL     1       1.884   8.480  19.557  0.00  0.00    +0.000 OA
BRANCH  30  31
ATOM     31  C   UNL     1       1.989   8.628  18.146  0.00  0.00    +0.000 C 
ATOM     32  F   UNL     1       2.754   7.697  17.538  0.00  0.00    +0.000 F 
ATOM     33  F   UNL     1       0.753   8.595  17.601  0.00  0.00    +0.000 F 
ATOM     34  F   UNL     1       2.532   9.839  17.882  0.00  0.00    +0.000 F 
ENDBRANCH  30  31
ENDBRANCH  27  30
ENDBRANCH  10  24
TORSDOF 5
ENDMDL
MODEL 8
REMARK VINA RESULT:      -7.3      4.859      7.009
REMARK  Name = 
REMARK  5 active torsions:
REMARK  status: ('A' for Active; 'I' for Inactive)
REMARK    1  A    between atoms: C_2  and  C_3
REMARK    2  A    between atoms: C_7  and  C_8
REMARK    3  A    between atoms: C_20  and  C_21
REMARK    4  A    between atoms: C_24  and  O_25
REMARK    5  A    between atoms: O_25  and  C_26
REMARK                            x       y       z     vdW  Elec       q    Type
REMARK                         _______ _______ _______ _____ _____    ______ ____
ROOT
ATOM      1  O   UNL     1       1.582  14.576  22.277  0.00  0.00    +0.000 OA
ATOM      2  C   UNL     1       1.019  14.129  21.279  0.00  0.00    +0.000 C 
ATOM      3  N   UNL     1      -0.303  13.661  21.308  0.00  0.00    +0.000 N 
ATOM      4  C   UNL     1      -1.095  13.887  22.517  0.00  0.00    +0.000 C 
ATOM      5  C   UNL     1      -1.145  12.671  23.443  0.00  0.00    +0.000 C 
ATOM      6  O   UNL     1      -1.916  11.601  22.867  0.00  0.00    +0.000 OA
ATOM      7  C   UNL     1      -1.124  10.795  22.092  0.00  0.00    +0.000 A 
ATOM      8  C   UNL     1      -0.939   9.488  22.517  0.00  0.00    +0.000 A 
ATOM      9  C   UNL     1      -0.119   8.629  21.783  0.00  0.00    +0.000 A 
ATOM     10  C   UNL     1       0.536   9.055  20.612  0.00  0.00    +0.000 A 
ATOM     11  C   UNL     1       0.287  10.374  20.180  0.00  0.00    +0.000 A 
ATOM     12  C   UNL     1      -0.551  11.247  20.901  0.00  0.00    +0.000 A 
ATOM     13  C   UNL     1      -0.826  12.642  20.395  0.00  0.00    +0.000 C 
ENDROOT
BRANCH   2  14
ATOM     14  C   UNL     1       1.770  14.136  19.981  0.00  0.00    +0.000 A 
ATOM     15  C   UNL     1       2.205  12.946  19.416  0.00  0.00    +0.000 A 
ATOM     16  C   UNL     1       2.914  13.007  18.218  0.00  0.00    +0.000 A 
ATOM     17  C   UNL     1       3.175  14.246  17.631  0.00  0.00    +0.000 A 
ATOM     18  C   UNL     1       2.736  15.405  18.269  0.00  0.00    +0.000 A 
ATOM     19  N   UNL     1       2.051  15.351  19.443  0.00  0.00    +0.000 NA
BRANCH  18  20
ATOM     20  C   UNL     1       2.982  16.776  17.657  0.00  0.00    +0.000 C 
ATOM     21  F   UNL     1       2.041  17.703  18.001  0.00  0.00    +0.000 F 
ATOM     22  F   UNL     1       4.178  17.311  18.042  0.00  0.00    +0.000 F 
ATOM     23  F   UNL     1       3.000  16.757  16.295  0.00  0.00    +0.000 F 
ENDBRANCH  18  20
ENDBRANCH   2  14
BRANCH  10  24
ATOM     24  C   UNL     1       1.475   8.158  19.894  0.00  0.00    +0.000 A 
ATOM     25  C   UNL     1       1.980   8.455  18.619  0.00  0.00    +0.000 A 
ATOM     26  C   UNL     1       2.911   7.617  17.993  0.00  0.00    +0.000 A 
ATOM     27  C   UNL     1       3.359   6.452  18.618  0.00  0.00    +0.000 A 
ATOM     28  C   UNL     1       2.815   6.101  19.845  0.00  0.00    +0.000 A 
ATOM     29  C   UNL     1       1.913   6.959  20.484  0.00  0.00    +0.000 A 
BRANCH  27  30
ATOM     30  O   UNL     1       4.267   5.725  17.915  0.00  0.00    +0.000 OA
BRANCH  30  31
ATOM     31  C   UNL     1       3.890   4.462  17.383  0.00  0.00    +0.000 C 
ATOM     32  F   UNL     1       4.413   4.181  16.171  0.00  0.00    +0.000 F 
ATOM     33  F   UNL     1       4.254   3.488  18.246  0.00  0.00    +0.000 F 
ATOM     34  F   UNL     1       2.543   4.433  17.263  0.00  0.00    +0.000 F 
ENDBRANCH  30  31
ENDBRANCH  27  30
ENDBRANCH  10  24
TORSDOF 5
ENDMDL
MODEL 9
REMARK VINA RESULT:      -7.3      6.503     11.149
REMARK  Name = 
REMARK  5 active torsions:
REMARK  status: ('A' for Active; 'I' for Inactive)
REMARK    1  A    between atoms: C_2  and  C_3
REMARK    2  A    between atoms: C_7  and  C_8
REMARK    3  A    between atoms: C_20  and  C_21
REMARK    4  A    between atoms: C_24  and  O_25
REMARK    5  A    between atoms: O_25  and  C_26
REMARK                            x       y       z     vdW  Elec       q    Type
REMARK                         _______ _______ _______ _____ _____    ______ ____
ROOT
ATOM      1  O   UNL     1       2.399   5.783  20.479  0.00  0.00    +0.000 OA
ATOM      2  C   UNL     1       2.626   6.215  19.351  0.00  0.00    +0.000 C 
ATOM      3  N   UNL     1       3.203   5.425  18.345  0.00  0.00    +0.000 N 
ATOM      4  C   UNL     1       3.365   3.992  18.593  0.00  0.00    +0.000 C 
ATOM      5  C   UNL     1       4.776   3.612  19.043  0.00  0.00    +0.000 C 
ATOM      6  O   UNL     1       5.729   3.764  17.975  0.00  0.00    +0.000 OA
ATOM      7  C   UNL     1       6.235   5.036  17.953  0.00  0.00    +0.000 A 
ATOM      8  C   UNL     1       7.586   5.187  18.232  0.00  0.00    +0.000 A 
ATOM      9  C   UNL     1       8.151   6.463  18.253  0.00  0.00    +0.000 A 
ATOM     10  C   UNL     1       7.384   7.615  18.000  0.00  0.00    +0.000 A 
ATOM     11  C   UNL     1       6.027   7.424  17.671  0.00  0.00    +0.000 A 
ATOM     12  C   UNL     1       5.445   6.141  17.630  0.00  0.00    +0.000 A 
ATOM     13  C   UNL     1       3.998   5.965  17.240  0.00  0.00    +0.000 C 
ENDROOT
BRANCH   2  14
ATOM     14  C   UNL     1       2.221   7.625  19.038  0.00  0.00    +0.000 A 
ATOM     15  C   UNL     1       2.629   8.226  17.857  0.00  0.00    +0.000 A 
ATOM     16  C   UNL     1       2.242   9.544  17.621  0.00  0.00    +0.000 A 
ATOM     17  C   UNL     1       1.473  10.219  18.570  0.00  0.00    +0.000 A 
ATOM     18  C   UNL     1       1.124   9.565  19.750  0.00  0.00    +0.000 A 
ATOM     19  N   UNL     1       1.507   8.281  19.988  0.00  0.00    +0.000 NA
BRANCH  18  20
ATOM     20  C   UNL     1       0.272  10.255  20.805  0.00  0.00    +0.000 C 
ATOM     21  F   UNL     1      -0.780  10.952  20.285  0.00  0.00    +0.000 F 
ATOM     22  F   UNL     1      -0.278   9.371  21.689  0.00  0.00    +0.000 F 
ATOM     23  F   UNL     1       0.972  11.150  21.556  0.00  0.00    +0.000 F 
ENDBRANCH  18  20
ENDBRANCH   2  14
BRANCH  10  24
ATOM     24  C   UNL     1       7.981   8.969  18.116  0.00  0.00    +0.000 A 
ATOM     25  C   UNL     1       7.569  10.048  17.318  0.00  0.00    +0.000 A 
ATOM     26  C   UNL     1       8.110  11.328  17.491  0.00  0.00    +0.000 A 
ATOM     27  C   UNL     1       9.085  11.567  18.461  0.00  0.00    +0.000 A 
ATOM     28  C   UNL     1       9.560  10.499  19.208  0.00  0.00    +0.000 A 
ATOM     29  C   UNL     1       8.992   9.229  19.058  0.00  0.00    +0.000 A 
BRANCH  27  30
ATOM     30  O   UNL     1       9.527  12.850  18.540  0.00  0.00    +0.000 OA
BRANCH  30  31
ATOM     31  C   UNL     1      10.877  13.145  18.206  0.00  0.00    +0.000 C 
ATOM     32  F   UNL     1      11.775  12.842  19.167  0.00  0.00    +0.000 F 
ATOM     33  F   UNL     1      11.212  12.483  17.077  0.00  0.00    +0.000 F 
ATOM     34  F   UNL     1      10.976  14.472  17.960  0.00  0.00    +0.000 F 
ENDBRANCH  30  31
ENDBRANCH  27  30
ENDBRANCH  10  24
TORSDOF 5
ENDMDL
