MODEL 1
REMARK VINA RESULT:      -8.1      0.000      0.000
REMARK  Name = 
REMARK  8 active torsions:
REMARK  status: ('A' for Active; 'I' for Inactive)
REMARK    1  A    between atoms: C_1  and  O_2
REMARK    2  A    between atoms: O_2  and  C_3
REMARK    3  A    between atoms: C_6  and  C_7
REMARK    4  A    between atoms: C_8  and  C_9
REMARK    5  A    between atoms: C_15  and  C_16
REMARK    6  A    between atoms: C_16  and  S_17
REMARK    7  A    between atoms: S_17  and  C_18
REMARK    8  A    between atoms: C_21  and  C_22
REMARK                            x       y       z     vdW  Elec       q    Type
REMARK                         _______ _______ _______ _____ _____    ______ ____
ROOT
ATOM      1  C   UNL     1       4.092   3.619  18.183  0.00  0.00    +0.000 A 
ATOM      2  C   UNL     1       3.739   2.298  18.605  0.00  0.00    +0.000 A 
ATOM      3  C   UNL     1       4.267   0.980  18.160  0.00  0.00    +0.000 C 
ATOM      4  N   UNL     1       2.793   2.299  19.557  0.00  0.00    +0.000 NA
ATOM      5  N   UNL     1       2.528   3.611  19.765  0.00  0.00    +0.000 N 
ATOM      6  C   UNL     1       1.564   4.067  20.683  0.00  0.00    +0.000 A 
ATOM      7  O   UNL     1       0.897   3.307  21.371  0.00  0.00    +0.000 OA
ATOM      8  C   UNL     1       1.430   5.550  20.742  0.00  0.00    +0.000 A 
ATOM      9  C   UNL     1       2.202   6.334  19.962  0.00  0.00    +0.000 A 
ATOM     10  N   UNL     1       3.126   5.775  19.089  0.00  0.00    +0.000 N 
ATOM     11  C   UNL     1       3.298   4.435  18.969  0.00  0.00    +0.000 A 
ATOM     12  H   UNL     1       3.538   6.434  18.425  0.00  0.00    +0.000 HD
ENDROOT
BRANCH   1  16
ATOM     13  C   UNL     1       6.888   4.980  15.233  0.00  0.00    +0.000 A 
ATOM     14  C   UNL     1       7.251   4.921  16.576  0.00  0.00    +0.000 A 
ATOM     15  C   UNL     1       6.348   4.451  17.536  0.00  0.00    +0.000 A 
ATOM     16  C   UNL     1       5.040   4.096  17.180  0.00  0.00    +0.000 A 
ATOM     17  C   UNL     1       4.674   4.213  15.831  0.00  0.00    +0.000 A 
ATOM     18  C   UNL     1       5.594   4.626  14.861  0.00  0.00    +0.000 A 
BRANCH  13  20
ATOM     19  C   UNL     1       7.699   5.037  13.021  0.00  0.00    +0.000 C 
ATOM     20  O   UNL     1       7.854   5.435  14.380  0.00  0.00    +0.000 OA
ENDBRANCH  13  20
ENDBRANCH   1  16
BRANCH   9  21
ATOM     21  C   UNL     1       2.090   7.850  20.036  0.00  0.00    +0.000 C 
BRANCH  21  22
ATOM     22  S   UNL     1       1.814   8.590  18.380  0.00  0.00    +0.000 S 
BRANCH  22  23
ATOM     23  C   UNL     1       0.497   9.727  18.768  0.00  0.00    +0.000 A 
ATOM     24  C   UNL     1       0.480  10.375  20.006  0.00  0.00    +0.000 A 
ATOM     25  C   UNL     1      -0.564  11.249  20.335  0.00  0.00    +0.000 A 
ATOM     26  C   UNL     1      -1.598  11.494  19.426  0.00  0.00    +0.000 A 
ATOM     27  C   UNL     1      -2.742  12.400  19.774  0.00  0.00    +0.000 C 
ATOM     28  C   UNL     1      -1.559  10.873  18.172  0.00  0.00    +0.000 A 
ATOM     29  C   UNL     1      -0.516  10.002  17.845  0.00  0.00    +0.000 A 
ENDBRANCH  22  23
ENDBRANCH  21  22
ENDBRANCH   9  21
TORSDOF 5
ENDMDL
MODEL 2
REMARK VINA RESULT:      -8.0      0.181      1.289
REMARK  Name = 
REMARK  8 active torsions:
REMARK  status: ('A' for Active; 'I' for Inactive)
REMARK    1  A    between atoms: C_1  and  O_2
REMARK    2  A    between atoms: O_2  and  C_3
REMARK    3  A    between atoms: C_6  and  C_7
REMARK    4  A    between atoms: C_8  and  C_9
REMARK    5  A    between atoms: C_15  and  C_16
REMARK    6  A    between atoms: C_16  and  S_17
REMARK    7  A    between atoms: S_17  and  C_18
REMARK    8  A    between atoms: C_21  and  C_22
REMARK                            x       y       z     vdW  Elec       q    Type
REMARK                         _______ _______ _______ _____ _____    ______ ____
ROOT
ATOM      1  C   UNL     1       4.098   3.659  18.148  0.00  0.00    +0.000 A 
ATOM      2  C   UNL     1       3.707   2.337  18.533  0.00  0.00    +0.000 A 
ATOM      3  C   UNL     1       4.220   1.018  18.076  0.00  0.00    +0.000 C 
ATOM      4  N   UNL     1       2.734   2.340  19.458  0.00  0.00    +0.000 NA
ATOM      5  N   UNL     1       2.490   3.653  19.686  0.00  0.00    +0.000 N 
ATOM      6  C   UNL     1       1.509   4.110  20.585  0.00  0.00    +0.000 A 
ATOM      7  O   UNL     1       0.808   3.350  21.239  0.00  0.00    +0.000 OA
ATOM      8  C   UNL     1       1.404   5.594  20.671  0.00  0.00    +0.000 A 
ATOM      9  C   UNL     1       2.214   6.377  19.929  0.00  0.00    +0.000 A 
ATOM     10  N   UNL     1       3.151   5.817  19.071  0.00  0.00    +0.000 N 
ATOM     11  C   UNL     1       3.299   4.476  18.928  0.00  0.00    +0.000 A 
ATOM     12  H   UNL     1       3.594   6.480  18.433  0.00  0.00    +0.000 HD
ENDROOT
BRANCH   1  16
ATOM     13  C   UNL     1       6.977   5.097  15.317  0.00  0.00    +0.000 A 
ATOM     14  C   UNL     1       5.697   4.738  14.902  0.00  0.00    +0.000 A 
ATOM     15  C   UNL     1       4.749   4.294  15.831  0.00  0.00    +0.000 A 
ATOM     16  C   UNL     1       5.083   4.136  17.181  0.00  0.00    +0.000 A 
ATOM     17  C   UNL     1       6.393   4.452  17.573  0.00  0.00    +0.000 A 
ATOM     18  C   UNL     1       7.325   4.952  16.657  0.00  0.00    +0.000 A 
BRANCH  13  20
ATOM     19  C   UNL     1       7.524   5.048  13.026  0.00  0.00    +0.000 C 
ATOM     20  O   UNL     1       7.816   5.536  14.331  0.00  0.00    +0.000 OA
ENDBRANCH  13  20
ENDBRANCH   1  16
BRANCH   9  21
ATOM     21  C   UNL     1       2.131   7.893  20.031  0.00  0.00    +0.000 C 
BRANCH  21  22
ATOM     22  S   UNL     1       1.750   8.661  18.409  0.00  0.00    +0.000 S 
BRANCH  22  23
ATOM     23  C   UNL     1       0.451   9.780  18.896  0.00  0.00    +0.000 A 
ATOM     24  C   UNL     1      -0.431  10.281  17.935  0.00  0.00    +0.000 A 
ATOM     25  C   UNL     1      -1.438  11.184  18.298  0.00  0.00    +0.000 A 
ATOM     26  C   UNL     1      -1.584  11.587  19.630  0.00  0.00    +0.000 A 
ATOM     27  C   UNL     1      -2.635  12.578  20.032  0.00  0.00    +0.000 C 
ATOM     28  C   UNL     1      -0.723  11.053  20.596  0.00  0.00    +0.000 A 
ATOM     29  C   UNL     1       0.280  10.152  20.232  0.00  0.00    +0.000 A 
ENDBRANCH  22  23
ENDBRANCH  21  22
ENDBRANCH   9  21
TORSDOF 5
ENDMDL
MODEL 3
REMARK VINA RESULT:      -7.9      1.020      1.409
REMARK  Name = 
REMARK  8 active torsions:
REMARK  status: ('A' for Active; 'I' for Inactive)
REMARK    1  A    between atoms: C_1  and  O_2
REMARK    2  A    between atoms: O_2  and  C_3
REMARK    3  A    between atoms: C_6  and  C_7
REMARK    4  A    between atoms: C_8  and  C_9
REMARK    5  A    between atoms: C_15  and  C_16
REMARK    6  A    between atoms: C_16  and  S_17
REMARK    7  A    between atoms: S_17  and  C_18
REMARK    8  A    between atoms: C_21  and  C_22
REMARK                            x       y       z     vdW  Elec       q    Type
REMARK                         _______ _______ _______ _____ _____    ______ ____
ROOT
ATOM      1  C   UNL     1       4.130   3.637  18.136  0.00  0.00    +0.000 A 
ATOM      2  C   UNL     1       3.784   2.324  18.590  0.00  0.00    +0.000 A 
ATOM      3  C   UNL     1       4.343   1.001  18.201  0.00  0.00    +0.000 C 
ATOM      4  N   UNL     1       2.811   2.341  19.514  0.00  0.00    +0.000 NA
ATOM      5  N   UNL     1       2.522   3.654  19.673  0.00  0.00    +0.000 N 
ATOM      6  C   UNL     1       1.525   4.124  20.549  0.00  0.00    +0.000 A 
ATOM      7  O   UNL     1       0.850   3.376  21.242  0.00  0.00    +0.000 OA
ATOM      8  C   UNL     1       1.369   5.606  20.558  0.00  0.00    +0.000 A 
ATOM      9  C   UNL     1       2.152   6.377  19.776  0.00  0.00    +0.000 A 
ATOM     10  N   UNL     1       3.108   5.805  18.947  0.00  0.00    +0.000 N 
ATOM     11  C   UNL     1       3.302   4.465  18.873  0.00  0.00    +0.000 A 
ATOM     12  H   UNL     1       3.529   6.449  18.274  0.00  0.00    +0.000 HD
ENDROOT
BRANCH   1  16
ATOM     13  C   UNL     1       6.961   5.025  15.234  0.00  0.00    +0.000 A 
ATOM     14  C   UNL     1       5.667   4.684  14.850  0.00  0.00    +0.000 A 
ATOM     15  C   UNL     1       4.734   4.257  15.802  0.00  0.00    +0.000 A 
ATOM     16  C   UNL     1       5.099   4.097  17.145  0.00  0.00    +0.000 A 
ATOM     17  C   UNL     1       6.422   4.392  17.504  0.00  0.00    +0.000 A 
ATOM     18  C   UNL     1       7.339   4.877  16.565  0.00  0.00    +0.000 A 
BRANCH  13  20
ATOM     19  C   UNL     1       7.482   4.924  12.937  0.00  0.00    +0.000 C 
ATOM     20  O   UNL     1       7.783   5.448  14.227  0.00  0.00    +0.000 OA
ENDBRANCH  13  20
ENDBRANCH   1  16
BRANCH   9  21
ATOM     21  C   UNL     1       2.016   7.892  19.798  0.00  0.00    +0.000 C 
BRANCH  21  22
ATOM     22  S   UNL     1       2.141   8.609  18.114  0.00  0.00    +0.000 S 
BRANCH  22  23
ATOM     23  C   UNL     1       1.351  10.182  18.391  0.00  0.00    +0.000 A 
ATOM     24  C   UNL     1       2.104  11.358  18.334  0.00  0.00    +0.000 A 
ATOM     25  C   UNL     1       1.502  12.599  18.577  0.00  0.00    +0.000 A 
ATOM     26  C   UNL     1       0.136  12.681  18.869  0.00  0.00    +0.000 A 
ATOM     27  C   UNL     1      -0.519  13.997  19.166  0.00  0.00    +0.000 C 
ATOM     28  C   UNL     1      -0.623  11.505  18.887  0.00  0.00    +0.000 A 
ATOM     29  C   UNL     1      -0.021  10.268  18.643  0.00  0.00    +0.000 A 
ENDBRANCH  22  23
ENDBRANCH  21  22
ENDBRANCH   9  21
TORSDOF 5
ENDMDL
MODEL 4
REMARK VINA RESULT:      -7.9      1.011      1.172
REMARK  Name = 
REMARK  8 active torsions:
REMARK  status: ('A' for Active; 'I' for Inactive)
REMARK    1  A    between atoms: C_1  and  O_2
REMARK    2  A    between atoms: O_2  and  C_3
REMARK    3  A    between atoms: C_6  and  C_7
REMARK    4  A    between atoms: C_8  and  C_9
REMARK    5  A    between atoms: C_15  and  C_16
REMARK    6  A    between atoms: C_16  and  S_17
REMARK    7  A    between atoms: S_17  and  C_18
REMARK    8  A    between atoms: C_21  and  C_22
REMARK                            x       y       z     vdW  Elec       q    Type
REMARK                         _______ _______ _______ _____ _____    ______ ____
ROOT
ATOM      1  C   UNL     1       4.110   3.655  18.116  0.00  0.00    +0.000 A 
ATOM      2  C   UNL     1       3.765   2.345  18.580  0.00  0.00    +0.000 A 
ATOM      3  C   UNL     1       4.306   1.018  18.181  0.00  0.00    +0.000 C 
ATOM      4  N   UNL     1       2.814   2.371  19.527  0.00  0.00    +0.000 NA
ATOM      5  N   UNL     1       2.538   3.687  19.690  0.00  0.00    +0.000 N 
ATOM      6  C   UNL     1       1.565   4.165  20.588  0.00  0.00    +0.000 A 
ATOM      7  O   UNL     1       0.901   3.422  21.298  0.00  0.00    +0.000 OA
ATOM      8  C   UNL     1       1.420   5.647  20.598  0.00  0.00    +0.000 A 
ATOM      9  C   UNL     1       2.189   6.412  19.797  0.00  0.00    +0.000 A 
ATOM     10  N   UNL     1       3.122   5.832  18.947  0.00  0.00    +0.000 N 
ATOM     11  C   UNL     1       3.305   4.490  18.871  0.00  0.00    +0.000 A 
ATOM     12  H   UNL     1       3.532   6.472  18.263  0.00  0.00    +0.000 HD
ENDROOT
BRANCH   1  16
ATOM     13  C   UNL     1       6.912   4.942  15.140  0.00  0.00    +0.000 A 
ATOM     14  C   UNL     1       7.213   5.067  16.494  0.00  0.00    +0.000 A 
ATOM     15  C   UNL     1       6.310   4.622  17.465  0.00  0.00    +0.000 A 
ATOM     16  C   UNL     1       5.059   4.107  17.102  0.00  0.00    +0.000 A 
ATOM     17  C   UNL     1       4.750   4.038  15.735  0.00  0.00    +0.000 A 
ATOM     18  C   UNL     1       5.675   4.427  14.761  0.00  0.00    +0.000 A 
BRANCH  13  20
ATOM     19  C   UNL     1       7.660   5.063  12.908  0.00  0.00    +0.000 C 
ATOM     20  O   UNL     1       7.873   5.391  14.277  0.00  0.00    +0.000 OA
ENDBRANCH  13  20
ENDBRANCH   1  16
BRANCH   9  21
ATOM     21  C   UNL     1       2.065   7.928  19.820  0.00  0.00    +0.000 C 
BRANCH  21  22
ATOM     22  S   UNL     1       2.050   8.633  18.126  0.00  0.00    +0.000 S 
BRANCH  22  23
ATOM     23  C   UNL     1       1.303  10.216  18.459  0.00  0.00    +0.000 A 
ATOM     24  C   UNL     1      -0.045  10.286  18.822  0.00  0.00    +0.000 A 
ATOM     25  C   UNL     1      -0.653  11.526  19.058  0.00  0.00    +0.000 A 
ATOM     26  C   UNL     1       0.083  12.711  18.946  0.00  0.00    +0.000 A 
ATOM     27  C   UNL     1      -0.558  14.049  19.162  0.00  0.00    +0.000 C 
ATOM     28  C   UNL     1       1.443  12.634  18.620  0.00  0.00    +0.000 A 
ATOM     29  C   UNL     1       2.047  11.396  18.386  0.00  0.00    +0.000 A 
ENDBRANCH  22  23
ENDBRANCH  21  22
ENDBRANCH   9  21
TORSDOF 5
ENDMDL
MODEL 5
REMARK VINA RESULT:      -7.9      4.546      7.638
REMARK  Name = 
REMARK  8 active torsions:
REMARK  status: ('A' for Active; 'I' for Inactive)
REMARK    1  A    between atoms: C_1  and  O_2
REMARK    2  A    between atoms: O_2  and  C_3
REMARK    3  A    between atoms: C_6  and  C_7
REMARK    4  A    between atoms: C_8  and  C_9
REMARK    5  A    between atoms: C_15  and  C_16
REMARK    6  A    between atoms: C_16  and  S_17
REMARK    7  A    between atoms: S_17  and  C_18
REMARK    8  A    between atoms: C_21  and  C_22
REMARK                            x       y       z     vdW  Elec       q    Type
REMARK                         _______ _______ _______ _____ _____    ______ ____
ROOT
ATOM      1  C   UNL     1       3.134   6.078  18.021  0.00  0.00    +0.000 A 
ATOM      2  C   UNL     1       2.735   4.758  17.639  0.00  0.00    +0.000 A 
ATOM      3  C   UNL     1       1.428   4.067  17.810  0.00  0.00    +0.000 C 
ATOM      4  N   UNL     1       3.719   4.082  17.025  0.00  0.00    +0.000 NA
ATOM      5  N   UNL     1       4.757   4.952  16.997  0.00  0.00    +0.000 N 
ATOM      6  C   UNL     1       6.015   4.634  16.453  0.00  0.00    +0.000 A 
ATOM      7  O   UNL     1       6.261   3.546  15.952  0.00  0.00    +0.000 OA
ATOM      8  C   UNL     1       7.013   5.737  16.537  0.00  0.00    +0.000 A 
ATOM      9  C   UNL     1       6.676   6.918  17.094  0.00  0.00    +0.000 A 
ATOM     10  N   UNL     1       5.400   7.124  17.602  0.00  0.00    +0.000 N 
ATOM     11  C   UNL     1       4.440   6.166  17.573  0.00  0.00    +0.000 A 
ATOM     12  H   UNL     1       5.292   7.979  18.151  0.00  0.00    +0.000 HD
ENDROOT
BRANCH   1  16
ATOM     13  C   UNL     1       1.069   9.226  20.070  0.00  0.00    +0.000 A 
ATOM     14  C   UNL     1       1.418   8.056  20.741  0.00  0.00    +0.000 A 
ATOM     15  C   UNL     1       2.116   7.040  20.079  0.00  0.00    +0.000 A 
ATOM     16  C   UNL     1       2.418   7.145  18.715  0.00  0.00    +0.000 A 
ATOM     17  C   UNL     1       2.011   8.307  18.042  0.00  0.00    +0.000 A 
ATOM     18  C   UNL     1       1.366   9.349  18.716  0.00  0.00    +0.000 A 
BRANCH  13  20
ATOM     19  C   UNL     1       0.188   9.803  22.178  0.00  0.00    +0.000 C 
ATOM     20  O   UNL     1       0.408  10.160  20.817  0.00  0.00    +0.000 OA
ENDBRANCH  13  20
ENDBRANCH   1  16
BRANCH   9  21
ATOM     21  C   UNL     1       7.681   8.058  17.161  0.00  0.00    +0.000 C 
BRANCH  21  22
ATOM     22  S   UNL     1       8.468   8.172  18.814  0.00  0.00    +0.000 S 
BRANCH  22  23
ATOM     23  C   UNL     1       8.912   9.898  18.826  0.00  0.00    +0.000 A 
ATOM     24  C   UNL     1       9.660  10.416  19.886  0.00  0.00    +0.000 A 
ATOM     25  C   UNL     1       9.991  11.776  19.922  0.00  0.00    +0.000 A 
ATOM     26  C   UNL     1       9.590  12.633  18.892  0.00  0.00    +0.000 A 
ATOM     27  C   UNL     1       9.906  14.098  18.930  0.00  0.00    +0.000 C 
ATOM     28  C   UNL     1       8.874  12.103  17.812  0.00  0.00    +0.000 A 
ATOM     29  C   UNL     1       8.545  10.745  17.777  0.00  0.00    +0.000 A 
ENDBRANCH  22  23
ENDBRANCH  21  22
ENDBRANCH   9  21
TORSDOF 5
ENDMDL
MODEL 6
REMARK VINA RESULT:      -7.9      4.656      7.796
REMARK  Name = 
REMARK  8 active torsions:
REMARK  status: ('A' for Active; 'I' for Inactive)
REMARK    1  A    between atoms: C_1  and  O_2
REMARK    2  A    between atoms: O_2  and  C_3
REMARK    3  A    between atoms: C_6  and  C_7
REMARK    4  A    between atoms: C_8  and  C_9
REMARK    5  A    between atoms: C_15  and  C_16
REMARK    6  A    between atoms: C_16  and  S_17
REMARK    7  A    between atoms: S_17  and  C_18
REMARK    8  A    between atoms: C_21  and  C_22
REMARK                            x       y       z     vdW  Elec       q    Type
REMARK                         _______ _______ _______ _____ _____    ______ ____
ROOT
ATOM      1  C   UNL     1       3.192   6.246  18.060  0.00  0.00    +0.000 A 
ATOM      2  C   UNL     1       2.826   4.917  17.672  0.00  0.00    +0.000 A 
ATOM      3  C   UNL     1       1.524   4.208  17.803  0.00  0.00    +0.000 C 
ATOM      4  N   UNL     1       3.840   4.253  17.096  0.00  0.00    +0.000 NA
ATOM      5  N   UNL     1       4.865   5.139  17.099  0.00  0.00    +0.000 N 
ATOM      6  C   UNL     1       6.146   4.837  16.599  0.00  0.00    +0.000 A 
ATOM      7  O   UNL     1       6.425   3.750  16.114  0.00  0.00    +0.000 OA
ATOM      8  C   UNL     1       7.124   5.955  16.712  0.00  0.00    +0.000 A 
ATOM      9  C   UNL     1       6.751   7.134  17.250  0.00  0.00    +0.000 A 
ATOM     10  N   UNL     1       5.455   7.323  17.713  0.00  0.00    +0.000 N 
ATOM     11  C   UNL     1       4.511   6.351  17.657  0.00  0.00    +0.000 A 
ATOM     12  H   UNL     1       5.316   8.179  18.253  0.00  0.00    +0.000 HD
ENDROOT
BRANCH   1  16
ATOM     13  C   UNL     1       0.941   9.337  19.995  0.00  0.00    +0.000 A 
ATOM     14  C   UNL     1       1.315   9.466  18.660  0.00  0.00    +0.000 A 
ATOM     15  C   UNL     1       2.026   8.445  18.020  0.00  0.00    +0.000 A 
ATOM     16  C   UNL     1       2.437   7.305  18.723  0.00  0.00    +0.000 A 
ATOM     17  C   UNL     1       2.099   7.216  20.082  0.00  0.00    +0.000 A 
ATOM     18  C   UNL     1       1.336   8.208  20.707  0.00  0.00    +0.000 A 
BRANCH  13  20
ATOM     19  C   UNL     1      -0.057  11.434  19.596  0.00  0.00    +0.000 C 
ATOM     20  O   UNL     1       0.232  10.385  20.514  0.00  0.00    +0.000 OA
ENDBRANCH  13  20
ENDBRANCH   1  16
BRANCH   9  21
ATOM     21  C   UNL     1       7.736   8.290  17.345  0.00  0.00    +0.000 C 
BRANCH  21  22
ATOM     22  S   UNL     1       8.633   8.286  18.945  0.00  0.00    +0.000 S 
BRANCH  22  23
ATOM     23  C   UNL     1       9.101  10.003  19.039  0.00  0.00    +0.000 A 
ATOM     24  C   UNL     1       9.053  10.801  17.893  0.00  0.00    +0.000 A 
ATOM     25  C   UNL     1       9.445  12.144  17.946  0.00  0.00    +0.000 A 
ATOM     26  C   UNL     1       9.879  12.710  19.150  0.00  0.00    +0.000 A 
ATOM     27  C   UNL     1      10.334  14.137  19.219  0.00  0.00    +0.000 C 
ATOM     28  C   UNL     1       9.888  11.919  20.305  0.00  0.00    +0.000 A 
ATOM     29  C   UNL     1       9.496  10.579  20.250  0.00  0.00    +0.000 A 
ENDBRANCH  22  23
ENDBRANCH  21  22
ENDBRANCH   9  21
TORSDOF 5
ENDMDL
MODEL 7
REMARK VINA RESULT:      -7.8      0.891      1.371
REMARK  Name = 
REMARK  8 active torsions:
REMARK  status: ('A' for Active; 'I' for Inactive)
REMARK    1  A    between atoms: C_1  and  O_2
REMARK    2  A    between atoms: O_2  and  C_3
REMARK    3  A    between atoms: C_6  and  C_7
REMARK    4  A    between atoms: C_8  and  C_9
REMARK    5  A    between atoms: C_15  and  C_16
REMARK    6  A    between atoms: C_16  and  S_17
REMARK    7  A    between atoms: S_17  and  C_18
REMARK    8  A    between atoms: C_21  and  C_22
REMARK                            x       y       z     vdW  Elec       q    Type
REMARK                         _______ _______ _______ _____ _____    ______ ____
ROOT
ATOM      1  C   UNL     1       4.095   3.627  18.210  0.00  0.00    +0.000 A 
ATOM      2  C   UNL     1       3.765   2.304  18.647  0.00  0.00    +0.000 A 
ATOM      3  C   UNL     1       4.322   0.992  18.222  0.00  0.00    +0.000 C 
ATOM      4  N   UNL     1       2.813   2.299  19.593  0.00  0.00    +0.000 NA
ATOM      5  N   UNL     1       2.521   3.608  19.783  0.00  0.00    +0.000 N 
ATOM      6  C   UNL     1       1.542   4.056  20.688  0.00  0.00    +0.000 A 
ATOM      7  O   UNL     1       0.885   3.292  21.382  0.00  0.00    +0.000 OA
ATOM      8  C   UNL     1       1.378   5.536  20.728  0.00  0.00    +0.000 A 
ATOM      9  C   UNL     1       2.140   6.326  19.943  0.00  0.00    +0.000 A 
ATOM     10  N   UNL     1       3.080   5.775  19.083  0.00  0.00    +0.000 N 
ATOM     11  C   UNL     1       3.280   4.437  18.981  0.00  0.00    +0.000 A 
ATOM     12  H   UNL     1       3.483   6.433  18.414  0.00  0.00    +0.000 HD
ENDROOT
BRANCH   1  16
ATOM     13  C   UNL     1       6.886   5.008  15.266  0.00  0.00    +0.000 A 
ATOM     14  C   UNL     1       7.157   5.162  16.623  0.00  0.00    +0.000 A 
ATOM     15  C   UNL     1       6.259   4.687  17.585  0.00  0.00    +0.000 A 
ATOM     16  C   UNL     1       5.039   4.110  17.207  0.00  0.00    +0.000 A 
ATOM     17  C   UNL     1       4.758   4.012  15.836  0.00  0.00    +0.000 A 
ATOM     18  C   UNL     1       5.681   4.432  14.873  0.00  0.00    +0.000 A 
BRANCH  13  20
ATOM     19  C   UNL     1       7.677   5.122  13.049  0.00  0.00    +0.000 C 
ATOM     20  O   UNL     1       7.841   5.491  14.414  0.00  0.00    +0.000 OA
ENDBRANCH  13  20
ENDBRANCH   1  16
BRANCH   9  21
ATOM     21  C   UNL     1       1.998   7.840  19.997  0.00  0.00    +0.000 C 
BRANCH  21  22
ATOM     22  S   UNL     1       1.466   8.412  21.657  0.00  0.00    +0.000 S 
BRANCH  22  23
ATOM     23  C   UNL     1       0.341   9.712  21.189  0.00  0.00    +0.000 A 
ATOM     24  C   UNL     1       0.015   9.898  19.842  0.00  0.00    +0.000 A 
ATOM     25  C   UNL     1      -0.845  10.934  19.457  0.00  0.00    +0.000 A 
ATOM     26  C   UNL     1      -1.401  11.790  20.414  0.00  0.00    +0.000 A 
ATOM     27  C   UNL     1      -2.297  12.924  20.017  0.00  0.00    +0.000 C 
ATOM     28  C   UNL     1      -1.103  11.577  21.766  0.00  0.00    +0.000 A 
ATOM     29  C   UNL     1      -0.245  10.542  22.148  0.00  0.00    +0.000 A 
ENDBRANCH  22  23
ENDBRANCH  21  22
ENDBRANCH   9  21
TORSDOF 5
ENDMDL
MODEL 8
REMARK VINA RESULT:      -7.8      0.987      1.655
REMARK  Name = 
REMARK  8 active torsions:
REMARK  status: ('A' for Active; 'I' for Inactive)
REMARK    1  A    between atoms: C_1  and  O_2
REMARK    2  A    between atoms: O_2  and  C_3
REMARK    3  A    between atoms: C_6  and  C_7
REMARK    4  A    between atoms: C_8  and  C_9
REMARK    5  A    between atoms: C_15  and  C_16
REMARK    6  A    between atoms: C_16  and  S_17
REMARK    7  A    between atoms: S_17  and  C_18
REMARK    8  A    between atoms: C_21  and  C_22
REMARK                            x       y       z     vdW  Elec       q    Type
REMARK                         _______ _______ _______ _____ _____    ______ ____
ROOT
ATOM      1  C   UNL     1       4.099   3.609  18.185  0.00  0.00    +0.000 A 
ATOM      2  C   UNL     1       3.713   2.293  18.597  0.00  0.00    +0.000 A 
ATOM      3  C   UNL     1       4.230   0.967  18.164  0.00  0.00    +0.000 C 
ATOM      4  N   UNL     1       2.743   2.310  19.524  0.00  0.00    +0.000 NA
ATOM      5  N   UNL     1       2.495   3.626  19.726  0.00  0.00    +0.000 N 
ATOM      6  C   UNL     1       1.514   4.098  20.619  0.00  0.00    +0.000 A 
ATOM      7  O   UNL     1       0.817   3.348  21.289  0.00  0.00    +0.000 OA
ATOM      8  C   UNL     1       1.404   5.582  20.676  0.00  0.00    +0.000 A 
ATOM      9  C   UNL     1       2.209   6.354  19.917  0.00  0.00    +0.000 A 
ATOM     10  N   UNL     1       3.146   5.781  19.068  0.00  0.00    +0.000 N 
ATOM     11  C   UNL     1       3.299   4.438  18.951  0.00  0.00    +0.000 A 
ATOM     12  H   UNL     1       3.585   6.432  18.415  0.00  0.00    +0.000 HD
ENDROOT
BRANCH   1  16
ATOM     13  C   UNL     1       6.961   5.001  15.315  0.00  0.00    +0.000 A 
ATOM     14  C   UNL     1       5.759   4.437  14.896  0.00  0.00    +0.000 A 
ATOM     15  C   UNL     1       4.812   4.008  15.833  0.00  0.00    +0.000 A 
ATOM     16  C   UNL     1       5.081   4.071  17.207  0.00  0.00    +0.000 A 
ATOM     17  C   UNL     1       6.320   4.591  17.609  0.00  0.00    +0.000 A 
ATOM     18  C   UNL     1       7.242   5.076  16.676  0.00  0.00    +0.000 A 
BRANCH  13  20
ATOM     19  C   UNL     1       7.450   4.962  13.009  0.00  0.00    +0.000 C 
ATOM     20  O   UNL     1       7.803   5.404  14.316  0.00  0.00    +0.000 OA
ENDBRANCH  13  20
ENDBRANCH   1  16
BRANCH   9  21
ATOM     21  C   UNL     1       2.121   7.872  19.989  0.00  0.00    +0.000 C 
BRANCH  21  22
ATOM     22  S   UNL     1       0.771   8.419  21.104  0.00  0.00    +0.000 S 
BRANCH  22  23
ATOM     23  C   UNL     1       0.421  10.019  20.400  0.00  0.00    +0.000 A 
ATOM     24  C   UNL     1      -0.375  10.116  19.255  0.00  0.00    +0.000 A 
ATOM     25  C   UNL     1      -0.634  11.363  18.675  0.00  0.00    +0.000 A 
ATOM     26  C   UNL     1      -0.111  12.532  19.239  0.00  0.00    +0.000 A 
ATOM     27  C   UNL     1      -0.349  13.873  18.613  0.00  0.00    +0.000 C 
ATOM     28  C   UNL     1       0.654  12.435  20.408  0.00  0.00    +0.000 A 
ATOM     29  C   UNL     1       0.911  11.189  20.986  0.00  0.00    +0.000 A 
ENDBRANCH  22  23
ENDBRANCH  21  22
ENDBRANCH   9  21
TORSDOF 5
ENDMDL
MODEL 9
REMARK VINA RESULT:      -7.7      1.092      1.196
REMARK  Name = 
REMARK  8 active torsions:
REMARK  status: ('A' for Active; 'I' for Inactive)
REMARK    1  A    between atoms: C_1  and  O_2
REMARK    2  A    between atoms: O_2  and  C_3
REMARK    3  A    between atoms: C_6  and  C_7
REMARK    4  A    between atoms: C_8  and  C_9
REMARK    5  A    between atoms: C_15  and  C_16
REMARK    6  A    between atoms: C_16  and  S_17
REMARK    7  A    between atoms: S_17  and  C_18
REMARK    8  A    between atoms: C_21  and  C_22
REMARK                            x       y       z     vdW  Elec       q    Type
REMARK                         _______ _______ _______ _____ _____    ______ ____
ROOT
ATOM      1  C   UNL     1       4.102   3.632  18.187  0.00  0.00    +0.000 A 
ATOM      2  C   UNL     1       3.770   2.313  18.633  0.00  0.00    +0.000 A 
ATOM      3  C   UNL     1       4.318   0.995  18.212  0.00  0.00    +0.000 C 
ATOM      4  N   UNL     1       2.825   2.317  19.586  0.00  0.00    +0.000 NA
ATOM      5  N   UNL     1       2.540   3.628  19.771  0.00  0.00    +0.000 N 
ATOM      6  C   UNL     1       1.569   4.086  20.681  0.00  0.00    +0.000 A 
ATOM      7  O   UNL     1       0.915   3.328  21.384  0.00  0.00    +0.000 OA
ATOM      8  C   UNL     1       1.412   5.567  20.713  0.00  0.00    +0.000 A 
ATOM      9  C   UNL     1       2.171   6.349  19.918  0.00  0.00    +0.000 A 
ATOM     10  N   UNL     1       3.103   5.789  19.054  0.00  0.00    +0.000 N 
ATOM     11  C   UNL     1       3.296   4.450  18.958  0.00  0.00    +0.000 A 
ATOM     12  H   UNL     1       3.504   6.441  18.378  0.00  0.00    +0.000 HD
ENDROOT
BRANCH   1  16
ATOM     13  C   UNL     1       6.872   4.981  15.208  0.00  0.00    +0.000 A 
ATOM     14  C   UNL     1       7.246   4.931  16.548  0.00  0.00    +0.000 A 
ATOM     15  C   UNL     1       6.350   4.464  17.517  0.00  0.00    +0.000 A 
ATOM     16  C   UNL     1       5.041   4.105  17.173  0.00  0.00    +0.000 A 
ATOM     17  C   UNL     1       4.664   4.213  15.826  0.00  0.00    +0.000 A 
ATOM     18  C   UNL     1       5.576   4.622  14.847  0.00  0.00    +0.000 A 
BRANCH  13  20
ATOM     19  C   UNL     1       7.655   5.045  12.986  0.00  0.00    +0.000 C 
ATOM     20  O   UNL     1       7.830   5.434  14.344  0.00  0.00    +0.000 OA
ENDBRANCH  13  20
ENDBRANCH   1  16
BRANCH   9  21
ATOM     21  C   UNL     1       2.036   7.864  19.964  0.00  0.00    +0.000 C 
BRANCH  21  22
ATOM     22  S   UNL     1       1.067   8.414  21.422  0.00  0.00    +0.000 S 
BRANCH  22  23
ATOM     23  C   UNL     1       0.572  10.033  20.868  0.00  0.00    +0.000 A 
ATOM     24  C   UNL     1      -0.071  10.904  21.752  0.00  0.00    +0.000 A 
ATOM     25  C   UNL     1      -0.492  12.169  21.323  0.00  0.00    +0.000 A 
ATOM     26  C   UNL     1      -0.265  12.584  20.006  0.00  0.00    +0.000 A 
ATOM     27  C   UNL     1      -0.738  13.920  19.519  0.00  0.00    +0.000 C 
ATOM     28  C   UNL     1       0.413  11.724  19.133  0.00  0.00    +0.000 A 
ATOM     29  C   UNL     1       0.833  10.463  19.564  0.00  0.00    +0.000 A 
ENDBRANCH  22  23
ENDBRANCH  21  22
ENDBRANCH   9  21
TORSDOF 5
ENDMDL
