MODEL 1
REMARK VINA RESULT:      -6.6      0.000      0.000
REMARK  Name = 
REMARK  7 active torsions:
REMARK  status: ('A' for Active; 'I' for Inactive)
REMARK    1  A    between atoms: C_1  and  O_2
REMARK    2  A    between atoms: O_2  and  C_3
REMARK    3  A    between atoms: C_7  and  O_8
REMARK    4  A    between atoms: O_8  and  C_9
REMARK    5  A    between atoms: C_10  and  C_11
REMARK    6  A    between atoms: N_18  and  C_19
REMARK    7  A    between atoms: C_19  and  C_20
REMARK                            x       y       z     vdW  Elec       q    Type
REMARK                         _______ _______ _______ _____ _____    ______ ____
ROOT
ATOM      1  C   UNL     1      -2.081  12.598  19.264  0.00  0.00    +0.000 C 
ATOM      2  C   UNL     1      -3.520  12.394  19.822  0.00  0.00    +0.000 C 
ATOM      3  C   UNL     1      -4.643  12.243  18.801  0.00  0.00    +0.000 C 
ATOM      4  C   UNL     1      -4.472  11.044  17.887  0.00  0.00    +0.000 C 
ATOM      5  C   UNL     1      -3.270  11.213  16.985  0.00  0.00    +0.000 C 
ATOM      6  C   UNL     1      -1.983  10.702  17.594  0.00  0.00    +0.000 C 
ATOM      7  O   UNL     1      -1.410   9.769  17.025  0.00  0.00    +0.000 OA
ATOM      8  N   UNL     1      -1.455  11.349  18.722  0.00  0.00    +0.000 N 
ENDROOT
BRANCH   1  14
ATOM      9  C   UNL     1      -0.518  14.508  19.968  0.00  0.00    +0.000 A 
ATOM     10  C   UNL     1       0.191  15.230  20.936  0.00  0.00    +0.000 A 
ATOM     11  C   UNL     1       0.194  14.818  22.264  0.00  0.00    +0.000 A 
ATOM     12  C   UNL     1      -0.503  13.679  22.642  0.00  0.00    +0.000 A 
ATOM     13  C   UNL     1      -1.235  12.944  21.699  0.00  0.00    +0.000 A 
ATOM     14  C   UNL     1      -1.254  13.351  20.337  0.00  0.00    +0.000 A 
BRANCH   9  16
ATOM     15  C   UNL     1      -0.243  16.199  18.298  0.00  0.00    +0.000 C 
ATOM     16  O   UNL     1      -0.515  14.842  18.636  0.00  0.00    +0.000 OA
ENDBRANCH   9  16
BRANCH  13  17
ATOM     17  O   UNL     1      -1.921  11.804  22.030  0.00  0.00    +0.000 OA
ATOM     18  C   UNL     1      -2.068  11.520  23.419  0.00  0.00    +0.000 C 
ENDBRANCH  13  17
ENDBRANCH   1  14
BRANCH   8  19
ATOM     19  C   UNL     1       0.005  11.181  18.841  0.00  0.00    +0.000 C 
BRANCH  19  20
ATOM     20  C   UNL     1       0.487   9.906  19.503  0.00  0.00    +0.000 A 
ATOM     21  C   UNL     1       0.089   9.556  20.792  0.00  0.00    +0.000 A 
ATOM     22  C   UNL     1       0.631   8.421  21.373  0.00  0.00    +0.000 A 
ATOM     23  N   UNL     1       1.535   7.617  20.771  0.00  0.00    +0.000 NA
ATOM     24  C   UNL     1       1.916   7.958  19.510  0.00  0.00    +0.000 A 
ATOM     25  N   UNL     1       2.885   7.139  18.854  0.00  0.00    +0.000 N 
ATOM     26  C   UNL     1       3.454   5.987  19.362  0.00  0.00    +0.000 A 
ATOM     27  C   UNL     1       4.349   5.526  18.429  0.00  0.00    +0.000 A 
ATOM     28  C   UNL     1       4.274   6.462  17.382  0.00  0.00    +0.000 A 
ATOM     29  N   UNL     1       3.396   7.436  17.623  0.00  0.00    +0.000 NA
ATOM     30  C   UNL     1       1.422   9.086  18.852  0.00  0.00    +0.000 A 
ENDBRANCH  19  20
ENDBRANCH   8  19
TORSDOF 5
ENDMDL
MODEL 2
REMARK VINA RESULT:      -6.6      2.880      6.705
REMARK  Name = 
REMARK  7 active torsions:
REMARK  status: ('A' for Active; 'I' for Inactive)
REMARK    1  A    between atoms: C_1  and  O_2
REMARK    2  A    between atoms: O_2  and  C_3
REMARK    3  A    between atoms: C_7  and  O_8
REMARK    4  A    between atoms: O_8  and  C_9
REMARK    5  A    between atoms: C_10  and  C_11
REMARK    6  A    between atoms: N_18  and  C_19
REMARK    7  A    between atoms: C_19  and  C_20
REMARK                            x       y       z     vdW  Elec       q    Type
REMARK                         _______ _______ _______ _____ _____    ______ ____
ROOT
ATOM      1  C   UNL     1       0.727  11.596  20.796  0.00  0.00    +0.000 C 
ATOM      2  C   UNL     1       0.665  10.514  19.678  0.00  0.00    +0.000 C 
ATOM      3  C   UNL     1       1.217   9.134  20.018  0.00  0.00    +0.000 C 
ATOM      4  C   UNL     1       0.491   8.460  21.167  0.00  0.00    +0.000 C 
ATOM      5  C   UNL     1       0.718   9.200  22.466  0.00  0.00    +0.000 C 
ATOM      6  C   UNL     1      -0.288  10.301  22.716  0.00  0.00    +0.000 C 
ATOM      7  O   UNL     1      -1.017  10.199  23.706  0.00  0.00    +0.000 OA
ATOM      8  N   UNL     1      -0.303  11.421  21.869  0.00  0.00    +0.000 N 
ENDROOT
BRANCH   1  14
ATOM      9  C   UNL     1       1.839  13.869  20.372  0.00  0.00    +0.000 A 
ATOM     10  C   UNL     1       1.908  15.108  19.724  0.00  0.00    +0.000 A 
ATOM     11  C   UNL     1       0.913  15.496  18.832  0.00  0.00    +0.000 A 
ATOM     12  C   UNL     1      -0.164  14.657  18.582  0.00  0.00    +0.000 A 
ATOM     13  C   UNL     1      -0.252  13.404  19.204  0.00  0.00    +0.000 A 
ATOM     14  C   UNL     1       0.756  12.988  20.114  0.00  0.00    +0.000 A 
BRANCH   9  16
ATOM     15  C   UNL     1       3.921  14.273  21.480  0.00  0.00    +0.000 C 
ATOM     16  O   UNL     1       2.767  13.458  21.297  0.00  0.00    +0.000 OA
ENDBRANCH   9  16
BRANCH  13  17
ATOM     17  O   UNL     1      -1.309  12.555  18.996  0.00  0.00    +0.000 OA
ATOM     18  C   UNL     1      -1.527  12.114  17.658  0.00  0.00    +0.000 C 
ENDBRANCH  13  17
ENDBRANCH   1  14
BRANCH   8  19
ATOM     19  C   UNL     1      -0.850  12.623  22.527  0.00  0.00    +0.000 C 
BRANCH  19  20
ATOM     20  C   UNL     1      -2.360  12.718  22.614  0.00  0.00    +0.000 A 
ATOM     21  C   UNL     1      -3.012  12.891  23.834  0.00  0.00    +0.000 A 
ATOM     22  C   UNL     1      -4.397  12.885  23.857  0.00  0.00    +0.000 A 
ATOM     23  N   UNL     1      -5.175  12.719  22.765  0.00  0.00    +0.000 NA
ATOM     24  C   UNL     1      -4.535  12.557  21.575  0.00  0.00    +0.000 A 
ATOM     25  N   UNL     1      -5.328  12.360  20.404  0.00  0.00    +0.000 N 
ATOM     26  C   UNL     1      -6.709  12.360  20.347  0.00  0.00    +0.000 A 
ATOM     27  C   UNL     1      -7.066  12.108  19.046  0.00  0.00    +0.000 A 
ATOM     28  C   UNL     1      -5.842  11.956  18.372  0.00  0.00    +0.000 A 
ATOM     29  N   UNL     1      -4.788  12.107  19.175  0.00  0.00    +0.000 NA
ATOM     30  C   UNL     1      -3.143  12.548  21.462  0.00  0.00    +0.000 A 
ENDBRANCH  19  20
ENDBRANCH   8  19
TORSDOF 5
ENDMDL
MODEL 3
REMARK VINA RESULT:      -6.5      0.169      2.380
REMARK  Name = 
REMARK  7 active torsions:
REMARK  status: ('A' for Active; 'I' for Inactive)
REMARK    1  A    between atoms: C_1  and  O_2
REMARK    2  A    between atoms: O_2  and  C_3
REMARK    3  A    between atoms: C_7  and  O_8
REMARK    4  A    between atoms: O_8  and  C_9
REMARK    5  A    between atoms: C_10  and  C_11
REMARK    6  A    between atoms: N_18  and  C_19
REMARK    7  A    between atoms: C_19  and  C_20
REMARK                            x       y       z     vdW  Elec       q    Type
REMARK                         _______ _______ _______ _____ _____    ______ ____
ROOT
ATOM      1  C   UNL     1      -2.147  12.641  19.296  0.00  0.00    +0.000 C 
ATOM      2  C   UNL     1      -3.574  12.439  19.885  0.00  0.00    +0.000 C 
ATOM      3  C   UNL     1      -4.717  12.270  18.890  0.00  0.00    +0.000 C 
ATOM      4  C   UNL     1      -4.560  11.060  17.989  0.00  0.00    +0.000 C 
ATOM      5  C   UNL     1      -3.377  11.221  17.060  0.00  0.00    +0.000 C 
ATOM      6  C   UNL     1      -2.076  10.723  17.650  0.00  0.00    +0.000 C 
ATOM      7  O   UNL     1      -1.511   9.784  17.083  0.00  0.00    +0.000 OA
ATOM      8  N   UNL     1      -1.528  11.387  18.759  0.00  0.00    +0.000 N 
ENDROOT
BRANCH   1  14
ATOM      9  C   UNL     1      -1.338  13.008  21.704  0.00  0.00    +0.000 A 
ATOM     10  C   UNL     1      -0.541  13.660  22.652  0.00  0.00    +0.000 A 
ATOM     11  C   UNL     1       0.284  14.715  22.277  0.00  0.00    +0.000 A 
ATOM     12  C   UNL     1       0.318  15.137  20.955  0.00  0.00    +0.000 A 
ATOM     13  C   UNL     1      -0.457  14.494  19.980  0.00  0.00    +0.000 A 
ATOM     14  C   UNL     1      -1.303  13.411  20.342  0.00  0.00    +0.000 A 
BRANCH   9  16
ATOM     15  C   UNL     1      -2.617  11.888  23.387  0.00  0.00    +0.000 C 
ATOM     16  O   UNL     1      -2.206  11.994  22.027  0.00  0.00    +0.000 OA
ENDBRANCH   9  16
BRANCH  13  17
ATOM     17  O   UNL     1      -0.463  14.894  18.668  0.00  0.00    +0.000 OA
ATOM     18  C   UNL     1      -0.356  16.293  18.420  0.00  0.00    +0.000 C 
ENDBRANCH  13  17
ENDBRANCH   1  14
BRANCH   8  19
ATOM     19  C   UNL     1      -0.065  11.226  18.850  0.00  0.00    +0.000 C 
BRANCH  19  20
ATOM     20  C   UNL     1       0.435   9.965  19.525  0.00  0.00    +0.000 A 
ATOM     21  C   UNL     1       0.062   9.636  20.828  0.00  0.00    +0.000 A 
ATOM     22  C   UNL     1       0.620   8.514  21.419  0.00  0.00    +0.000 A 
ATOM     23  N   UNL     1       1.516   7.703  20.815  0.00  0.00    +0.000 NA
ATOM     24  C   UNL     1       1.872   8.023  19.541  0.00  0.00    +0.000 A 
ATOM     25  N   UNL     1       2.832   7.196  18.881  0.00  0.00    +0.000 N 
ATOM     26  C   UNL     1       3.415   6.055  19.399  0.00  0.00    +0.000 A 
ATOM     27  C   UNL     1       4.295   5.582  18.457  0.00  0.00    +0.000 A 
ATOM     28  C   UNL     1       4.196   6.498  17.395  0.00  0.00    +0.000 A 
ATOM     29  N   UNL     1       3.319   7.473  17.635  0.00  0.00    +0.000 NA
ATOM     30  C   UNL     1       1.360   9.136  18.872  0.00  0.00    +0.000 A 
ENDBRANCH  19  20
ENDBRANCH   8  19
TORSDOF 5
ENDMDL
MODEL 4
REMARK VINA RESULT:      -6.4      3.954      9.267
REMARK  Name = 
REMARK  7 active torsions:
REMARK  status: ('A' for Active; 'I' for Inactive)
REMARK    1  A    between atoms: C_1  and  O_2
REMARK    2  A    between atoms: O_2  and  C_3
REMARK    3  A    between atoms: C_7  and  O_8
REMARK    4  A    between atoms: O_8  and  C_9
REMARK    5  A    between atoms: C_10  and  C_11
REMARK    6  A    between atoms: N_18  and  C_19
REMARK    7  A    between atoms: C_19  and  C_20
REMARK                            x       y       z     vdW  Elec       q    Type
REMARK                         _______ _______ _______ _____ _____    ______ ____
ROOT
ATOM      1  C   UNL     1       4.653   4.189  18.656  0.00  0.00    +0.000 C 
ATOM      2  C   UNL     1       4.248   3.235  17.494  0.00  0.00    +0.000 C 
ATOM      3  C   UNL     1       3.717   1.859  17.881  0.00  0.00    +0.000 C 
ATOM      4  C   UNL     1       2.453   1.912  18.718  0.00  0.00    +0.000 C 
ATOM      5  C   UNL     1       2.723   2.520  20.076  0.00  0.00    +0.000 C 
ATOM      6  C   UNL     1       2.585   4.026  20.100  0.00  0.00    +0.000 C 
ATOM      7  O   UNL     1       1.712   4.510  20.826  0.00  0.00    +0.000 OA
ATOM      8  N   UNL     1       3.491   4.809  19.368  0.00  0.00    +0.000 N 
ENDROOT
BRANCH   1  14
ATOM      9  C   UNL     1       5.593   5.677  16.788  0.00  0.00    +0.000 A 
ATOM     10  C   UNL     1       6.513   6.613  16.301  0.00  0.00    +0.000 A 
ATOM     11  C   UNL     1       7.561   7.058  17.100  0.00  0.00    +0.000 A 
ATOM     12  C   UNL     1       7.708   6.569  18.390  0.00  0.00    +0.000 A 
ATOM     13  C   UNL     1       6.794   5.643  18.912  0.00  0.00    +0.000 A 
ATOM     14  C   UNL     1       5.714   5.180  18.113  0.00  0.00    +0.000 A 
BRANCH   9  16
ATOM     15  C   UNL     1       4.891   4.704  14.718  0.00  0.00    +0.000 C 
ATOM     16  O   UNL     1       4.570   5.168  16.026  0.00  0.00    +0.000 OA
ENDBRANCH   9  16
BRANCH  13  17
ATOM     17  O   UNL     1       6.916   5.125  20.176  0.00  0.00    +0.000 OA
ATOM     18  C   UNL     1       8.209   5.181  20.773  0.00  0.00    +0.000 C 
ENDBRANCH  13  17
ENDBRANCH   1  14
BRANCH   8  19
ATOM     19  C   UNL     1       3.644   6.167  19.922  0.00  0.00    +0.000 C 
BRANCH  19  20
ATOM     20  C   UNL     1       2.701   7.226  19.387  0.00  0.00    +0.000 A 
ATOM     21  C   UNL     1       2.648   7.540  18.030  0.00  0.00    +0.000 A 
ATOM     22  C   UNL     1       1.826   8.575  17.616  0.00  0.00    +0.000 A 
ATOM     23  N   UNL     1       1.061   9.317  18.446  0.00  0.00    +0.000 NA
ATOM     24  C   UNL     1       1.110   9.003  19.769  0.00  0.00    +0.000 A 
ATOM     25  N   UNL     1       0.326   9.781  20.676  0.00  0.00    +0.000 N 
ATOM     26  C   UNL     1      -0.527  10.813  20.335  0.00  0.00    +0.000 A 
ATOM     27  C   UNL     1      -1.058  11.308  21.500  0.00  0.00    +0.000 A 
ATOM     28  C   UNL     1      -0.469  10.527  22.511  0.00  0.00    +0.000 A 
ATOM     29  N   UNL     1       0.364   9.604  22.030  0.00  0.00    +0.000 NA
ATOM     30  C   UNL     1       1.911   7.977  20.272  0.00  0.00    +0.000 A 
ENDBRANCH  19  20
ENDBRANCH   8  19
TORSDOF 5
ENDMDL
MODEL 5
REMARK VINA RESULT:      -6.3      2.866      6.675
REMARK  Name = 
REMARK  7 active torsions:
REMARK  status: ('A' for Active; 'I' for Inactive)
REMARK    1  A    between atoms: C_1  and  O_2
REMARK    2  A    between atoms: O_2  and  C_3
REMARK    3  A    between atoms: C_7  and  O_8
REMARK    4  A    between atoms: O_8  and  C_9
REMARK    5  A    between atoms: C_10  and  C_11
REMARK    6  A    between atoms: N_18  and  C_19
REMARK    7  A    between atoms: C_19  and  C_20
REMARK                            x       y       z     vdW  Elec       q    Type
REMARK                         _______ _______ _______ _____ _____    ______ ____
ROOT
ATOM      1  C   UNL     1       0.756  11.613  20.845  0.00  0.00    +0.000 C 
ATOM      2  C   UNL     1       0.716  10.546  19.712  0.00  0.00    +0.000 C 
ATOM      3  C   UNL     1       1.291   9.171  20.034  0.00  0.00    +0.000 C 
ATOM      4  C   UNL     1       0.575   8.468  21.172  0.00  0.00    +0.000 C 
ATOM      5  C   UNL     1       0.787   9.194  22.481  0.00  0.00    +0.000 C 
ATOM      6  C   UNL     1      -0.240  10.273  22.744  0.00  0.00    +0.000 C 
ATOM      7  O   UNL     1      -0.968  10.144  23.732  0.00  0.00    +0.000 OA
ATOM      8  N   UNL     1      -0.273  11.405  21.914  0.00  0.00    +0.000 N 
ENDROOT
BRANCH   1  14
ATOM      9  C   UNL     1      -0.229  13.336  19.218  0.00  0.00    +0.000 A 
ATOM     10  C   UNL     1      -0.269  14.614  18.650  0.00  0.00    +0.000 A 
ATOM     11  C   UNL     1       0.664  15.580  19.012  0.00  0.00    +0.000 A 
ATOM     12  C   UNL     1       1.653  15.279  19.939  0.00  0.00    +0.000 A 
ATOM     13  C   UNL     1       1.710  14.013  20.537  0.00  0.00    +0.000 A 
ATOM     14  C   UNL     1       0.762  13.014  20.184  0.00  0.00    +0.000 A 
BRANCH   9  16
ATOM     15  C   UNL     1      -1.430  12.211  17.481  0.00  0.00    +0.000 C 
ATOM     16  O   UNL     1      -1.095  12.331  18.860  0.00  0.00    +0.000 OA
ENDBRANCH   9  16
BRANCH  13  17
ATOM     17  O   UNL     1       2.681  13.672  21.444  0.00  0.00    +0.000 OA
ATOM     18  C   UNL     1       3.972  14.246  21.250  0.00  0.00    +0.000 C 
ENDBRANCH  13  17
ENDBRANCH   1  14
BRANCH   8  19
ATOM     19  C   UNL     1      -0.842  12.587  22.587  0.00  0.00    +0.000 C 
BRANCH  19  20
ATOM     20  C   UNL     1      -2.353  12.687  22.613  0.00  0.00    +0.000 A 
ATOM     21  C   UNL     1      -3.055  12.846  23.808  0.00  0.00    +0.000 A 
ATOM     22  C   UNL     1      -4.440  12.847  23.773  0.00  0.00    +0.000 A 
ATOM     23  N   UNL     1      -5.173  12.699  22.648  0.00  0.00    +0.000 NA
ATOM     24  C   UNL     1      -4.484  12.551  21.483  0.00  0.00    +0.000 A 
ATOM     25  N   UNL     1      -5.229  12.374  20.277  0.00  0.00    +0.000 N 
ATOM     26  C   UNL     1      -6.607  12.381  20.164  0.00  0.00    +0.000 A 
ATOM     27  C   UNL     1      -6.911  12.150  18.845  0.00  0.00    +0.000 A 
ATOM     28  C   UNL     1      -5.660  12.002  18.220  0.00  0.00    +0.000 A 
ATOM     29  N   UNL     1      -4.640  12.136  19.068  0.00  0.00    +0.000 NA
ATOM     30  C   UNL     1      -3.089  12.537  21.427  0.00  0.00    +0.000 A 
ENDBRANCH  19  20
ENDBRANCH   8  19
TORSDOF 5
ENDMDL
MODEL 6
REMARK VINA RESULT:      -6.3      3.488      6.812
REMARK  Name = 
REMARK  7 active torsions:
REMARK  status: ('A' for Active; 'I' for Inactive)
REMARK    1  A    between atoms: C_1  and  O_2
REMARK    2  A    between atoms: O_2  and  C_3
REMARK    3  A    between atoms: C_7  and  O_8
REMARK    4  A    between atoms: O_8  and  C_9
REMARK    5  A    between atoms: C_10  and  C_11
REMARK    6  A    between atoms: N_18  and  C_19
REMARK    7  A    between atoms: C_19  and  C_20
REMARK                            x       y       z     vdW  Elec       q    Type
REMARK                         _______ _______ _______ _____ _____    ______ ____
ROOT
ATOM      1  C   UNL     1      -0.345  13.304  21.135  0.00  0.00    +0.000 C 
ATOM      2  C   UNL     1      -0.171  14.833  20.901  0.00  0.00    +0.000 C 
ATOM      3  C   UNL     1       1.250  15.345  20.697  0.00  0.00    +0.000 C 
ATOM      4  C   UNL     1       1.940  14.747  19.485  0.00  0.00    +0.000 C 
ATOM      5  C   UNL     1       2.180  13.266  19.669  0.00  0.00    +0.000 C 
ATOM      6  C   UNL     1       1.024  12.406  19.208  0.00  0.00    +0.000 C 
ATOM      7  O   UNL     1       1.229  11.618  18.281  0.00  0.00    +0.000 OA
ATOM      8  N   UNL     1      -0.199  12.478  19.894  0.00  0.00    +0.000 N 
ENDROOT
BRANCH   1  14
ATOM      9  C   UNL     1      -1.686  12.129  22.981  0.00  0.00    +0.000 A 
ATOM     10  C   UNL     1      -2.846  11.960  23.746  0.00  0.00    +0.000 A 
ATOM     11  C   UNL     1      -3.984  12.716  23.485  0.00  0.00    +0.000 A 
ATOM     12  C   UNL     1      -3.980  13.644  22.452  0.00  0.00    +0.000 A 
ATOM     13  C   UNL     1      -2.830  13.847  21.679  0.00  0.00    +0.000 A 
ATOM     14  C   UNL     1      -1.656  13.088  21.933  0.00  0.00    +0.000 A 
BRANCH   9  16
ATOM     15  C   UNL     1      -0.698   9.958  23.169  0.00  0.00    +0.000 C 
ATOM     16  O   UNL     1      -0.553  11.376  23.165  0.00  0.00    +0.000 OA
ENDBRANCH   9  16
BRANCH  13  17
ATOM     17  O   UNL     1      -2.793  14.742  20.640  0.00  0.00    +0.000 OA
ATOM     18  C   UNL     1      -3.728  15.817  20.682  0.00  0.00    +0.000 C 
ENDBRANCH  13  17
ENDBRANCH   1  14
BRANCH   8  19
ATOM     19  C   UNL     1      -0.992  11.241  19.770  0.00  0.00    +0.000 C 
BRANCH  19  20
ATOM     20  C   UNL     1      -2.067  11.231  18.702  0.00  0.00    +0.000 A 
ATOM     21  C   UNL     1      -1.815  10.756  17.416  0.00  0.00    +0.000 A 
ATOM     22  C   UNL     1      -2.815  10.852  16.462  0.00  0.00    +0.000 A 
ATOM     23  N   UNL     1      -4.036  11.383  16.690  0.00  0.00    +0.000 NA
ATOM     24  C   UNL     1      -4.280  11.839  17.949  0.00  0.00    +0.000 A 
ATOM     25  N   UNL     1      -5.556  12.423  18.218  0.00  0.00    +0.000 N 
ATOM     26  C   UNL     1      -6.603  12.536  17.325  0.00  0.00    +0.000 A 
ATOM     27  C   UNL     1      -7.628  13.180  17.973  0.00  0.00    +0.000 A 
ATOM     28  C   UNL     1      -7.120  13.435  19.260  0.00  0.00    +0.000 A 
ATOM     29  N   UNL     1      -5.876  12.984  19.422  0.00  0.00    +0.000 NA
ATOM     30  C   UNL     1      -3.330  11.783  18.970  0.00  0.00    +0.000 A 
ENDBRANCH  19  20
ENDBRANCH   8  19
TORSDOF 5
ENDMDL
MODEL 7
REMARK VINA RESULT:      -6.2      9.176     11.180
REMARK  Name = 
REMARK  7 active torsions:
REMARK  status: ('A' for Active; 'I' for Inactive)
REMARK    1  A    between atoms: C_1  and  O_2
REMARK    2  A    between atoms: O_2  and  C_3
REMARK    3  A    between atoms: C_7  and  O_8
REMARK    4  A    between atoms: O_8  and  C_9
REMARK    5  A    between atoms: C_10  and  C_11
REMARK    6  A    between atoms: N_18  and  C_19
REMARK    7  A    between atoms: C_19  and  C_20
REMARK                            x       y       z     vdW  Elec       q    Type
REMARK                         _______ _______ _______ _____ _____    ______ ____
ROOT
ATOM      1  C   UNL     1       9.438  14.083  18.480  0.00  0.00    +0.000 C 
ATOM      2  C   UNL     1       8.128  13.368  18.037  0.00  0.00    +0.000 C 
ATOM      3  C   UNL     1       8.277  12.029  17.324  0.00  0.00    +0.000 C 
ATOM      4  C   UNL     1       8.961  10.969  18.165  0.00  0.00    +0.000 C 
ATOM      5  C   UNL     1      10.406  11.328  18.427  0.00  0.00    +0.000 C 
ATOM      6  C   UNL     1      10.600  12.176  19.665  0.00  0.00    +0.000 C 
ATOM      7  O   UNL     1      11.274  11.703  20.584  0.00  0.00    +0.000 OA
ATOM      8  N   UNL     1      10.081  13.480  19.691  0.00  0.00    +0.000 N 
ENDROOT
BRANCH   1  14
ATOM      9  C   UNL     1       9.971  16.510  17.839  0.00  0.00    +0.000 A 
ATOM     10  C   UNL     1       9.692  17.882  17.860  0.00  0.00    +0.000 A 
ATOM     11  C   UNL     1       8.619  18.375  18.593  0.00  0.00    +0.000 A 
ATOM     12  C   UNL     1       7.816  17.507  19.321  0.00  0.00    +0.000 A 
ATOM     13  C   UNL     1       8.060  16.128  19.308  0.00  0.00    +0.000 A 
ATOM     14  C   UNL     1       9.150  15.604  18.561  0.00  0.00    +0.000 A 
BRANCH   9  16
ATOM     15  C   UNL     1      12.333  16.517  17.457  0.00  0.00    +0.000 C 
ATOM     16  O   UNL     1      11.047  15.976  17.172  0.00  0.00    +0.000 OA
ENDBRANCH   9  16
BRANCH  13  17
ATOM     17  O   UNL     1       7.300  15.241  20.028  0.00  0.00    +0.000 OA
ATOM     18  C   UNL     1       6.288  15.793  20.866  0.00  0.00    +0.000 C 
ENDBRANCH  13  17
ENDBRANCH   1  14
BRANCH   8  19
ATOM     19  C   UNL     1      10.813  14.364  20.617  0.00  0.00    +0.000 C 
BRANCH  19  20
ATOM     20  C   UNL     1      10.102  14.734  21.903  0.00  0.00    +0.000 A 
ATOM     21  C   UNL     1      10.405  15.906  22.595  0.00  0.00    +0.000 A 
ATOM     22  C   UNL     1       9.780  16.145  23.808  0.00  0.00    +0.000 A 
ATOM     23  N   UNL     1       8.885  15.311  24.380  0.00  0.00    +0.000 NA
ATOM     24  C   UNL     1       8.586  14.171  23.698  0.00  0.00    +0.000 A 
ATOM     25  N   UNL     1       7.657  13.259  24.284  0.00  0.00    +0.000 N 
ATOM     26  C   UNL     1       6.983  13.438  25.477  0.00  0.00    +0.000 A 
ATOM     27  C   UNL     1       6.215  12.320  25.687  0.00  0.00    +0.000 A 
ATOM     28  C   UNL     1       6.485  11.499  24.578  0.00  0.00    +0.000 A 
ATOM     29  N   UNL     1       7.349  12.051  23.725  0.00  0.00    +0.000 NA
ATOM     30  C   UNL     1       9.171  13.851  22.471  0.00  0.00    +0.000 A 
ENDBRANCH  19  20
ENDBRANCH   8  19
TORSDOF 5
ENDMDL
MODEL 8
REMARK VINA RESULT:      -6.2      8.344     11.507
REMARK  Name = 
REMARK  7 active torsions:
REMARK  status: ('A' for Active; 'I' for Inactive)
REMARK    1  A    between atoms: C_1  and  O_2
REMARK    2  A    between atoms: O_2  and  C_3
REMARK    3  A    between atoms: C_7  and  O_8
REMARK    4  A    between atoms: O_8  and  C_9
REMARK    5  A    between atoms: C_10  and  C_11
REMARK    6  A    between atoms: N_18  and  C_19
REMARK    7  A    between atoms: C_19  and  C_20
REMARK                            x       y       z     vdW  Elec       q    Type
REMARK                         _______ _______ _______ _____ _____    ______ ____
ROOT
ATOM      1  C   UNL     1      10.174  15.078  19.461  0.00  0.00    +0.000 C 
ATOM      2  C   UNL     1      10.956  15.407  20.766  0.00  0.00    +0.000 C 
ATOM      3  C   UNL     1      11.801  16.676  20.766  0.00  0.00    +0.000 C 
ATOM      4  C   UNL     1      10.994  17.940  20.540  0.00  0.00    +0.000 C 
ATOM      5  C   UNL     1      10.409  17.972  19.146  0.00  0.00    +0.000 C 
ATOM      6  C   UNL     1       9.055  17.306  19.046  0.00  0.00    +0.000 C 
ATOM      7  O   UNL     1       8.094  18.007  18.715  0.00  0.00    +0.000 OA
ATOM      8  N   UNL     1       8.954  15.922  19.253  0.00  0.00    +0.000 N 
ENDROOT
BRANCH   1  14
ATOM      9  C   UNL     1      10.300  12.823  18.242  0.00  0.00    +0.000 A 
ATOM     10  C   UNL     1      10.150  11.432  18.202  0.00  0.00    +0.000 A 
ATOM     11  C   UNL     1       9.643  10.743  19.298  0.00  0.00    +0.000 A 
ATOM     12  C   UNL     1       9.274  11.433  20.444  0.00  0.00    +0.000 A 
ATOM     13  C   UNL     1       9.427  12.824  20.521  0.00  0.00    +0.000 A 
ATOM     14  C   UNL     1       9.947  13.546  19.413  0.00  0.00    +0.000 A 
BRANCH   9  16
ATOM     15  C   UNL     1      12.072  13.307  16.709  0.00  0.00    +0.000 C 
ATOM     16  O   UNL     1      10.748  13.558  17.171  0.00  0.00    +0.000 OA
ENDBRANCH   9  16
BRANCH  13  17
ATOM     17  O   UNL     1       9.058  13.543  21.629  0.00  0.00    +0.000 OA
ATOM     18  C   UNL     1       8.803  12.804  22.821  0.00  0.00    +0.000 C 
ENDBRANCH  13  17
ENDBRANCH   1  14
BRANCH   8  19
ATOM     19  C   UNL     1       7.793  15.328  18.565  0.00  0.00    +0.000 C 
BRANCH  19  20
ATOM     20  C   UNL     1       6.455  15.453  19.266  0.00  0.00    +0.000 A 
ATOM     21  C   UNL     1       6.234  14.894  20.525  0.00  0.00    +0.000 A 
ATOM     22  C   UNL     1       4.965  14.970  21.075  0.00  0.00    +0.000 A 
ATOM     23  N   UNL     1       3.908  15.554  20.470  0.00  0.00    +0.000 NA
ATOM     24  C   UNL     1       4.129  16.104  19.245  0.00  0.00    +0.000 A 
ATOM     25  N   UNL     1       3.027  16.713  18.570  0.00  0.00    +0.000 N 
ATOM     26  C   UNL     1       1.742  16.841  19.063  0.00  0.00    +0.000 A 
ATOM     27  C   UNL     1       0.991  17.456  18.092  0.00  0.00    +0.000 A 
ATOM     28  C   UNL     1       1.891  17.662  17.032  0.00  0.00    +0.000 A 
ATOM     29  N   UNL     1       3.120  17.221  17.306  0.00  0.00    +0.000 NA
ATOM     30  C   UNL     1       5.375  16.071  18.617  0.00  0.00    +0.000 A 
ENDBRANCH  19  20
ENDBRANCH   8  19
TORSDOF 5
ENDMDL
MODEL 9
REMARK VINA RESULT:      -6.2      8.503     11.234
REMARK  Name = 
REMARK  7 active torsions:
REMARK  status: ('A' for Active; 'I' for Inactive)
REMARK    1  A    between atoms: C_1  and  O_2
REMARK    2  A    between atoms: O_2  and  C_3
REMARK    3  A    between atoms: C_7  and  O_8
REMARK    4  A    between atoms: O_8  and  C_9
REMARK    5  A    between atoms: C_10  and  C_11
REMARK    6  A    between atoms: N_18  and  C_19
REMARK    7  A    between atoms: C_19  and  C_20
REMARK                            x       y       z     vdW  Elec       q    Type
REMARK                         _______ _______ _______ _____ _____    ______ ____
ROOT
ATOM      1  C   UNL     1      10.437  15.150  19.198  0.00  0.00    +0.000 C 
ATOM      2  C   UNL     1      11.350  15.530  20.401  0.00  0.00    +0.000 C 
ATOM      3  C   UNL     1      12.271  16.732  20.218  0.00  0.00    +0.000 C 
ATOM      4  C   UNL     1      11.528  18.027  19.948  0.00  0.00    +0.000 C 
ATOM      5  C   UNL     1      10.826  17.984  18.610  0.00  0.00    +0.000 C 
ATOM      6  C   UNL     1       9.428  17.410  18.682  0.00  0.00    +0.000 C 
ATOM      7  O   UNL     1       8.489  18.147  18.370  0.00  0.00    +0.000 OA
ATOM      8  N   UNL     1       9.259  16.058  19.018  0.00  0.00    +0.000 N 
ENDROOT
BRANCH   1  14
ATOM      9  C   UNL     1      10.332  12.795  18.185  0.00  0.00    +0.000 A 
ATOM     10  C   UNL     1      10.091  11.420  18.281  0.00  0.00    +0.000 A 
ATOM     11  C   UNL     1       9.621  10.865  19.467  0.00  0.00    +0.000 A 
ATOM     12  C   UNL     1       9.378  11.676  20.567  0.00  0.00    +0.000 A 
ATOM     13  C   UNL     1       9.625  13.054  20.506  0.00  0.00    +0.000 A 
ATOM     14  C   UNL     1      10.109  13.639  19.305  0.00  0.00    +0.000 A 
BRANCH   9  16
ATOM     15  C   UNL     1      12.116  13.245  16.655  0.00  0.00    +0.000 C 
ATOM     16  O   UNL     1      10.749  13.401  17.025  0.00  0.00    +0.000 OA
ENDBRANCH   9  16
BRANCH  13  17
ATOM     17  O   UNL     1       9.381  13.890  21.565  0.00  0.00    +0.000 OA
ATOM     18  C   UNL     1       8.762  13.313  22.712  0.00  0.00    +0.000 C 
ENDBRANCH  13  17
ENDBRANCH   1  14
BRANCH   8  19
ATOM     19  C   UNL     1       8.006  15.493  18.484  0.00  0.00    +0.000 C 
BRANCH  19  20
ATOM     20  C   UNL     1       6.816  15.480  19.422  0.00  0.00    +0.000 A 
ATOM     21  C   UNL     1       6.915  15.941  20.735  0.00  0.00    +0.000 A 
ATOM     22  C   UNL     1       5.814  15.824  21.567  0.00  0.00    +0.000 A 
ATOM     23  N   UNL     1       4.632  15.286  21.194  0.00  0.00    +0.000 NA
ATOM     24  C   UNL     1       4.537  14.845  19.910  0.00  0.00    +0.000 A 
ATOM     25  N   UNL     1       3.306  14.253  19.490  0.00  0.00    +0.000 N 
ATOM     26  C   UNL     1       2.165  14.120  20.256  0.00  0.00    +0.000 A 
ATOM     27  C   UNL     1       1.227  13.476  19.487  0.00  0.00    +0.000 A 
ATOM     28  C   UNL     1       1.881  13.242  18.265  0.00  0.00    +0.000 A 
ATOM     29  N   UNL     1       3.132  13.705  18.251  0.00  0.00    +0.000 NA
ATOM     30  C   UNL     1       5.598  14.921  19.005  0.00  0.00    +0.000 A 
ENDBRANCH  19  20
ENDBRANCH   8  19
TORSDOF 5
ENDMDL
