MODEL 1
REMARK VINA RESULT:      -7.9      0.000      0.000
REMARK  Name = 
REMARK  9 active torsions:
REMARK  status: ('A' for Active; 'I' for Inactive)
REMARK    1  A    between atoms: C_2  and  C_3
REMARK    2  A    between atoms: C_4  and  C_5
REMARK    3  A    between atoms: C_9  and  N_10
REMARK    4  A    between atoms: C_11  and  C_13
REMARK    5  A    between atoms: C_13  and  N_14
REMARK    6  A    between atoms: C_17  and  C_18
REMARK    7  A    between atoms: C_23  and  O_24
REMARK    8  A    between atoms: C_26  and  N_27
REMARK    9  A    between atoms: C_28  and  C_30
REMARK                            x       y       z     vdW  Elec       q    Type
REMARK                         _______ _______ _______ _____ _____    ______ ____
ROOT
ATOM      1  C   UNL     1       0.114  10.445  20.643  0.00  0.00    +0.000 A 
ATOM      2  C   UNL     1       1.127  10.301  19.667  0.00  0.00    +0.000 A 
ATOM      3  C   UNL     1       1.610  11.484  19.087  0.00  0.00    +0.000 A 
ATOM      4  C   UNL     1       1.143  12.729  19.476  0.00  0.00    +0.000 A 
ATOM      5  N   UNL     1       0.144  12.838  20.377  0.00  0.00    +0.000 NA
ATOM      6  C   UNL     1      -0.381  11.731  20.939  0.00  0.00    +0.000 A 
ENDROOT
BRANCH   2   7
ATOM      7  C   UNL     1       1.679   9.014  19.147  0.00  0.00    +0.000 A 
ATOM      8  C   UNL     1       2.173   8.894  17.840  0.00  0.00    +0.000 A 
ATOM      9  C   UNL     1       2.756   7.710  17.391  0.00  0.00    +0.000 A 
ATOM     10  C   UNL     1       2.904   6.625  18.251  0.00  0.00    +0.000 A 
ATOM     11  C   UNL     1       2.460   6.704  19.567  0.00  0.00    +0.000 A 
ATOM     12  C   UNL     1       1.834   7.886  19.997  0.00  0.00    +0.000 A 
BRANCH  11  13
ATOM     13  N   UNL     1       2.665   5.671  20.505  0.00  0.00    +0.000 N 
ATOM     14  C   UNL     1       1.896   4.530  20.666  0.00  0.00    +0.000 C 
ATOM     15  O   UNL     1       0.820   4.291  20.123  0.00  0.00    +0.000 OA
ATOM     16  H   UNL     1       3.465   5.732  21.129  0.00  0.00    +0.000 HD
BRANCH  14  17
ATOM     17  C   UNL     1       2.485   3.544  21.680  0.00  0.00    +0.000 C 
BRANCH  17  18
ATOM     18  N   UNL     1       1.477   2.559  22.122  0.00  0.00    +0.000 NA
ATOM     19  H   UNL     1       0.832   3.034  22.759  0.00  0.00    +0.000 HD
ATOM     20  H   UNL     1       1.957   1.872  22.709  0.00  0.00    +0.000 HD
ENDBRANCH  17  18
ENDBRANCH  14  17
ENDBRANCH  11  13
ENDBRANCH   2   7
BRANCH   4  21
ATOM     21  C   UNL     1       1.637  13.984  18.872  0.00  0.00    +0.000 A 
ATOM     22  C   UNL     1       2.902  14.005  18.253  0.00  0.00    +0.000 A 
ATOM     23  C   UNL     1       3.440  15.184  17.729  0.00  0.00    +0.000 A 
ATOM     24  C   UNL     1       2.719  16.372  17.802  0.00  0.00    +0.000 A 
ATOM     25  C   UNL     1       1.455  16.380  18.384  0.00  0.00    +0.000 A 
ATOM     26  C   UNL     1       0.920  15.198  18.905  0.00  0.00    +0.000 A 
BRANCH  26  27
ATOM     27  O   UNL     1      -0.341  15.244  19.449  0.00  0.00    +0.000 OA
ATOM     28  H   UNL     1      -0.886  15.855  18.927  0.00  0.00    +0.000 HD
ENDBRANCH  26  27
ENDBRANCH   4  21
BRANCH   6  29
ATOM     29  N   UNL     1      -1.472  11.898  21.824  0.00  0.00    +0.000 N 
ATOM     30  C   UNL     1      -2.595  12.676  21.575  0.00  0.00    +0.000 C 
ATOM     31  O   UNL     1      -2.793  13.313  20.544  0.00  0.00    +0.000 OA
ATOM     32  H   UNL     1      -1.503  11.348  22.674  0.00  0.00    +0.000 HD
BRANCH  30  33
ATOM     33  C   UNL     1      -3.612  12.647  22.630  0.00  0.00    +0.000 A 
ATOM     34  C   UNL     1      -3.409  12.288  23.954  0.00  0.00    +0.000 A 
ATOM     35  C   UNL     1      -4.588  12.398  24.745  0.00  0.00    +0.000 A 
ATOM     36  C   UNL     1      -5.665  12.830  24.002  0.00  0.00    +0.000 A 
ATOM     37  S   UNL     1      -5.248  13.088  22.361  0.00  0.00    +0.000 S 
ENDBRANCH  30  33
ENDBRANCH   6  29
BRANCH   1  39
ATOM     38  N   UNL     1      -0.909   8.358  21.789  0.00  0.00    +0.000 NA
ATOM     39  C   UNL     1      -0.459   9.312  21.310  0.00  0.00    +0.000 C 
ENDBRANCH   1  39
TORSDOF 9
ENDMDL
MODEL 2
REMARK VINA RESULT:      -7.7      3.131      7.907
REMARK  Name = 
REMARK  9 active torsions:
REMARK  status: ('A' for Active; 'I' for Inactive)
REMARK    1  A    between atoms: C_2  and  C_3
REMARK    2  A    between atoms: C_4  and  C_5
REMARK    3  A    between atoms: C_9  and  N_10
REMARK    4  A    between atoms: C_11  and  C_13
REMARK    5  A    between atoms: C_13  and  N_14
REMARK    6  A    between atoms: C_17  and  C_18
REMARK    7  A    between atoms: C_23  and  O_24
REMARK    8  A    between atoms: C_26  and  N_27
REMARK    9  A    between atoms: C_28  and  C_30
REMARK                            x       y       z     vdW  Elec       q    Type
REMARK                         _______ _______ _______ _____ _____    ______ ____
ROOT
ATOM      1  C   UNL     1      -0.425  12.535  21.554  0.00  0.00    +0.000 A 
ATOM      2  C   UNL     1      -0.896  13.824  21.893  0.00  0.00    +0.000 A 
ATOM      3  C   UNL     1      -0.502  14.876  21.052  0.00  0.00    +0.000 A 
ATOM      4  C   UNL     1       0.279  14.656  19.929  0.00  0.00    +0.000 A 
ATOM      5  N   UNL     1       0.754  13.423  19.652  0.00  0.00    +0.000 NA
ATOM      6  C   UNL     1       0.435  12.383  20.448  0.00  0.00    +0.000 A 
ENDROOT
BRANCH   2   7
ATOM      7  C   UNL     1      -1.710  14.181  23.093  0.00  0.00    +0.000 A 
ATOM      8  C   UNL     1      -1.150  14.833  24.201  0.00  0.00    +0.000 A 
ATOM      9  C   UNL     1      -1.935  15.231  25.283  0.00  0.00    +0.000 A 
ATOM     10  C   UNL     1      -3.312  15.028  25.267  0.00  0.00    +0.000 A 
ATOM     11  C   UNL     1      -3.922  14.414  24.178  0.00  0.00    +0.000 A 
ATOM     12  C   UNL     1      -3.116  13.978  23.113  0.00  0.00    +0.000 A 
BRANCH  11  13
ATOM     13  N   UNL     1      -5.320  14.265  24.070  0.00  0.00    +0.000 N 
ATOM     14  C   UNL     1      -6.048  13.098  24.242  0.00  0.00    +0.000 C 
ATOM     15  O   UNL     1      -5.591  11.965  24.372  0.00  0.00    +0.000 OA
ATOM     16  H   UNL     1      -5.883  15.086  23.864  0.00  0.00    +0.000 HD
BRANCH  14  17
ATOM     17  C   UNL     1      -7.563  13.320  24.197  0.00  0.00    +0.000 C 
BRANCH  17  18
ATOM     18  N   UNL     1      -7.892  14.726  23.889  0.00  0.00    +0.000 NA
ATOM     19  H   UNL     1      -8.082  15.205  24.773  0.00  0.00    +0.000 HD
ATOM     20  H   UNL     1      -8.790  14.729  23.397  0.00  0.00    +0.000 HD
ENDBRANCH  17  18
ENDBRANCH  14  17
ENDBRANCH  11  13
ENDBRANCH   2   7
BRANCH   4  21
ATOM     21  C   UNL     1       0.708  15.753  19.037  0.00  0.00    +0.000 A 
ATOM     22  C   UNL     1      -0.251  16.651  18.530  0.00  0.00    +0.000 A 
ATOM     23  C   UNL     1       0.097  17.661  17.629  0.00  0.00    +0.000 A 
ATOM     24  C   UNL     1       1.418  17.805  17.219  0.00  0.00    +0.000 A 
ATOM     25  C   UNL     1       2.396  16.950  17.720  0.00  0.00    +0.000 A 
ATOM     26  C   UNL     1       2.044  15.943  18.624  0.00  0.00    +0.000 A 
BRANCH  26  27
ATOM     27  O   UNL     1       3.042  15.136  19.113  0.00  0.00    +0.000 OA
ATOM     28  H   UNL     1       3.334  15.483  19.972  0.00  0.00    +0.000 HD
ENDBRANCH  26  27
ENDBRANCH   4  21
BRANCH   6  29
ATOM     29  N   UNL     1       1.015  11.127  20.150  0.00  0.00    +0.000 N 
ATOM     30  C   UNL     1       0.614  10.281  19.124  0.00  0.00    +0.000 C 
ATOM     31  O   UNL     1      -0.293  10.521  18.332  0.00  0.00    +0.000 OA
ATOM     32  H   UNL     1       1.847  10.841  20.652  0.00  0.00    +0.000 HD
BRANCH  30  33
ATOM     33  C   UNL     1       1.408   9.057  18.989  0.00  0.00    +0.000 A 
ATOM     34  C   UNL     1       2.054   8.622  17.842  0.00  0.00    +0.000 A 
ATOM     35  C   UNL     1       2.776   7.411  18.038  0.00  0.00    +0.000 A 
ATOM     36  C   UNL     1       2.655   6.945  19.329  0.00  0.00    +0.000 A 
ATOM     37  S   UNL     1       1.666   7.965  20.286  0.00  0.00    +0.000 S 
ENDBRANCH  30  33
ENDBRANCH   6  29
BRANCH   1  39
ATOM     38  N   UNL     1      -0.973  10.457  23.002  0.00  0.00    +0.000 NA
ATOM     39  C   UNL     1      -0.761  11.378  22.333  0.00  0.00    +0.000 C 
ENDBRANCH   1  39
TORSDOF 9
ENDMDL
MODEL 3
REMARK VINA RESULT:      -7.7      4.284      8.024
REMARK  Name = 
REMARK  9 active torsions:
REMARK  status: ('A' for Active; 'I' for Inactive)
REMARK    1  A    between atoms: C_2  and  C_3
REMARK    2  A    between atoms: C_4  and  C_5
REMARK    3  A    between atoms: C_9  and  N_10
REMARK    4  A    between atoms: C_11  and  C_13
REMARK    5  A    between atoms: C_13  and  N_14
REMARK    6  A    between atoms: C_17  and  C_18
REMARK    7  A    between atoms: C_23  and  O_24
REMARK    8  A    between atoms: C_26  and  N_27
REMARK    9  A    between atoms: C_28  and  C_30
REMARK                            x       y       z     vdW  Elec       q    Type
REMARK                         _______ _______ _______ _____ _____    ______ ____
ROOT
ATOM      1  C   UNL     1       0.171  12.424  18.641  0.00  0.00    +0.000 A 
ATOM      2  C   UNL     1      -0.664  11.302  18.427  0.00  0.00    +0.000 A 
ATOM      3  C   UNL     1      -0.043  10.044  18.460  0.00  0.00    +0.000 A 
ATOM      4  C   UNL     1       1.310   9.907  18.722  0.00  0.00    +0.000 A 
ATOM      5  N   UNL     1       2.095  10.995  18.877  0.00  0.00    +0.000 NA
ATOM      6  C   UNL     1       1.555  12.229  18.820  0.00  0.00    +0.000 A 
ENDROOT
BRANCH   2   7
ATOM      7  C   UNL     1      -2.122  11.333  18.103  0.00  0.00    +0.000 A 
ATOM      8  C   UNL     1      -3.071  11.829  19.008  0.00  0.00    +0.000 A 
ATOM      9  C   UNL     1      -4.420  11.925  18.665  0.00  0.00    +0.000 A 
ATOM     10  C   UNL     1      -4.850  11.569  17.390  0.00  0.00    +0.000 A 
ATOM     11  C   UNL     1      -3.943  11.101  16.445  0.00  0.00    +0.000 A 
ATOM     12  C   UNL     1      -2.595  10.967  16.815  0.00  0.00    +0.000 A 
BRANCH  11  13
ATOM     13  N   UNL     1      -4.309  10.812  15.114  0.00  0.00    +0.000 N 
ATOM     14  C   UNL     1      -3.561  10.116  14.178  0.00  0.00    +0.000 C 
ATOM     15  O   UNL     1      -2.391   9.759  14.297  0.00  0.00    +0.000 OA
ATOM     16  H   UNL     1      -5.221  11.117  14.783  0.00  0.00    +0.000 HD
BRANCH  14  17
ATOM     17  C   UNL     1      -4.318   9.855  12.873  0.00  0.00    +0.000 C 
BRANCH  17  18
ATOM     18  N   UNL     1      -3.391   9.672  11.739  0.00  0.00    +0.000 NA
ATOM     19  H   UNL     1      -2.742   8.920  11.982  0.00  0.00    +0.000 HD
ATOM     20  H   UNL     1      -2.804  10.509  11.685  0.00  0.00    +0.000 HD
ENDBRANCH  17  18
ENDBRANCH  14  17
ENDBRANCH  11  13
ENDBRANCH   2   7
BRANCH   4  21
ATOM     21  C   UNL     1       1.981   8.591  18.753  0.00  0.00    +0.000 A 
ATOM     22  C   UNL     1       2.700   8.152  17.625  0.00  0.00    +0.000 A 
ATOM     23  C   UNL     1       3.293   6.886  17.582  0.00  0.00    +0.000 A 
ATOM     24  C   UNL     1       3.189   6.031  18.675  0.00  0.00    +0.000 A 
ATOM     25  C   UNL     1       2.507   6.444  19.815  0.00  0.00    +0.000 A 
ATOM     26  C   UNL     1       1.917   7.711  19.854  0.00  0.00    +0.000 A 
BRANCH  26  27
ATOM     27  O   UNL     1       1.274   8.089  21.007  0.00  0.00    +0.000 OA
ATOM     28  H   UNL     1       0.374   7.723  20.999  0.00  0.00    +0.000 HD
ENDBRANCH  26  27
ENDBRANCH   4  21
BRANCH   6  29
ATOM     29  N   UNL     1       2.433  13.334  18.921  0.00  0.00    +0.000 N 
ATOM     30  C   UNL     1       2.950  13.842  20.106  0.00  0.00    +0.000 C 
ATOM     31  O   UNL     1       2.719  13.388  21.224  0.00  0.00    +0.000 OA
ATOM     32  H   UNL     1       2.800  13.748  18.073  0.00  0.00    +0.000 HD
BRANCH  30  33
ATOM     33  C   UNL     1       3.879  14.963  19.943  0.00  0.00    +0.000 A 
ATOM     34  C   UNL     1       4.891  15.058  19.000  0.00  0.00    +0.000 A 
ATOM     35  C   UNL     1       5.601  16.290  19.071  0.00  0.00    +0.000 A 
ATOM     36  C   UNL     1       5.119  17.102  20.074  0.00  0.00    +0.000 A 
ATOM     37  S   UNL     1       3.826  16.369  20.925  0.00  0.00    +0.000 S 
ENDBRANCH  30  33
ENDBRANCH   6  29
BRANCH   1  39
ATOM     38  N   UNL     1      -0.705  14.862  18.671  0.00  0.00    +0.000 NA
ATOM     39  C   UNL     1      -0.345  13.762  18.635  0.00  0.00    +0.000 C 
ENDBRANCH   1  39
TORSDOF 9
ENDMDL
MODEL 4
REMARK VINA RESULT:      -7.6      3.046      7.783
REMARK  Name = 
REMARK  9 active torsions:
REMARK  status: ('A' for Active; 'I' for Inactive)
REMARK    1  A    between atoms: C_2  and  C_3
REMARK    2  A    between atoms: C_4  and  C_5
REMARK    3  A    between atoms: C_9  and  N_10
REMARK    4  A    between atoms: C_11  and  C_13
REMARK    5  A    between atoms: C_13  and  N_14
REMARK    6  A    between atoms: C_17  and  C_18
REMARK    7  A    between atoms: C_23  and  O_24
REMARK    8  A    between atoms: C_26  and  N_27
REMARK    9  A    between atoms: C_28  and  C_30
REMARK                            x       y       z     vdW  Elec       q    Type
REMARK                         _______ _______ _______ _____ _____    ______ ____
ROOT
ATOM      1  C   UNL     1      -0.339  12.389  21.646  0.00  0.00    +0.000 A 
ATOM      2  C   UNL     1      -0.814  13.673  22.001  0.00  0.00    +0.000 A 
ATOM      3  C   UNL     1      -0.469  14.727  21.142  0.00  0.00    +0.000 A 
ATOM      4  C   UNL     1       0.267  14.515  19.989  0.00  0.00    +0.000 A 
ATOM      5  N   UNL     1       0.747  13.288  19.695  0.00  0.00    +0.000 NA
ATOM      6  C   UNL     1       0.476  12.246  20.506  0.00  0.00    +0.000 A 
ENDROOT
BRANCH   2   7
ATOM      7  C   UNL     1      -1.583  14.022  23.233  0.00  0.00    +0.000 A 
ATOM      8  C   UNL     1      -1.069  14.895  24.204  0.00  0.00    +0.000 A 
ATOM      9  C   UNL     1      -1.827  15.275  25.311  0.00  0.00    +0.000 A 
ATOM     10  C   UNL     1      -3.137  14.828  25.457  0.00  0.00    +0.000 A 
ATOM     11  C   UNL     1      -3.704  13.985  24.506  0.00  0.00    +0.000 A 
ATOM     12  C   UNL     1      -2.918  13.574  23.417  0.00  0.00    +0.000 A 
BRANCH  11  13
ATOM     13  N   UNL     1      -5.052  13.576  24.556  0.00  0.00    +0.000 N 
ATOM     14  C   UNL     1      -6.090  14.027  23.755  0.00  0.00    +0.000 C 
ATOM     15  O   UNL     1      -6.046  14.966  22.965  0.00  0.00    +0.000 OA
ATOM     16  H   UNL     1      -5.319  12.860  25.227  0.00  0.00    +0.000 HD
BRANCH  14  17
ATOM     17  C   UNL     1      -7.399  13.265  23.977  0.00  0.00    +0.000 C 
BRANCH  17  18
ATOM     18  N   UNL     1      -7.187  11.804  23.932  0.00  0.00    +0.000 NA
ATOM     19  H   UNL     1      -8.059  11.370  23.619  0.00  0.00    +0.000 HD
ATOM     20  H   UNL     1      -7.071  11.481  24.896  0.00  0.00    +0.000 HD
ENDBRANCH  17  18
ENDBRANCH  14  17
ENDBRANCH  11  13
ENDBRANCH   2   7
BRANCH   4  21
ATOM     21  C   UNL     1       0.644  15.615  19.077  0.00  0.00    +0.000 A 
ATOM     22  C   UNL     1       1.985  15.748  18.666  0.00  0.00    +0.000 A 
ATOM     23  C   UNL     1       2.401  16.811  17.860  0.00  0.00    +0.000 A 
ATOM     24  C   UNL     1       1.482  17.766  17.436  0.00  0.00    +0.000 A 
ATOM     25  C   UNL     1       0.145  17.650  17.803  0.00  0.00    +0.000 A 
ATOM     26  C   UNL     1      -0.268  16.584  18.607  0.00  0.00    +0.000 A 
BRANCH  26  27
ATOM     27  O   UNL     1      -1.601  16.493  18.927  0.00  0.00    +0.000 OA
ATOM     28  H   UNL     1      -1.725  16.796  19.842  0.00  0.00    +0.000 HD
ENDBRANCH  26  27
ENDBRANCH   4  21
BRANCH   6  29
ATOM     29  N   UNL     1       1.060  10.997  20.187  0.00  0.00    +0.000 N 
ATOM     30  C   UNL     1       0.663  10.167  19.147  0.00  0.00    +0.000 C 
ATOM     31  O   UNL     1      -0.245  10.417  18.359  0.00  0.00    +0.000 OA
ATOM     32  H   UNL     1       1.894  10.705  20.684  0.00  0.00    +0.000 HD
BRANCH  30  33
ATOM     33  C   UNL     1       1.460   8.948  18.991  0.00  0.00    +0.000 A 
ATOM     34  C   UNL     1       2.126   8.546  17.843  0.00  0.00    +0.000 A 
ATOM     35  C   UNL     1       2.847   7.330  18.019  0.00  0.00    +0.000 A 
ATOM     36  C   UNL     1       2.706   6.830  19.294  0.00  0.00    +0.000 A 
ATOM     37  S   UNL     1       1.700   7.822  20.262  0.00  0.00    +0.000 S 
ENDBRANCH  30  33
ENDBRANCH   6  29
BRANCH   1  39
ATOM     38  N   UNL     1      -0.929  10.315  23.083  0.00  0.00    +0.000 NA
ATOM     39  C   UNL     1      -0.627  11.230  22.441  0.00  0.00    +0.000 C 
ENDBRANCH   1  39
TORSDOF 9
ENDMDL
MODEL 5
REMARK VINA RESULT:      -7.5      3.153      7.767
REMARK  Name = 
REMARK  9 active torsions:
REMARK  status: ('A' for Active; 'I' for Inactive)
REMARK    1  A    between atoms: C_2  and  C_3
REMARK    2  A    between atoms: C_4  and  C_5
REMARK    3  A    between atoms: C_9  and  N_10
REMARK    4  A    between atoms: C_11  and  C_13
REMARK    5  A    between atoms: C_13  and  N_14
REMARK    6  A    between atoms: C_17  and  C_18
REMARK    7  A    between atoms: C_23  and  O_24
REMARK    8  A    between atoms: C_26  and  N_27
REMARK    9  A    between atoms: C_28  and  C_30
REMARK                            x       y       z     vdW  Elec       q    Type
REMARK                         _______ _______ _______ _____ _____    ______ ____
ROOT
ATOM      1  C   UNL     1      -0.329  12.360  21.788  0.00  0.00    +0.000 A 
ATOM      2  C   UNL     1      -0.802  13.649  22.127  0.00  0.00    +0.000 A 
ATOM      3  C   UNL     1      -0.422  14.699  21.278  0.00  0.00    +0.000 A 
ATOM      4  C   UNL     1       0.347  14.477  20.147  0.00  0.00    +0.000 A 
ATOM      5  N   UNL     1       0.824  13.245  19.869  0.00  0.00    +0.000 NA
ATOM      6  C   UNL     1       0.518  12.208  20.673  0.00  0.00    +0.000 A 
ENDROOT
BRANCH   2   7
ATOM      7  C   UNL     1      -1.604  14.008  23.335  0.00  0.00    +0.000 A 
ATOM      8  C   UNL     1      -1.145  14.937  24.280  0.00  0.00    +0.000 A 
ATOM      9  C   UNL     1      -1.936  15.323  25.362  0.00  0.00    +0.000 A 
ATOM     10  C   UNL     1      -3.227  14.822  25.506  0.00  0.00    +0.000 A 
ATOM     11  C   UNL     1      -3.741  13.921  24.580  0.00  0.00    +0.000 A 
ATOM     12  C   UNL     1      -2.921  13.506  23.517  0.00  0.00    +0.000 A 
BRANCH  11  13
ATOM     13  N   UNL     1      -5.070  13.453  24.627  0.00  0.00    +0.000 N 
ATOM     14  C   UNL     1      -6.065  13.677  23.689  0.00  0.00    +0.000 C 
ATOM     15  O   UNL     1      -6.006  14.444  22.731  0.00  0.00    +0.000 OA
ATOM     16  H   UNL     1      -5.353  12.869  25.410  0.00  0.00    +0.000 HD
BRANCH  14  17
ATOM     17  C   UNL     1      -7.353  12.900  23.978  0.00  0.00    +0.000 C 
BRANCH  17  18
ATOM     18  N   UNL     1      -7.485  11.727  23.090  0.00  0.00    +0.000 NA
ATOM     19  H   UNL     1      -8.309  11.870  22.501  0.00  0.00    +0.000 HD
ATOM     20  H   UNL     1      -7.726  10.925  23.678  0.00  0.00    +0.000 HD
ENDBRANCH  17  18
ENDBRANCH  14  17
ENDBRANCH  11  13
ENDBRANCH   2   7
BRANCH   4  21
ATOM     21  C   UNL     1       0.761  15.572  19.245  0.00  0.00    +0.000 A 
ATOM     22  C   UNL     1      -0.206  16.472  18.756  0.00  0.00    +0.000 A 
ATOM     23  C   UNL     1       0.127  17.480  17.846  0.00  0.00    +0.000 A 
ATOM     24  C   UNL     1       1.441  17.620  17.411  0.00  0.00    +0.000 A 
ATOM     25  C   UNL     1       2.425  16.764  17.895  0.00  0.00    +0.000 A 
ATOM     26  C   UNL     1       2.089  15.758  18.805  0.00  0.00    +0.000 A 
BRANCH  26  27
ATOM     27  O   UNL     1       3.094  14.950  19.276  0.00  0.00    +0.000 OA
ATOM     28  H   UNL     1       3.421  14.397  18.547  0.00  0.00    +0.000 HD
ENDBRANCH  26  27
ENDBRANCH   4  21
BRANCH   6  29
ATOM     29  N   UNL     1       1.100  10.953  20.374  0.00  0.00    +0.000 N 
ATOM     30  C   UNL     1       0.665  10.083  19.382  0.00  0.00    +0.000 C 
ATOM     31  O   UNL     1      -0.278  10.297  18.626  0.00  0.00    +0.000 OA
ATOM     32  H   UNL     1       1.956  10.685  20.844  0.00  0.00    +0.000 HD
BRANCH  30  33
ATOM     33  C   UNL     1       1.467   8.865  19.235  0.00  0.00    +0.000 A 
ATOM     34  C   UNL     1       1.675   7.899  20.207  0.00  0.00    +0.000 A 
ATOM     35  C   UNL     1       2.472   6.812  19.747  0.00  0.00    +0.000 A 
ATOM     36  C   UNL     1       2.862   6.982  18.437  0.00  0.00    +0.000 A 
ATOM     37  S   UNL     1       2.272   8.449  17.779  0.00  0.00    +0.000 S 
ENDBRANCH  30  33
ENDBRANCH   6  29
BRANCH   1  39
ATOM     38  N   UNL     1      -0.950  10.248  23.155  0.00  0.00    +0.000 NA
ATOM     39  C   UNL     1      -0.652  11.205  22.576  0.00  0.00    +0.000 C 
ENDBRANCH   1  39
TORSDOF 9
ENDMDL
MODEL 6
REMARK VINA RESULT:      -7.5      3.827      7.847
REMARK  Name = 
REMARK  9 active torsions:
REMARK  status: ('A' for Active; 'I' for Inactive)
REMARK    1  A    between atoms: C_2  and  C_3
REMARK    2  A    between atoms: C_4  and  C_5
REMARK    3  A    between atoms: C_9  and  N_10
REMARK    4  A    between atoms: C_11  and  C_13
REMARK    5  A    between atoms: C_13  and  N_14
REMARK    6  A    between atoms: C_17  and  C_18
REMARK    7  A    between atoms: C_23  and  O_24
REMARK    8  A    between atoms: C_26  and  N_27
REMARK    9  A    between atoms: C_28  and  C_30
REMARK                            x       y       z     vdW  Elec       q    Type
REMARK                         _______ _______ _______ _____ _____    ______ ____
ROOT
ATOM      1  C   UNL     1      -0.117  12.385  19.193  0.00  0.00    +0.000 A 
ATOM      2  C   UNL     1      -0.851  11.323  18.617  0.00  0.00    +0.000 A 
ATOM      3  C   UNL     1      -0.211  10.075  18.565  0.00  0.00    +0.000 A 
ATOM      4  C   UNL     1       1.059   9.887  19.084  0.00  0.00    +0.000 A 
ATOM      5  N   UNL     1       1.757  10.927  19.589  0.00  0.00    +0.000 NA
ATOM      6  C   UNL     1       1.203  12.154  19.629  0.00  0.00    +0.000 A 
ENDROOT
BRANCH   2   7
ATOM      7  C   UNL     1      -2.207  11.418  17.997  0.00  0.00    +0.000 A 
ATOM      8  C   UNL     1      -2.422  11.139  16.640  0.00  0.00    +0.000 A 
ATOM      9  C   UNL     1      -3.704  11.156  16.090  0.00  0.00    +0.000 A 
ATOM     10  C   UNL     1      -4.813  11.407  16.893  0.00  0.00    +0.000 A 
ATOM     11  C   UNL     1      -4.656  11.658  18.252  0.00  0.00    +0.000 A 
ATOM     12  C   UNL     1      -3.357  11.683  18.787  0.00  0.00    +0.000 A 
BRANCH  11  13
ATOM     13  N   UNL     1      -5.748  11.830  19.127  0.00  0.00    +0.000 N 
ATOM     14  C   UNL     1      -6.656  10.861  19.525  0.00  0.00    +0.000 C 
ATOM     15  O   UNL     1      -6.756   9.724  19.071  0.00  0.00    +0.000 OA
ATOM     16  H   UNL     1      -5.901  12.746  19.543  0.00  0.00    +0.000 HD
BRANCH  14  17
ATOM     17  C   UNL     1      -7.631  11.352  20.599  0.00  0.00    +0.000 C 
BRANCH  17  18
ATOM     18  N   UNL     1      -7.881  10.311  21.617  0.00  0.00    +0.000 NA
ATOM     19  H   UNL     1      -8.317   9.513  21.149  0.00  0.00    +0.000 HD
ATOM     20  H   UNL     1      -8.605  10.667  22.246  0.00  0.00    +0.000 HD
ENDBRANCH  17  18
ENDBRANCH  14  17
ENDBRANCH  11  13
ENDBRANCH   2   7
BRANCH   4  21
ATOM     21  C   UNL     1       1.750   8.582  19.033  0.00  0.00    +0.000 A 
ATOM     22  C   UNL     1       2.296   8.133  17.815  0.00  0.00    +0.000 A 
ATOM     23  C   UNL     1       2.897   6.876  17.701  0.00  0.00    +0.000 A 
ATOM     24  C   UNL     1       2.976   6.039  18.810  0.00  0.00    +0.000 A 
ATOM     25  C   UNL     1       2.470   6.462  20.035  0.00  0.00    +0.000 A 
ATOM     26  C   UNL     1       1.871   7.721  20.144  0.00  0.00    +0.000 A 
BRANCH  26  27
ATOM     27  O   UNL     1       1.405   8.110  21.376  0.00  0.00    +0.000 OA
ATOM     28  H   UNL     1       2.112   8.585  21.844  0.00  0.00    +0.000 HD
ENDBRANCH  26  27
ENDBRANCH   4  21
BRANCH   6  29
ATOM     29  N   UNL     1       2.003  13.220  20.105  0.00  0.00    +0.000 N 
ATOM     30  C   UNL     1       2.964  13.894  19.363  0.00  0.00    +0.000 C 
ATOM     31  O   UNL     1       3.237  13.659  18.189  0.00  0.00    +0.000 OA
ATOM     32  H   UNL     1       1.817  13.600  21.025  0.00  0.00    +0.000 HD
BRANCH  30  33
ATOM     33  C   UNL     1       3.625  14.997  20.066  0.00  0.00    +0.000 A 
ATOM     34  C   UNL     1       3.007  15.946  20.866  0.00  0.00    +0.000 A 
ATOM     35  C   UNL     1       3.926  16.868  21.442  0.00  0.00    +0.000 A 
ATOM     36  C   UNL     1       5.223  16.606  21.060  0.00  0.00    +0.000 A 
ATOM     37  S   UNL     1       5.319  15.260  20.006  0.00  0.00    +0.000 S 
ENDBRANCH  30  33
ENDBRANCH   6  29
BRANCH   1  39
ATOM     38  N   UNL     1      -1.059  14.794  19.344  0.00  0.00    +0.000 NA
ATOM     39  C   UNL     1      -0.663  13.707  19.306  0.00  0.00    +0.000 C 
ENDBRANCH   1  39
TORSDOF 9
ENDMDL
MODEL 7
REMARK VINA RESULT:      -7.5      4.372      8.092
REMARK  Name = 
REMARK  9 active torsions:
REMARK  status: ('A' for Active; 'I' for Inactive)
REMARK    1  A    between atoms: C_2  and  C_3
REMARK    2  A    between atoms: C_4  and  C_5
REMARK    3  A    between atoms: C_9  and  N_10
REMARK    4  A    between atoms: C_11  and  C_13
REMARK    5  A    between atoms: C_13  and  N_14
REMARK    6  A    between atoms: C_17  and  C_18
REMARK    7  A    between atoms: C_23  and  O_24
REMARK    8  A    between atoms: C_26  and  N_27
REMARK    9  A    between atoms: C_28  and  C_30
REMARK                            x       y       z     vdW  Elec       q    Type
REMARK                         _______ _______ _______ _____ _____    ______ ____
ROOT
ATOM      1  C   UNL     1       0.068  12.353  18.770  0.00  0.00    +0.000 A 
ATOM      2  C   UNL     1      -0.822  11.266  18.608  0.00  0.00    +0.000 A 
ATOM      3  C   UNL     1      -0.275   9.982  18.751  0.00  0.00    +0.000 A 
ATOM      4  C   UNL     1       1.060   9.791  19.067  0.00  0.00    +0.000 A 
ATOM      5  N   UNL     1       1.900  10.843  19.172  0.00  0.00    +0.000 NA
ATOM      6  C   UNL     1       1.433  12.097  19.009  0.00  0.00    +0.000 A 
ENDROOT
BRANCH   2   7
ATOM      7  C   UNL     1      -2.266  11.352  18.234  0.00  0.00    +0.000 A 
ATOM      8  C   UNL     1      -3.223  11.908  19.096  0.00  0.00    +0.000 A 
ATOM      9  C   UNL     1      -4.553  12.054  18.705  0.00  0.00    +0.000 A 
ATOM     10  C   UNL     1      -4.956  11.689  17.423  0.00  0.00    +0.000 A 
ATOM     11  C   UNL     1      -4.039  11.162  16.520  0.00  0.00    +0.000 A 
ATOM     12  C   UNL     1      -2.711  10.979  16.938  0.00  0.00    +0.000 A 
BRANCH  11  13
ATOM     13  N   UNL     1      -4.373  10.861  15.183  0.00  0.00    +0.000 N 
ATOM     14  C   UNL     1      -3.622  10.118  14.286  0.00  0.00    +0.000 C 
ATOM     15  O   UNL     1      -2.472   9.719  14.450  0.00  0.00    +0.000 OA
ATOM     16  H   UNL     1      -5.261  11.193  14.816  0.00  0.00    +0.000 HD
BRANCH  14  17
ATOM     17  C   UNL     1      -4.347   9.859  12.961  0.00  0.00    +0.000 C 
BRANCH  17  18
ATOM     18  N   UNL     1      -3.391   9.699  11.847  0.00  0.00    +0.000 NA
ATOM     19  H   UNL     1      -2.528  10.185  12.101  0.00  0.00    +0.000 HD
ATOM     20  H   UNL     1      -3.759  10.227  11.051  0.00  0.00    +0.000 HD
ENDBRANCH  17  18
ENDBRANCH  14  17
ENDBRANCH  11  13
ENDBRANCH   2   7
BRANCH   4  21
ATOM     21  C   UNL     1       1.654   8.446  19.214  0.00  0.00    +0.000 A 
ATOM     22  C   UNL     1       1.423   7.710  20.393  0.00  0.00    +0.000 A 
ATOM     23  C   UNL     1       2.020   6.464  20.607  0.00  0.00    +0.000 A 
ATOM     24  C   UNL     1       2.856   5.917  19.639  0.00  0.00    +0.000 A 
ATOM     25  C   UNL     1       3.085   6.606  18.452  0.00  0.00    +0.000 A 
ATOM     26  C   UNL     1       2.485   7.851  18.241  0.00  0.00    +0.000 A 
BRANCH  26  27
ATOM     27  O   UNL     1       2.717   8.487  17.046  0.00  0.00    +0.000 OA
ATOM     28  H   UNL     1       2.013   9.139  16.895  0.00  0.00    +0.000 HD
ENDBRANCH  26  27
ENDBRANCH   4  21
BRANCH   6  29
ATOM     29  N   UNL     1       2.368  13.157  19.062  0.00  0.00    +0.000 N 
ATOM     30  C   UNL     1       2.848  13.747  20.224  0.00  0.00    +0.000 C 
ATOM     31  O   UNL     1       2.529  13.414  21.362  0.00  0.00    +0.000 OA
ATOM     32  H   UNL     1       2.806  13.468  18.202  0.00  0.00    +0.000 HD
BRANCH  30  33
ATOM     33  C   UNL     1       3.851  14.795  20.015  0.00  0.00    +0.000 A 
ATOM     34  C   UNL     1       3.834  15.757  19.017  0.00  0.00    +0.000 A 
ATOM     35  C   UNL     1       4.932  16.661  19.102  0.00  0.00    +0.000 A 
ATOM     36  C   UNL     1       5.764  16.359  20.156  0.00  0.00    +0.000 A 
ATOM     37  S   UNL     1       5.222  14.988  21.027  0.00  0.00    +0.000 S 
ENDBRANCH  30  33
ENDBRANCH   6  29
BRANCH   1  39
ATOM     38  N   UNL     1      -0.670  14.830  18.600  0.00  0.00    +0.000 NA
ATOM     39  C   UNL     1      -0.372  13.713  18.652  0.00  0.00    +0.000 C 
ENDBRANCH   1  39
TORSDOF 9
ENDMDL
MODEL 8
REMARK VINA RESULT:      -7.4      3.538      8.054
REMARK  Name = 
REMARK  9 active torsions:
REMARK  status: ('A' for Active; 'I' for Inactive)
REMARK    1  A    between atoms: C_2  and  C_3
REMARK    2  A    between atoms: C_4  and  C_5
REMARK    3  A    between atoms: C_9  and  N_10
REMARK    4  A    between atoms: C_11  and  C_13
REMARK    5  A    between atoms: C_13  and  N_14
REMARK    6  A    between atoms: C_17  and  C_18
REMARK    7  A    between atoms: C_23  and  O_24
REMARK    8  A    between atoms: C_26  and  N_27
REMARK    9  A    between atoms: C_28  and  C_30
REMARK                            x       y       z     vdW  Elec       q    Type
REMARK                         _______ _______ _______ _____ _____    ______ ____
ROOT
ATOM      1  C   UNL     1      -0.470  12.972  19.731  0.00  0.00    +0.000 A 
ATOM      2  C   UNL     1      -1.310  11.902  19.345  0.00  0.00    +0.000 A 
ATOM      3  C   UNL     1      -0.712  10.636  19.261  0.00  0.00    +0.000 A 
ATOM      4  C   UNL     1       0.623  10.439  19.573  0.00  0.00    +0.000 A 
ATOM      5  N   UNL     1       1.416  11.483  19.895  0.00  0.00    +0.000 NA
ATOM      6  C   UNL     1       0.900  12.727  19.956  0.00  0.00    +0.000 A 
ENDROOT
BRANCH   2   7
ATOM      7  C   UNL     1      -2.748  12.003  18.954  0.00  0.00    +0.000 A 
ATOM      8  C   UNL     1      -3.194  11.639  17.675  0.00  0.00    +0.000 A 
ATOM      9  C   UNL     1      -4.549  11.664  17.345  0.00  0.00    +0.000 A 
ATOM     10  C   UNL     1      -5.501  12.011  18.300  0.00  0.00    +0.000 A 
ATOM     11  C   UNL     1      -5.113  12.350  19.592  0.00  0.00    +0.000 A 
ATOM     12  C   UNL     1      -3.743  12.364  19.901  0.00  0.00    +0.000 A 
BRANCH  11  13
ATOM     13  N   UNL     1      -6.039  12.621  20.620  0.00  0.00    +0.000 N 
ATOM     14  C   UNL     1      -6.907  11.721  21.216  0.00  0.00    +0.000 C 
ATOM     15  O   UNL     1      -7.127  10.568  20.853  0.00  0.00    +0.000 OA
ATOM     16  H   UNL     1      -6.083  13.564  21.000  0.00  0.00    +0.000 HD
BRANCH  14  17
ATOM     17  C   UNL     1      -7.672  12.316  22.403  0.00  0.00    +0.000 C 
BRANCH  17  18
ATOM     18  N   UNL     1      -6.926  12.144  23.666  0.00  0.00    +0.000 NA
ATOM     19  H   UNL     1      -7.503  12.515  24.424  0.00  0.00    +0.000 HD
ATOM     20  H   UNL     1      -6.116  12.769  23.630  0.00  0.00    +0.000 HD
ENDBRANCH  17  18
ENDBRANCH  14  17
ENDBRANCH  11  13
ENDBRANCH   2   7
BRANCH   4  21
ATOM     21  C   UNL     1       1.270   9.113  19.484  0.00  0.00    +0.000 A 
ATOM     22  C   UNL     1       1.218   8.240  20.587  0.00  0.00    +0.000 A 
ATOM     23  C   UNL     1       1.873   7.005  20.575  0.00  0.00    +0.000 A 
ATOM     24  C   UNL     1       2.589   6.608  19.450  0.00  0.00    +0.000 A 
ATOM     25  C   UNL     1       2.640   7.436  18.333  0.00  0.00    +0.000 A 
ATOM     26  C   UNL     1       1.981   8.669  18.350  0.00  0.00    +0.000 A 
BRANCH  26  27
ATOM     27  O   UNL     1       2.036   9.446  17.218  0.00  0.00    +0.000 OA
ATOM     28  H   UNL     1       1.977  10.381  17.476  0.00  0.00    +0.000 HD
ENDBRANCH  26  27
ENDBRANCH   4  21
BRANCH   6  29
ATOM     29  N   UNL     1       1.789  13.793  20.231  0.00  0.00    +0.000 N 
ATOM     30  C   UNL     1       2.735  14.297  19.348  0.00  0.00    +0.000 C 
ATOM     31  O   UNL     1       2.915  13.886  18.205  0.00  0.00    +0.000 OA
ATOM     32  H   UNL     1       1.686  14.306  21.099  0.00  0.00    +0.000 HD
BRANCH  30  33
ATOM     33  C   UNL     1       3.502  15.439  19.851  0.00  0.00    +0.000 A 
ATOM     34  C   UNL     1       4.850  15.442  20.175  0.00  0.00    +0.000 A 
ATOM     35  C   UNL     1       5.315  16.718  20.603  0.00  0.00    +0.000 A 
ATOM     36  C   UNL     1       4.307  17.656  20.604  0.00  0.00    +0.000 A 
ATOM     37  S   UNL     1       2.812  16.989  20.100  0.00  0.00    +0.000 S 
ENDBRANCH  30  33
ENDBRANCH   6  29
BRANCH   1  39
ATOM     38  N   UNL     1      -1.328  15.400  20.022  0.00  0.00    +0.000 NA
ATOM     39  C   UNL     1      -0.963  14.313  19.857  0.00  0.00    +0.000 C 
ENDBRANCH   1  39
TORSDOF 9
ENDMDL
MODEL 9
REMARK VINA RESULT:      -7.4      0.852      1.179
REMARK  Name = 
REMARK  9 active torsions:
REMARK  status: ('A' for Active; 'I' for Inactive)
REMARK    1  A    between atoms: C_2  and  C_3
REMARK    2  A    between atoms: C_4  and  C_5
REMARK    3  A    between atoms: C_9  and  N_10
REMARK    4  A    between atoms: C_11  and  C_13
REMARK    5  A    between atoms: C_13  and  N_14
REMARK    6  A    between atoms: C_17  and  C_18
REMARK    7  A    between atoms: C_23  and  O_24
REMARK    8  A    between atoms: C_26  and  N_27
REMARK    9  A    between atoms: C_28  and  C_30
REMARK                            x       y       z     vdW  Elec       q    Type
REMARK                         _______ _______ _______ _____ _____    ______ ____
ROOT
ATOM      1  C   UNL     1       0.136  10.613  20.702  0.00  0.00    +0.000 A 
ATOM      2  C   UNL     1       1.143  10.464  19.721  0.00  0.00    +0.000 A 
ATOM      3  C   UNL     1       1.649  11.646  19.158  0.00  0.00    +0.000 A 
ATOM      4  C   UNL     1       1.209  12.894  19.569  0.00  0.00    +0.000 A 
ATOM      5  N   UNL     1       0.215  13.009  20.476  0.00  0.00    +0.000 NA
ATOM      6  C   UNL     1      -0.331  11.904  21.021  0.00  0.00    +0.000 A 
ENDROOT
BRANCH   2   7
ATOM      7  C   UNL     1       1.666   9.174  19.178  0.00  0.00    +0.000 A 
ATOM      8  C   UNL     1       2.153   9.066  17.868  0.00  0.00    +0.000 A 
ATOM      9  C   UNL     1       2.711   7.877  17.397  0.00  0.00    +0.000 A 
ATOM     10  C   UNL     1       2.837   6.775  18.239  0.00  0.00    +0.000 A 
ATOM     11  C   UNL     1       2.397   6.842  19.557  0.00  0.00    +0.000 A 
ATOM     12  C   UNL     1       1.798   8.029  20.008  0.00  0.00    +0.000 A 
BRANCH  11  13
ATOM     13  N   UNL     1       2.582   5.789  20.476  0.00  0.00    +0.000 N 
ATOM     14  C   UNL     1       2.041   4.515  20.403  0.00  0.00    +0.000 C 
ATOM     15  O   UNL     1       1.190   4.128  19.606  0.00  0.00    +0.000 OA
ATOM     16  H   UNL     1       3.188   5.944  21.279  0.00  0.00    +0.000 HD
BRANCH  14  17
ATOM     17  C   UNL     1       2.565   3.573  21.492  0.00  0.00    +0.000 C 
BRANCH  17  18
ATOM     18  N   UNL     1       1.471   2.781  22.090  0.00  0.00    +0.000 NA
ATOM     19  H   UNL     1       1.831   2.343  22.941  0.00  0.00    +0.000 HD
ATOM     20  H   UNL     1       1.280   1.999  21.459  0.00  0.00    +0.000 HD
ENDBRANCH  17  18
ENDBRANCH  14  17
ENDBRANCH  11  13
ENDBRANCH   2   7
BRANCH   4  21
ATOM     21  C   UNL     1       1.727  14.148  18.983  0.00  0.00    +0.000 A 
ATOM     22  C   UNL     1       1.071  15.364  19.257  0.00  0.00    +0.000 A 
ATOM     23  C   UNL     1       1.482  16.564  18.671  0.00  0.00    +0.000 A 
ATOM     24  C   UNL     1       2.568  16.580  17.802  0.00  0.00    +0.000 A 
ATOM     25  C   UNL     1       3.254  15.400  17.530  0.00  0.00    +0.000 A 
ATOM     26  C   UNL     1       2.841  14.201  18.120  0.00  0.00    +0.000 A 
BRANCH  26  27
ATOM     27  O   UNL     1       3.559  13.064  17.844  0.00  0.00    +0.000 OA
ATOM     28  H   UNL     1       2.940  12.340  17.651  0.00  0.00    +0.000 HD
ENDBRANCH  26  27
ENDBRANCH   4  21
BRANCH   6  29
ATOM     29  N   UNL     1      -1.415  12.080  21.914  0.00  0.00    +0.000 N 
ATOM     30  C   UNL     1      -2.681  12.527  21.560  0.00  0.00    +0.000 C 
ATOM     31  O   UNL     1      -3.028  12.819  20.418  0.00  0.00    +0.000 OA
ATOM     32  H   UNL     1      -1.312  11.777  22.875  0.00  0.00    +0.000 HD
BRANCH  30  33
ATOM     33  C   UNL     1      -3.648  12.577  22.660  0.00  0.00    +0.000 A 
ATOM     34  C   UNL     1      -3.395  12.266  23.987  0.00  0.00    +0.000 A 
ATOM     35  C   UNL     1      -4.532  12.449  24.825  0.00  0.00    +0.000 A 
ATOM     36  C   UNL     1      -5.627  12.886  24.114  0.00  0.00    +0.000 A 
ATOM     37  S   UNL     1      -5.279  13.061  22.446  0.00  0.00    +0.000 S 
ENDBRANCH  30  33
ENDBRANCH   6  29
BRANCH   1  39
ATOM     38  N   UNL     1      -0.973   8.614  21.922  0.00  0.00    +0.000 NA
ATOM     39  C   UNL     1      -0.458   9.481  21.353  0.00  0.00    +0.000 C 
ENDBRANCH   1  39
TORSDOF 9
ENDMDL
