MODEL 1
REMARK VINA RESULT:      -8.0      0.000      0.000
REMARK  Name = 
REMARK  9 active torsions:
REMARK  status: ('A' for Active; 'I' for Inactive)
REMARK    1  A    between atoms: C_1  and  C_2
REMARK    2  A    between atoms: C_5  and  C_6
REMARK    3  A    between atoms: C_9  and  O_10
REMARK    4  A    between atoms: C_11  and  C_12
REMARK    5  A    between atoms: C_12  and  N_13
REMARK    6  A    between atoms: N_13  and  C_14
REMARK    7  A    between atoms: C_14  and  C_15
REMARK    8  A    between atoms: C_15  and  N_16
REMARK    9  A    between atoms: N_23  and  C_24
REMARK                            x       y       z     vdW  Elec       q    Type
REMARK                         _______ _______ _______ _____ _____    ______ ____
ROOT
ATOM      1  N   UNL     1       1.974   8.019  18.719  0.00  0.00    +0.000 N 
ATOM      2  C   UNL     1       2.938   7.626  17.778  0.00  0.00    +0.000 C 
ATOM      3  O   UNL     1       3.043   8.218  16.705  0.00  0.00    +0.000 OA
ATOM      4  N   UNL     1       3.716   6.550  18.140  0.00  0.00    +0.000 N 
ATOM      5  H   UNL     1       3.303   5.898  18.790  0.00  0.00    +0.000 HD
ENDROOT
BRANCH   4   6
ATOM      6  C   UNL     1       4.831   6.054  17.426  0.00  0.00    +0.000 A 
ATOM      7  C   UNL     1       6.101   6.635  17.498  0.00  0.00    +0.000 A 
ATOM      8  C   UNL     1       7.161   6.124  16.747  0.00  0.00    +0.000 A 
ATOM      9  C   UNL     1       6.956   5.016  15.940  0.00  0.00    +0.000 A 
ATOM     10  F   UNL     1       7.972   4.531  15.213  0.00  0.00    +0.000 F 
ATOM     11  C   UNL     1       5.711   4.402  15.877  0.00  0.00    +0.000 A 
ATOM     12  C   UNL     1       4.647   4.918  16.624  0.00  0.00    +0.000 A 
ENDBRANCH   4   6
BRANCH   1  13
ATOM     13  C   UNL     1       1.041   9.077  18.279  0.00  0.00    +0.000 C 
BRANCH  13  23
ATOM     14  C   UNL     1      -0.893  10.277  23.253  0.00  0.00    +0.000 C 
ATOM     15  C   UNL     1      -0.687  11.505  22.409  0.00  0.00    +0.000 A 
ATOM     16  C   UNL     1      -1.104  12.742  22.916  0.00  0.00    +0.000 A 
ATOM     17  C   UNL     1      -0.867  13.904  22.203  0.00  0.00    +0.000 A 
ATOM     18  C   UNL     1      -0.132  13.862  21.012  0.00  0.00    +0.000 A 
ATOM     19  C   UNL     1      -0.005  15.124  20.197  0.00  0.00    +0.000 C 
ATOM     20  C   UNL     1       0.352  12.647  20.513  0.00  0.00    +0.000 A 
ATOM     21  N   UNL     1       1.177  12.640  19.449  0.00  0.00    +0.000 NA
ATOM     22  C   UNL     1       1.444  11.460  18.877  0.00  0.00    +0.000 A 
ATOM     23  C   UNL     1       0.853  10.257  19.195  0.00  0.00    +0.000 A 
ATOM     24  C   UNL     1       0.177  10.243  20.416  0.00  0.00    +0.000 A 
ATOM     25  C   UNL     1      -0.051  11.445  21.139  0.00  0.00    +0.000 A 
BRANCH  22  26
ATOM     26  O   UNL     1       2.428  11.530  17.944  0.00  0.00    +0.000 OA
ATOM     27  H   UNL     1       2.019  12.152  17.313  0.00  0.00    +0.000 HD
ENDBRANCH  22  26
ENDBRANCH  13  23
ENDBRANCH   1  13
BRANCH   1  28
ATOM     28  C   UNL     1       2.027   7.614  20.141  0.00  0.00    +0.000 C 
BRANCH  28  29
ATOM     29  C   UNL     1       1.392   6.265  20.545  0.00  0.00    +0.000 C 
BRANCH  29  30
ATOM     30  N   UNL     1       2.273   5.108  20.247  0.00  0.00    +0.000 NA
ATOM     31  C   UNL     1       1.679   4.243  19.209  0.00  0.00    +0.000 C 
ATOM     32  C   UNL     1       0.687   3.372  19.959  0.00  0.00    +0.000 C 
ATOM     33  C   UNL     1       1.380   3.114  21.285  0.00  0.00    +0.000 C 
ATOM     34  C   UNL     1       2.451   4.196  21.394  0.00  0.00    +0.000 C 
ENDBRANCH  29  30
ENDBRANCH  28  29
ENDBRANCH   1  28
TORSDOF 7
ENDMDL
MODEL 2
REMARK VINA RESULT:      -7.8      3.965      9.163
REMARK  Name = 
REMARK  9 active torsions:
REMARK  status: ('A' for Active; 'I' for Inactive)
REMARK    1  A    between atoms: C_1  and  C_2
REMARK    2  A    between atoms: C_5  and  C_6
REMARK    3  A    between atoms: C_9  and  O_10
REMARK    4  A    between atoms: C_11  and  C_12
REMARK    5  A    between atoms: C_12  and  N_13
REMARK    6  A    between atoms: N_13  and  C_14
REMARK    7  A    between atoms: C_14  and  C_15
REMARK    8  A    between atoms: C_15  and  N_16
REMARK    9  A    between atoms: N_23  and  C_24
REMARK                            x       y       z     vdW  Elec       q    Type
REMARK                         _______ _______ _______ _____ _____    ______ ____
ROOT
ATOM      1  N   UNL     1       1.210   9.884  18.707  0.00  0.00    +0.000 N 
ATOM      2  C   UNL     1      -0.188  10.000  18.750  0.00  0.00    +0.000 C 
ATOM      3  O   UNL     1      -0.826   9.533  19.692  0.00  0.00    +0.000 OA
ATOM      4  N   UNL     1      -0.763  10.642  17.678  0.00  0.00    +0.000 N 
ATOM      5  H   UNL     1      -0.254  10.604  16.808  0.00  0.00    +0.000 HD
ENDROOT
BRANCH   4   6
ATOM      6  C   UNL     1      -2.126  10.995  17.555  0.00  0.00    +0.000 A 
ATOM      7  C   UNL     1      -2.846  11.622  18.577  0.00  0.00    +0.000 A 
ATOM      8  C   UNL     1      -4.200  11.920  18.415  0.00  0.00    +0.000 A 
ATOM      9  C   UNL     1      -4.830  11.612  17.220  0.00  0.00    +0.000 A 
ATOM     10  F   UNL     1      -6.132  11.891  17.068  0.00  0.00    +0.000 F 
ATOM     11  C   UNL     1      -4.128  11.018  16.178  0.00  0.00    +0.000 A 
ATOM     12  C   UNL     1      -2.773  10.714  16.342  0.00  0.00    +0.000 A 
ENDBRANCH   4   6
BRANCH   1  13
ATOM     13  C   UNL     1       1.821   9.070  19.779  0.00  0.00    +0.000 C 
BRANCH  13  23
ATOM     14  C   UNL     1       5.182   6.392  16.396  0.00  0.00    +0.000 C 
ATOM     15  C   UNL     1       4.168   5.482  17.033  0.00  0.00    +0.000 A 
ATOM     16  C   UNL     1       4.120   4.144  16.621  0.00  0.00    +0.000 A 
ATOM     17  C   UNL     1       3.252   3.257  17.233  0.00  0.00    +0.000 A 
ATOM     18  C   UNL     1       2.479   3.668  18.326  0.00  0.00    +0.000 A 
ATOM     19  C   UNL     1       1.453   2.714  18.884  0.00  0.00    +0.000 C 
ATOM     20  C   UNL     1       2.554   4.982  18.800  0.00  0.00    +0.000 A 
ATOM     21  N   UNL     1       1.918   5.322  19.937  0.00  0.00    +0.000 NA
ATOM     22  C   UNL     1       1.837   6.624  20.239  0.00  0.00    +0.000 A 
ATOM     23  C   UNL     1       2.235   7.666  19.431  0.00  0.00    +0.000 A 
ATOM     24  C   UNL     1       3.071   7.300  18.375  0.00  0.00    +0.000 A 
ATOM     25  C   UNL     1       3.294   5.933  18.059  0.00  0.00    +0.000 A 
BRANCH  22  26
ATOM     26  O   UNL     1       1.354   6.853  21.487  0.00  0.00    +0.000 OA
ATOM     27  H   UNL     1       1.610   6.018  21.923  0.00  0.00    +0.000 HD
ENDBRANCH  22  26
ENDBRANCH  13  23
ENDBRANCH   1  13
BRANCH   1  28
ATOM     28  C   UNL     1       2.058  10.716  17.827  0.00  0.00    +0.000 C 
BRANCH  28  29
ATOM     29  C   UNL     1       2.371  12.165  18.263  0.00  0.00    +0.000 C 
BRANCH  29  30
ATOM     30  N   UNL     1       1.392  12.687  19.250  0.00  0.00    +0.000 NA
ATOM     31  C   UNL     1       0.680  13.866  18.719  0.00  0.00    +0.000 C 
ATOM     32  C   UNL     1       1.632  15.026  18.957  0.00  0.00    +0.000 C 
ATOM     33  C   UNL     1       2.271  14.686  20.292  0.00  0.00    +0.000 C 
ATOM     34  C   UNL     1       2.019  13.193  20.486  0.00  0.00    +0.000 C 
ENDBRANCH  29  30
ENDBRANCH  28  29
ENDBRANCH   1  28
TORSDOF 7
ENDMDL
MODEL 3
REMARK VINA RESULT:      -7.7      3.253      6.361
REMARK  Name = 
REMARK  9 active torsions:
REMARK  status: ('A' for Active; 'I' for Inactive)
REMARK    1  A    between atoms: C_1  and  C_2
REMARK    2  A    between atoms: C_5  and  C_6
REMARK    3  A    between atoms: C_9  and  O_10
REMARK    4  A    between atoms: C_11  and  C_12
REMARK    5  A    between atoms: C_12  and  N_13
REMARK    6  A    between atoms: N_13  and  C_14
REMARK    7  A    between atoms: C_14  and  C_15
REMARK    8  A    between atoms: C_15  and  N_16
REMARK    9  A    between atoms: N_23  and  C_24
REMARK                            x       y       z     vdW  Elec       q    Type
REMARK                         _______ _______ _______ _____ _____    ______ ____
ROOT
ATOM      1  N   UNL     1      -0.593  12.197  20.306  0.00  0.00    +0.000 N 
ATOM      2  C   UNL     1       0.501  11.325  20.198  0.00  0.00    +0.000 C 
ATOM      3  O   UNL     1       1.546  11.554  20.807  0.00  0.00    +0.000 OA
ATOM      4  N   UNL     1       0.318  10.241  19.371  0.00  0.00    +0.000 N 
ATOM      5  H   UNL     1      -0.352  10.355  18.626  0.00  0.00    +0.000 HD
ENDROOT
BRANCH   4   6
ATOM      6  C   UNL     1       1.216   9.162  19.203  0.00  0.00    +0.000 A 
ATOM      7  C   UNL     1       2.015   9.006  18.066  0.00  0.00    +0.000 A 
ATOM      8  C   UNL     1       2.862   7.905  17.937  0.00  0.00    +0.000 A 
ATOM      9  C   UNL     1       2.929   6.969  18.957  0.00  0.00    +0.000 A 
ATOM     10  F   UNL     1       3.737   5.908  18.829  0.00  0.00    +0.000 F 
ATOM     11  C   UNL     1       2.170   7.120  20.111  0.00  0.00    +0.000 A 
ATOM     12  C   UNL     1       1.316   8.220  20.238  0.00  0.00    +0.000 A 
ENDBRANCH   4   6
BRANCH   1  13
ATOM     13  C   UNL     1      -0.356  13.436  21.074  0.00  0.00    +0.000 C 
BRANCH  13  23
ATOM     14  C   UNL     1      -2.672  17.952  19.034  0.00  0.00    +0.000 C 
ATOM     15  C   UNL     1      -1.297  17.711  18.473  0.00  0.00    +0.000 A 
ATOM     16  C   UNL     1      -0.834  18.555  17.456  0.00  0.00    +0.000 A 
ATOM     17  C   UNL     1       0.451  18.413  16.963  0.00  0.00    +0.000 A 
ATOM     18  C   UNL     1       1.327  17.485  17.538  0.00  0.00    +0.000 A 
ATOM     19  C   UNL     1       2.673  17.267  16.894  0.00  0.00    +0.000 C 
ATOM     20  C   UNL     1       0.912  16.672  18.599  0.00  0.00    +0.000 A 
ATOM     21  N   UNL     1       1.806  15.890  19.233  0.00  0.00    +0.000 NA
ATOM     22  C   UNL     1       1.334  14.977  20.092  0.00  0.00    +0.000 A 
ATOM     23  C   UNL     1       0.007  14.673  20.297  0.00  0.00    +0.000 A 
ATOM     24  C   UNL     1      -0.893  15.619  19.804  0.00  0.00    +0.000 A 
ATOM     25  C   UNL     1      -0.451  16.683  18.973  0.00  0.00    +0.000 A 
BRANCH  22  26
ATOM     26  O   UNL     1       2.310  14.376  20.821  0.00  0.00    +0.000 OA
ATOM     27  H   UNL     1       2.668  15.150  21.295  0.00  0.00    +0.000 HD
ENDBRANCH  22  26
ENDBRANCH  13  23
ENDBRANCH   1  13
BRANCH   1  28
ATOM     28  C   UNL     1      -1.968  11.811  19.918  0.00  0.00    +0.000 C 
BRANCH  28  29
ATOM     29  C   UNL     1      -2.473  12.207  18.512  0.00  0.00    +0.000 C 
BRANCH  29  30
ATOM     30  N   UNL     1      -3.472  11.248  17.975  0.00  0.00    +0.000 NA
ATOM     31  C   UNL     1      -2.900   9.892  17.866  0.00  0.00    +0.000 C 
ATOM     32  C   UNL     1      -2.123   9.908  16.562  0.00  0.00    +0.000 C 
ATOM     33  C   UNL     1      -2.980  10.773  15.654  0.00  0.00    +0.000 C 
ATOM     34  C   UNL     1      -3.894  11.554  16.594  0.00  0.00    +0.000 C 
ENDBRANCH  29  30
ENDBRANCH  28  29
ENDBRANCH   1  28
TORSDOF 7
ENDMDL
MODEL 4
REMARK VINA RESULT:      -7.7      4.125      9.312
REMARK  Name = 
REMARK  9 active torsions:
REMARK  status: ('A' for Active; 'I' for Inactive)
REMARK    1  A    between atoms: C_1  and  C_2
REMARK    2  A    between atoms: C_5  and  C_6
REMARK    3  A    between atoms: C_9  and  O_10
REMARK    4  A    between atoms: C_11  and  C_12
REMARK    5  A    between atoms: C_12  and  N_13
REMARK    6  A    between atoms: N_13  and  C_14
REMARK    7  A    between atoms: C_14  and  C_15
REMARK    8  A    between atoms: C_15  and  N_16
REMARK    9  A    between atoms: N_23  and  C_24
REMARK                            x       y       z     vdW  Elec       q    Type
REMARK                         _______ _______ _______ _____ _____    ______ ____
ROOT
ATOM      1  N   UNL     1       0.536   9.876  19.042  0.00  0.00    +0.000 N 
ATOM      2  C   UNL     1       0.231  10.721  20.120  0.00  0.00    +0.000 C 
ATOM      3  O   UNL     1       1.120  11.131  20.864  0.00  0.00    +0.000 OA
ATOM      4  N   UNL     1      -1.101  11.027  20.275  0.00  0.00    +0.000 N 
ATOM      5  H   UNL     1      -1.760  10.350  19.921  0.00  0.00    +0.000 HD
ENDROOT
BRANCH   4   6
ATOM      6  C   UNL     1      -1.638  11.955  21.198  0.00  0.00    +0.000 A 
ATOM      7  C   UNL     1      -1.700  11.711  22.573  0.00  0.00    +0.000 A 
ATOM      8  C   UNL     1      -2.270  12.648  23.437  0.00  0.00    +0.000 A 
ATOM      9  C   UNL     1      -2.759  13.841  22.927  0.00  0.00    +0.000 A 
ATOM     10  F   UNL     1      -3.312  14.736  23.756  0.00  0.00    +0.000 F 
ATOM     11  C   UNL     1      -2.678  14.119  21.568  0.00  0.00    +0.000 A 
ATOM     12  C   UNL     1      -2.113  13.178  20.701  0.00  0.00    +0.000 A 
ENDBRANCH   4   6
BRANCH   1  13
ATOM     13  C   UNL     1       1.941   9.427  18.954  0.00  0.00    +0.000 C 
BRANCH  13  23
ATOM     14  C   UNL     1       4.589   5.334  16.472  0.00  0.00    +0.000 C 
ATOM     15  C   UNL     1       3.622   4.841  17.513  0.00  0.00    +0.000 A 
ATOM     16  C   UNL     1       3.427   3.460  17.641  0.00  0.00    +0.000 A 
ATOM     17  C   UNL     1       2.602   2.962  18.634  0.00  0.00    +0.000 A 
ATOM     18  C   UNL     1       2.026   3.828  19.572  0.00  0.00    +0.000 A 
ATOM     19  C   UNL     1       1.032   3.267  20.558  0.00  0.00    +0.000 C 
ATOM     20  C   UNL     1       2.255   5.207  19.507  0.00  0.00    +0.000 A 
ATOM     21  N   UNL     1       1.815   6.008  20.495  0.00  0.00    +0.000 NA
ATOM     22  C   UNL     1       1.864   7.330  20.294  0.00  0.00    +0.000 A 
ATOM     23  C   UNL     1       2.207   7.954  19.114  0.00  0.00    +0.000 A 
ATOM     24  C   UNL     1       2.854   7.136  18.187  0.00  0.00    +0.000 A 
ATOM     25  C   UNL     1       2.939   5.732  18.385  0.00  0.00    +0.000 A 
BRANCH  22  26
ATOM     26  O   UNL     1       1.585   8.051  21.410  0.00  0.00    +0.000 OA
ATOM     27  H   UNL     1       2.256   7.687  22.019  0.00  0.00    +0.000 HD
ENDBRANCH  22  26
ENDBRANCH  13  23
ENDBRANCH   1  13
BRANCH   1  28
ATOM     28  C   UNL     1      -0.392   9.647  17.913  0.00  0.00    +0.000 C 
BRANCH  28  29
ATOM     29  C   UNL     1      -1.542  10.655  17.691  0.00  0.00    +0.000 C 
BRANCH  29  30
ATOM     30  N   UNL     1      -2.858   9.990  17.516  0.00  0.00    +0.000 NA
ATOM     31  C   UNL     1      -3.100   9.659  16.098  0.00  0.00    +0.000 C 
ATOM     32  C   UNL     1      -3.604  10.954  15.484  0.00  0.00    +0.000 C 
ATOM     33  C   UNL     1      -4.449  11.560  16.591  0.00  0.00    +0.000 C 
ATOM     34  C   UNL     1      -4.002  10.853  17.867  0.00  0.00    +0.000 C 
ENDBRANCH  29  30
ENDBRANCH  28  29
ENDBRANCH   1  28
TORSDOF 7
ENDMDL
MODEL 5
REMARK VINA RESULT:      -7.6      3.428      6.354
REMARK  Name = 
REMARK  9 active torsions:
REMARK  status: ('A' for Active; 'I' for Inactive)
REMARK    1  A    between atoms: C_1  and  C_2
REMARK    2  A    between atoms: C_5  and  C_6
REMARK    3  A    between atoms: C_9  and  O_10
REMARK    4  A    between atoms: C_11  and  C_12
REMARK    5  A    between atoms: C_12  and  N_13
REMARK    6  A    between atoms: N_13  and  C_14
REMARK    7  A    between atoms: C_14  and  C_15
REMARK    8  A    between atoms: C_15  and  N_16
REMARK    9  A    between atoms: N_23  and  C_24
REMARK                            x       y       z     vdW  Elec       q    Type
REMARK                         _______ _______ _______ _____ _____    ______ ____
ROOT
ATOM      1  N   UNL     1       0.474  11.217  19.552  0.00  0.00    +0.000 N 
ATOM      2  C   UNL     1       0.764   9.931  19.071  0.00  0.00    +0.000 C 
ATOM      3  O   UNL     1       0.484   9.617  17.915  0.00  0.00    +0.000 OA
ATOM      4  N   UNL     1       1.350   9.077  19.977  0.00  0.00    +0.000 N 
ATOM      5  H   UNL     1       1.155   9.255  20.951  0.00  0.00    +0.000 HD
ENDROOT
BRANCH   4   6
ATOM      6  C   UNL     1       1.851   7.785  19.696  0.00  0.00    +0.000 A 
ATOM      7  C   UNL     1       2.596   7.489  18.550  0.00  0.00    +0.000 A 
ATOM      8  C   UNL     1       3.040   6.189  18.305  0.00  0.00    +0.000 A 
ATOM      9  C   UNL     1       2.758   5.186  19.219  0.00  0.00    +0.000 A 
ATOM     10  F   UNL     1       3.178   3.936  18.980  0.00  0.00    +0.000 F 
ATOM     11  C   UNL     1       2.048   5.462  20.382  0.00  0.00    +0.000 A 
ATOM     12  C   UNL     1       1.598   6.764  20.624  0.00  0.00    +0.000 A 
ENDBRANCH   4   6
BRANCH   1  13
ATOM     13  C   UNL     1      -0.285  12.091  18.634  0.00  0.00    +0.000 C 
BRANCH  13  23
ATOM     14  C   UNL     1      -3.883  14.222  22.160  0.00  0.00    +0.000 C 
ATOM     15  C   UNL     1      -4.518  13.227  21.227  0.00  0.00    +0.000 A 
ATOM     16  C   UNL     1      -5.860  12.883  21.431  0.00  0.00    +0.000 A 
ATOM     17  C   UNL     1      -6.502  12.028  20.553  0.00  0.00    +0.000 A 
ATOM     18  C   UNL     1      -5.841  11.570  19.407  0.00  0.00    +0.000 A 
ATOM     19  C   UNL     1      -6.524  10.540  18.542  0.00  0.00    +0.000 C 
ATOM     20  C   UNL     1      -4.520  11.949  19.144  0.00  0.00    +0.000 A 
ATOM     21  N   UNL     1      -3.948  11.619  17.970  0.00  0.00    +0.000 NA
ATOM     22  C   UNL     1      -2.629  11.810  17.844  0.00  0.00    +0.000 A 
ATOM     23  C   UNL     1      -1.771  12.196  18.851  0.00  0.00    +0.000 A 
ATOM     24  C   UNL     1      -2.395  12.731  19.978  0.00  0.00    +0.000 A 
ATOM     25  C   UNL     1      -3.806  12.664  20.133  0.00  0.00    +0.000 A 
BRANCH  22  26
ATOM     26  O   UNL     1      -2.183  11.634  16.574  0.00  0.00    +0.000 OA
ATOM     27  H   UNL     1      -1.774  10.753  16.659  0.00  0.00    +0.000 HD
ENDBRANCH  22  26
ENDBRANCH  13  23
ENDBRANCH   1  13
BRANCH   1  28
ATOM     28  C   UNL     1       1.096  11.777  20.772  0.00  0.00    +0.000 C 
BRANCH  28  29
ATOM     29  C   UNL     1       1.870  13.109  20.657  0.00  0.00    +0.000 C 
BRANCH  29  30
ATOM     30  N   UNL     1       1.669  13.989  21.837  0.00  0.00    +0.000 NA
ATOM     31  C   UNL     1       0.234  14.240  22.072  0.00  0.00    +0.000 C 
ATOM     32  C   UNL     1      -0.124  15.354  21.104  0.00  0.00    +0.000 C 
ATOM     33  C   UNL     1       1.119  16.227  21.100  0.00  0.00    +0.000 C 
ATOM     34  C   UNL     1       2.229  15.343  21.660  0.00  0.00    +0.000 C 
ENDBRANCH  29  30
ENDBRANCH  28  29
ENDBRANCH   1  28
TORSDOF 7
ENDMDL
MODEL 6
REMARK VINA RESULT:      -7.5      4.018      9.264
REMARK  Name = 
REMARK  9 active torsions:
REMARK  status: ('A' for Active; 'I' for Inactive)
REMARK    1  A    between atoms: C_1  and  C_2
REMARK    2  A    between atoms: C_5  and  C_6
REMARK    3  A    between atoms: C_9  and  O_10
REMARK    4  A    between atoms: C_11  and  C_12
REMARK    5  A    between atoms: C_12  and  N_13
REMARK    6  A    between atoms: N_13  and  C_14
REMARK    7  A    between atoms: C_14  and  C_15
REMARK    8  A    between atoms: C_15  and  N_16
REMARK    9  A    between atoms: N_23  and  C_24
REMARK                            x       y       z     vdW  Elec       q    Type
REMARK                         _______ _______ _______ _____ _____    ______ ____
ROOT
ATOM      1  N   UNL     1       1.185  10.025  18.731  0.00  0.00    +0.000 N 
ATOM      2  C   UNL     1      -0.217  10.059  18.680  0.00  0.00    +0.000 C 
ATOM      3  O   UNL     1      -0.889   9.507  19.550  0.00  0.00    +0.000 OA
ATOM      4  N   UNL     1      -0.755  10.725  17.603  0.00  0.00    +0.000 N 
ATOM      5  H   UNL     1      -0.187  10.763  16.771  0.00  0.00    +0.000 HD
ENDROOT
BRANCH   4   6
ATOM      6  C   UNL     1      -2.126  11.006  17.401  0.00  0.00    +0.000 A 
ATOM      7  C   UNL     1      -2.793  10.727  16.204  0.00  0.00    +0.000 A 
ATOM      8  C   UNL     1      -4.140  11.054  16.046  0.00  0.00    +0.000 A 
ATOM      9  C   UNL     1      -4.829  11.642  17.095  0.00  0.00    +0.000 A 
ATOM     10  F   UNL     1      -6.121  11.963  16.940  0.00  0.00    +0.000 F 
ATOM     11  C   UNL     1      -4.197  11.899  18.306  0.00  0.00    +0.000 A 
ATOM     12  C   UNL     1      -2.845  11.576  18.462  0.00  0.00    +0.000 A 
ENDBRANCH   4   6
BRANCH   1  13
ATOM     13  C   UNL     1       1.769   9.191  19.802  0.00  0.00    +0.000 C 
BRANCH  13  23
ATOM     14  C   UNL     1       5.164   6.654  16.343  0.00  0.00    +0.000 C 
ATOM     15  C   UNL     1       4.184   5.707  16.980  0.00  0.00    +0.000 A 
ATOM     16  C   UNL     1       4.169   4.374  16.551  0.00  0.00    +0.000 A 
ATOM     17  C   UNL     1       3.334   3.455  17.161  0.00  0.00    +0.000 A 
ATOM     18  C   UNL     1       2.564   3.829  18.269  0.00  0.00    +0.000 A 
ATOM     19  C   UNL     1       1.571   2.840  18.826  0.00  0.00    +0.000 C 
ATOM     20  C   UNL     1       2.607   5.139  18.760  0.00  0.00    +0.000 A 
ATOM     21  N   UNL     1       1.974   5.446  19.908  0.00  0.00    +0.000 NA
ATOM     22  C   UNL     1       1.861   6.740  20.229  0.00  0.00    +0.000 A 
ATOM     23  C   UNL     1       2.219   7.804  19.429  0.00  0.00    +0.000 A 
ATOM     24  C   UNL     1       3.052   7.476  18.359  0.00  0.00    +0.000 A 
ATOM     25  C   UNL     1       3.310   6.120  18.023  0.00  0.00    +0.000 A 
BRANCH  22  26
ATOM     26  O   UNL     1       1.387   6.939  21.485  0.00  0.00    +0.000 OA
ATOM     27  H   UNL     1       2.128   6.575  22.005  0.00  0.00    +0.000 HD
ENDBRANCH  22  26
ENDBRANCH  13  23
ENDBRANCH   1  13
BRANCH   1  28
ATOM     28  C   UNL     1       2.039  10.951  17.956  0.00  0.00    +0.000 C 
BRANCH  28  29
ATOM     29  C   UNL     1       2.473  12.279  18.618  0.00  0.00    +0.000 C 
BRANCH  29  30
ATOM     30  N   UNL     1       1.743  13.452  18.074  0.00  0.00    +0.000 NA
ATOM     31  C   UNL     1       2.619  14.638  18.008  0.00  0.00    +0.000 C 
ATOM     32  C   UNL     1       2.603  15.204  19.417  0.00  0.00    +0.000 C 
ATOM     33  C   UNL     1       1.174  14.965  19.874  0.00  0.00    +0.000 C 
ATOM     34  C   UNL     1       0.627  13.897  18.931  0.00  0.00    +0.000 C 
ENDBRANCH  29  30
ENDBRANCH  28  29
ENDBRANCH   1  28
TORSDOF 7
ENDMDL
MODEL 7
REMARK VINA RESULT:      -7.4      4.283      9.383
REMARK  Name = 
REMARK  9 active torsions:
REMARK  status: ('A' for Active; 'I' for Inactive)
REMARK    1  A    between atoms: C_1  and  C_2
REMARK    2  A    between atoms: C_5  and  C_6
REMARK    3  A    between atoms: C_9  and  O_10
REMARK    4  A    between atoms: C_11  and  C_12
REMARK    5  A    between atoms: C_12  and  N_13
REMARK    6  A    between atoms: N_13  and  C_14
REMARK    7  A    between atoms: C_14  and  C_15
REMARK    8  A    between atoms: C_15  and  N_16
REMARK    9  A    between atoms: N_23  and  C_24
REMARK                            x       y       z     vdW  Elec       q    Type
REMARK                         _______ _______ _______ _____ _____    ______ ____
ROOT
ATOM      1  N   UNL     1      -0.235  10.886  19.852  0.00  0.00    +0.000 N 
ATOM      2  C   UNL     1      -0.308  11.672  21.012  0.00  0.00    +0.000 C 
ATOM      3  O   UNL     1       0.709  12.165  21.499  0.00  0.00    +0.000 OA
ATOM      4  N   UNL     1      -1.566  11.823  21.548  0.00  0.00    +0.000 N 
ATOM      5  H   UNL     1      -2.225  11.084  21.359  0.00  0.00    +0.000 HD
ENDROOT
BRANCH   4   6
ATOM      6  C   UNL     1      -1.912  12.668  22.628  0.00  0.00    +0.000 A 
ATOM      7  C   UNL     1      -3.060  12.479  23.404  0.00  0.00    +0.000 A 
ATOM      8  C   UNL     1      -3.373  13.361  24.439  0.00  0.00    +0.000 A 
ATOM      9  C   UNL     1      -2.524  14.421  24.714  0.00  0.00    +0.000 A 
ATOM     10  F   UNL     1      -2.829  15.272  25.704  0.00  0.00    +0.000 F 
ATOM     11  C   UNL     1      -1.360  14.610  23.979  0.00  0.00    +0.000 A 
ATOM     12  C   UNL     1      -1.050  13.730  22.937  0.00  0.00    +0.000 A 
ENDBRANCH   4   6
BRANCH   1  13
ATOM     13  C   UNL     1       1.127  10.599  19.354  0.00  0.00    +0.000 C 
BRANCH  13  23
ATOM     14  C   UNL     1       4.307   7.053  16.665  0.00  0.00    +0.000 C 
ATOM     15  C   UNL     1       3.443   6.378  17.696  0.00  0.00    +0.000 A 
ATOM     16  C   UNL     1       3.457   4.980  17.766  0.00  0.00    +0.000 A 
ATOM     17  C   UNL     1       2.733   4.324  18.746  0.00  0.00    +0.000 A 
ATOM     18  C   UNL     1       2.052   5.055  19.727  0.00  0.00    +0.000 A 
ATOM     19  C   UNL     1       1.171   4.312  20.699  0.00  0.00    +0.000 C 
ATOM     20  C   UNL     1       2.073   6.454  19.719  0.00  0.00    +0.000 A 
ATOM     21  N   UNL     1       1.537   7.139  20.747  0.00  0.00    +0.000 NA
ATOM     22  C   UNL     1       1.386   8.461  20.602  0.00  0.00    +0.000 A 
ATOM     23  C   UNL     1       1.611   9.177  19.447  0.00  0.00    +0.000 A 
ATOM     24  C   UNL     1       2.355   8.504  18.478  0.00  0.00    +0.000 A 
ATOM     25  C   UNL     1       2.651   7.121  18.614  0.00  0.00    +0.000 A 
BRANCH  22  26
ATOM     26  O   UNL     1       1.024   9.086  21.752  0.00  0.00    +0.000 OA
ATOM     27  H   UNL     1       1.783   9.687  21.865  0.00  0.00    +0.000 HD
ENDBRANCH  22  26
ENDBRANCH  13  23
ENDBRANCH   1  13
BRANCH   1  28
ATOM     28  C   UNL     1      -1.416  10.576  19.017  0.00  0.00    +0.000 C 
BRANCH  28  29
ATOM     29  C   UNL     1      -1.185  10.102  17.564  0.00  0.00    +0.000 C 
BRANCH  29  30
ATOM     30  N   UNL     1      -2.401   9.501  16.960  0.00  0.00    +0.000 NA
ATOM     31  C   UNL     1      -2.555   9.919  15.553  0.00  0.00    +0.000 C 
ATOM     32  C   UNL     1      -3.197  11.293  15.630  0.00  0.00    +0.000 C 
ATOM     33  C   UNL     1      -4.145  11.171  16.809  0.00  0.00    +0.000 C 
ATOM     34  C   UNL     1      -3.655   9.957  17.592  0.00  0.00    +0.000 C 
ENDBRANCH  29  30
ENDBRANCH  28  29
ENDBRANCH   1  28
TORSDOF 7
ENDMDL
MODEL 8
REMARK VINA RESULT:      -7.4      4.056      9.297
REMARK  Name = 
REMARK  9 active torsions:
REMARK  status: ('A' for Active; 'I' for Inactive)
REMARK    1  A    between atoms: C_1  and  C_2
REMARK    2  A    between atoms: C_5  and  C_6
REMARK    3  A    between atoms: C_9  and  O_10
REMARK    4  A    between atoms: C_11  and  C_12
REMARK    5  A    between atoms: C_12  and  N_13
REMARK    6  A    between atoms: N_13  and  C_14
REMARK    7  A    between atoms: C_14  and  C_15
REMARK    8  A    between atoms: C_15  and  N_16
REMARK    9  A    between atoms: N_23  and  C_24
REMARK                            x       y       z     vdW  Elec       q    Type
REMARK                         _______ _______ _______ _____ _____    ______ ____
ROOT
ATOM      1  N   UNL     1       0.548  10.038  18.919  0.00  0.00    +0.000 N 
ATOM      2  C   UNL     1       0.289  10.917  19.982  0.00  0.00    +0.000 C 
ATOM      3  O   UNL     1       1.210  11.350  20.673  0.00  0.00    +0.000 OA
ATOM      4  N   UNL     1      -1.035  11.227  20.187  0.00  0.00    +0.000 N 
ATOM      5  H   UNL     1      -1.708  10.539  19.884  0.00  0.00    +0.000 HD
ENDROOT
BRANCH   4   6
ATOM      6  C   UNL     1      -1.533  12.183  21.102  0.00  0.00    +0.000 A 
ATOM      7  C   UNL     1      -1.850  13.494  20.736  0.00  0.00    +0.000 A 
ATOM      8  C   UNL     1      -2.308  14.408  21.687  0.00  0.00    +0.000 A 
ATOM      9  C   UNL     1      -2.470  14.003  23.003  0.00  0.00    +0.000 A 
ATOM     10  F   UNL     1      -2.902  14.882  23.916  0.00  0.00    +0.000 F 
ATOM     11  C   UNL     1      -2.192  12.696  23.384  0.00  0.00    +0.000 A 
ATOM     12  C   UNL     1      -1.728  11.782  22.432  0.00  0.00    +0.000 A 
ENDBRANCH   4   6
BRANCH   1  13
ATOM     13  C   UNL     1       1.948   9.587  18.783  0.00  0.00    +0.000 C 
BRANCH  13  23
ATOM     14  C   UNL     1       4.643   5.450  16.427  0.00  0.00    +0.000 C 
ATOM     15  C   UNL     1       3.674   4.978  17.476  0.00  0.00    +0.000 A 
ATOM     16  C   UNL     1       3.488   3.599  17.640  0.00  0.00    +0.000 A 
ATOM     17  C   UNL     1       2.661   3.121  18.641  0.00  0.00    +0.000 A 
ATOM     18  C   UNL     1       2.074   4.008  19.552  0.00  0.00    +0.000 A 
ATOM     19  C   UNL     1       1.078   3.466  20.547  0.00  0.00    +0.000 C 
ATOM     20  C   UNL     1       2.292   5.386  19.451  0.00  0.00    +0.000 A 
ATOM     21  N   UNL     1       1.840   6.209  20.415  0.00  0.00    +0.000 NA
ATOM     22  C   UNL     1       1.881   7.526  20.179  0.00  0.00    +0.000 A 
ATOM     23  C   UNL     1       2.225   8.121  18.985  0.00  0.00    +0.000 A 
ATOM     24  C   UNL     1       2.884   7.284  18.084  0.00  0.00    +0.000 A 
ATOM     25  C   UNL     1       2.978   5.886  18.320  0.00  0.00    +0.000 A 
BRANCH  22  26
ATOM     26  O   UNL     1       1.589   8.274  21.274  0.00  0.00    +0.000 OA
ATOM     27  H   UNL     1       0.615   8.230  21.255  0.00  0.00    +0.000 HD
ENDBRANCH  22  26
ENDBRANCH  13  23
ENDBRANCH   1  13
BRANCH   1  28
ATOM     28  C   UNL     1      -0.429   9.773  17.840  0.00  0.00    +0.000 C 
BRANCH  28  29
ATOM     29  C   UNL     1      -1.922  10.063  18.113  0.00  0.00    +0.000 C 
BRANCH  29  30
ATOM     30  N   UNL     1      -2.393  11.303  17.444  0.00  0.00    +0.000 NA
ATOM     31  C   UNL     1      -3.715  11.712  17.958  0.00  0.00    +0.000 C 
ATOM     32  C   UNL     1      -4.705  10.850  17.194  0.00  0.00    +0.000 C 
ATOM     33  C   UNL     1      -4.089  10.753  15.809  0.00  0.00    +0.000 C 
ATOM     34  C   UNL     1      -2.624  11.136  15.996  0.00  0.00    +0.000 C 
ENDBRANCH  29  30
ENDBRANCH  28  29
ENDBRANCH   1  28
TORSDOF 7
ENDMDL
MODEL 9
REMARK VINA RESULT:      -7.4      4.043      9.330
REMARK  Name = 
REMARK  9 active torsions:
REMARK  status: ('A' for Active; 'I' for Inactive)
REMARK    1  A    between atoms: C_1  and  C_2
REMARK    2  A    between atoms: C_5  and  C_6
REMARK    3  A    between atoms: C_9  and  O_10
REMARK    4  A    between atoms: C_11  and  C_12
REMARK    5  A    between atoms: C_12  and  N_13
REMARK    6  A    between atoms: N_13  and  C_14
REMARK    7  A    between atoms: C_14  and  C_15
REMARK    8  A    between atoms: C_15  and  N_16
REMARK    9  A    between atoms: N_23  and  C_24
REMARK                            x       y       z     vdW  Elec       q    Type
REMARK                         _______ _______ _______ _____ _____    ______ ____
ROOT
ATOM      1  N   UNL     1       0.282  10.277  19.518  0.00  0.00    +0.000 N 
ATOM      2  C   UNL     1       0.248  11.416  20.336  0.00  0.00    +0.000 C 
ATOM      3  O   UNL     1       1.266  12.081  20.526  0.00  0.00    +0.000 OA
ATOM      4  N   UNL     1      -0.972  11.706  20.900  0.00  0.00    +0.000 N 
ATOM      5  H   UNL     1      -1.597  10.926  21.041  0.00  0.00    +0.000 HD
ENDROOT
BRANCH   4   6
ATOM      6  C   UNL     1      -1.288  12.863  21.649  0.00  0.00    +0.000 A 
ATOM      7  C   UNL     1      -1.145  12.934  23.039  0.00  0.00    +0.000 A 
ATOM      8  C   UNL     1      -1.501  14.091  23.733  0.00  0.00    +0.000 A 
ATOM      9  C   UNL     1      -1.980  15.188  23.035  0.00  0.00    +0.000 A 
ATOM     10  F   UNL     1      -2.329  16.296  23.703  0.00  0.00    +0.000 F 
ATOM     11  C   UNL     1      -2.101  15.153  21.651  0.00  0.00    +0.000 A 
ATOM     12  C   UNL     1      -1.749  13.992  20.955  0.00  0.00    +0.000 A 
ENDBRANCH   4   6
BRANCH   1  13
ATOM     13  C   UNL     1       1.616   9.877  19.026  0.00  0.00    +0.000 C 
BRANCH  13  23
ATOM     14  C   UNL     1       4.582   6.032  16.508  0.00  0.00    +0.000 C 
ATOM     15  C   UNL     1       3.663   5.454  17.550  0.00  0.00    +0.000 A 
ATOM     16  C   UNL     1       3.582   4.061  17.670  0.00  0.00    +0.000 A 
ATOM     17  C   UNL     1       2.804   3.491  18.662  0.00  0.00    +0.000 A 
ATOM     18  C   UNL     1       2.163   4.301  19.607  0.00  0.00    +0.000 A 
ATOM     19  C   UNL     1       1.223   3.654  20.593  0.00  0.00    +0.000 C 
ATOM     20  C   UNL     1       2.278   5.694  19.550  0.00  0.00    +0.000 A 
ATOM     21  N   UNL     1       1.778   6.450  20.545  0.00  0.00    +0.000 NA
ATOM     22  C   UNL     1       1.718   7.773  20.352  0.00  0.00    +0.000 A 
ATOM     23  C   UNL     1       2.003   8.430  19.176  0.00  0.00    +0.000 A 
ATOM     24  C   UNL     1       2.712   7.674  18.241  0.00  0.00    +0.000 A 
ATOM     25  C   UNL     1       2.912   6.280  18.430  0.00  0.00    +0.000 A 
BRANCH  22  26
ATOM     26  O   UNL     1       1.384   8.461  21.474  0.00  0.00    +0.000 OA
ATOM     27  H   UNL     1       1.848   9.302  21.301  0.00  0.00    +0.000 HD
ENDBRANCH  22  26
ENDBRANCH  13  23
ENDBRANCH   1  13
BRANCH   1  28
ATOM     28  C   UNL     1      -0.938   9.657  18.954  0.00  0.00    +0.000 C 
BRANCH  28  29
ATOM     29  C   UNL     1      -1.267   9.902  17.465  0.00  0.00    +0.000 C 
BRANCH  29  30
ATOM     30  N   UNL     1      -1.985  11.183  17.243  0.00  0.00    +0.000 NA
ATOM     31  C   UNL     1      -3.073  11.358  18.225  0.00  0.00    +0.000 C 
ATOM     32  C   UNL     1      -4.226  10.543  17.667  0.00  0.00    +0.000 C 
ATOM     33  C   UNL     1      -4.108  10.751  16.167  0.00  0.00    +0.000 C 
ATOM     34  C   UNL     1      -2.682  11.246  15.944  0.00  0.00    +0.000 C 
ENDBRANCH  29  30
ENDBRANCH  28  29
ENDBRANCH   1  28
TORSDOF 7
ENDMDL
