MODEL 1
REMARK VINA RESULT:      -4.6      0.000      0.000
REMARK  Name = 
REMARK  8 active torsions:
REMARK  status: ('A' for Active; 'I' for Inactive)
REMARK    1  A    between atoms: N_1  and  C_2
REMARK    2  A    between atoms: C_2  and  C_3
REMARK    3  A    between atoms: C_3  and  C_4
REMARK    4  A    between atoms: C_4  and  C_5
REMARK    5  A    between atoms: C_5  and  N_6
REMARK    6  A    between atoms: C_5  and  P_7
REMARK    7  A    between atoms: P_7  and  O_9
REMARK    8  A    between atoms: P_7  and  O_10
REMARK                            x       y       z     vdW  Elec       q    Type
REMARK                         _______ _______ _______ _____ _____    ______ ____
ROOT
ATOM      1  C   UNL     1       5.888   5.148  17.826  0.00  0.00    +0.000 C 
ENDROOT
BRANCH   1   2
ATOM      2  N   UNL     1       6.389   4.036  18.687  0.00  0.00    +0.000 NA
ATOM      3  H   UNL     1       6.114   3.154  18.245  0.00  0.00    +0.000 HD
ATOM      4  H   UNL     1       5.942   4.069  19.597  0.00  0.00    +0.000 HD
ENDBRANCH   1   2
BRANCH   1   5
ATOM      5  P   UNL     1       6.858   5.216  16.275  0.00  0.00    +0.000 P 
ATOM      6  O   UNL     1       7.442   6.588  16.626  0.00  0.00    +0.000 OA
BRANCH   5   7
ATOM      7  O   UNL     1       7.974   4.139  16.829  0.00  0.00    +0.000 OA
ATOM      8  H   UNL     1       8.838   4.608  16.873  0.00  0.00    +0.000 HD
ENDBRANCH   5   7
BRANCH   5   9
ATOM      9  O   UNL     1       7.774   5.280  14.809  0.00  0.00    +0.000 OA
ATOM     10  H   UNL     1       8.650   4.930  15.071  0.00  0.00    +0.000 HD
ENDBRANCH   5   9
ENDBRANCH   1   5
BRANCH   1  11
ATOM     11  C   UNL     1       4.381   5.054  17.569  0.00  0.00    +0.000 C 
BRANCH  11  12
ATOM     12  C   UNL     1       3.915   3.755  16.888  0.00  0.00    +0.000 C 
BRANCH  12  13
ATOM     13  C   UNL     1       3.172   2.770  17.795  0.00  0.00    +0.000 C 
BRANCH  13  14
ATOM     14  N   UNL     1       4.087   1.821  18.404  0.00  0.00    +0.000 NA
ATOM     15  H   UNL     1       5.043   2.171  18.314  0.00  0.00    +0.000 HD
ATOM     16  H   UNL     1       4.070   0.939  17.884  0.00  0.00    +0.000 HD
ENDBRANCH  13  14
ENDBRANCH  12  13
ENDBRANCH  11  12
ENDBRANCH   1  11
TORSDOF 8
ENDMDL
MODEL 2
REMARK VINA RESULT:      -4.5      1.045      1.061
REMARK  Name = 
REMARK  8 active torsions:
REMARK  status: ('A' for Active; 'I' for Inactive)
REMARK    1  A    between atoms: N_1  and  C_2
REMARK    2  A    between atoms: C_2  and  C_3
REMARK    3  A    between atoms: C_3  and  C_4
REMARK    4  A    between atoms: C_4  and  C_5
REMARK    5  A    between atoms: C_5  and  N_6
REMARK    6  A    between atoms: C_5  and  P_7
REMARK    7  A    between atoms: P_7  and  O_9
REMARK    8  A    between atoms: P_7  and  O_10
REMARK                            x       y       z     vdW  Elec       q    Type
REMARK                         _______ _______ _______ _____ _____    ______ ____
ROOT
ATOM      1  C   UNL     1       6.266   5.398  18.696  0.00  0.00    +0.000 C 
ENDROOT
BRANCH   1   2
ATOM      2  N   UNL     1       7.342   5.293  19.725  0.00  0.00    +0.000 NA
ATOM      3  H   UNL     1       7.839   4.411  19.565  0.00  0.00    +0.000 HD
ATOM      4  H   UNL     1       6.936   5.245  20.653  0.00  0.00    +0.000 HD
ENDBRANCH   1   2
BRANCH   1   5
ATOM      5  P   UNL     1       6.955   5.037  17.039  0.00  0.00    +0.000 P 
ATOM      6  O   UNL     1       7.552   6.442  16.912  0.00  0.00    +0.000 OA
BRANCH   5   7
ATOM      7  O   UNL     1       8.178   4.125  17.657  0.00  0.00    +0.000 OA
ATOM      8  H   UNL     1       8.946   4.723  17.805  0.00  0.00    +0.000 HD
ENDBRANCH   5   7
BRANCH   5   9
ATOM      9  O   UNL     1       7.606   4.696  15.473  0.00  0.00    +0.000 OA
ATOM     10  H   UNL     1       6.811   4.592  14.912  0.00  0.00    +0.000 HD
ENDBRANCH   5   9
ENDBRANCH   1   5
BRANCH   1  11
ATOM     11  C   UNL     1       5.053   4.524  19.028  0.00  0.00    +0.000 C 
BRANCH  11  12
ATOM     12  C   UNL     1       4.450   3.765  17.832  0.00  0.00    +0.000 C 
BRANCH  12  13
ATOM     13  C   UNL     1       3.410   2.699  18.190  0.00  0.00    +0.000 C 
BRANCH  13  14
ATOM     14  N   UNL     1       4.028   1.395  18.356  0.00  0.00    +0.000 NA
ATOM     15  H   UNL     1       5.044   1.502  18.354  0.00  0.00    +0.000 HD
ATOM     16  H   UNL     1       3.814   0.804  17.547  0.00  0.00    +0.000 HD
ENDBRANCH  13  14
ENDBRANCH  12  13
ENDBRANCH  11  12
ENDBRANCH   1  11
TORSDOF 8
ENDMDL
MODEL 3
REMARK VINA RESULT:      -4.5      2.576      3.514
REMARK  Name = 
REMARK  8 active torsions:
REMARK  status: ('A' for Active; 'I' for Inactive)
REMARK    1  A    between atoms: N_1  and  C_2
REMARK    2  A    between atoms: C_2  and  C_3
REMARK    3  A    between atoms: C_3  and  C_4
REMARK    4  A    between atoms: C_4  and  C_5
REMARK    5  A    between atoms: C_5  and  N_6
REMARK    6  A    between atoms: C_5  and  P_7
REMARK    7  A    between atoms: P_7  and  O_9
REMARK    8  A    between atoms: P_7  and  O_10
REMARK                            x       y       z     vdW  Elec       q    Type
REMARK                         _______ _______ _______ _____ _____    ______ ____
ROOT
ATOM      1  C   UNL     1       5.582   5.194  17.388  0.00  0.00    +0.000 C 
ENDROOT
BRANCH   1   2
ATOM      2  N   UNL     1       5.591   3.721  17.627  0.00  0.00    +0.000 NA
ATOM      3  H   UNL     1       4.924   3.525  18.380  0.00  0.00    +0.000 HD
ATOM      4  H   UNL     1       6.505   3.423  17.950  0.00  0.00    +0.000 HD
ENDBRANCH   1   2
BRANCH   1   5
ATOM      5  P   UNL     1       7.020   5.965  18.217  0.00  0.00    +0.000 P 
ATOM      6  O   UNL     1       7.774   4.634  18.287  0.00  0.00    +0.000 OA
BRANCH   5   7
ATOM      7  O   UNL     1       7.551   6.666  16.824  0.00  0.00    +0.000 OA
ATOM      8  H   UNL     1       7.568   7.639  16.972  0.00  0.00    +0.000 HD
ENDBRANCH   5   7
BRANCH   5   9
ATOM      9  O   UNL     1       8.380   6.694  19.000  0.00  0.00    +0.000 OA
ATOM     10  H   UNL     1       8.071   7.602  19.197  0.00  0.00    +0.000 HD
ENDBRANCH   5   9
ENDBRANCH   1   5
BRANCH   1  11
ATOM     11  C   UNL     1       5.509   5.545  15.899  0.00  0.00    +0.000 C 
BRANCH  11  12
ATOM     12  C   UNL     1       5.536   4.338  14.943  0.00  0.00    +0.000 C 
BRANCH  12  13
ATOM     13  C   UNL     1       6.653   4.359  13.895  0.00  0.00    +0.000 C 
BRANCH  13  14
ATOM     14  N   UNL     1       7.648   5.369  14.205  0.00  0.00    +0.000 NA
ATOM     15  H   UNL     1       8.080   5.151  15.106  0.00  0.00    +0.000 HD
ATOM     16  H   UNL     1       7.193   6.277  14.335  0.00  0.00    +0.000 HD
ENDBRANCH  13  14
ENDBRANCH  12  13
ENDBRANCH  11  12
ENDBRANCH   1  11
TORSDOF 8
ENDMDL
MODEL 4
REMARK VINA RESULT:      -4.5      2.225      3.014
REMARK  Name = 
REMARK  8 active torsions:
REMARK  status: ('A' for Active; 'I' for Inactive)
REMARK    1  A    between atoms: N_1  and  C_2
REMARK    2  A    between atoms: C_2  and  C_3
REMARK    3  A    between atoms: C_3  and  C_4
REMARK    4  A    between atoms: C_4  and  C_5
REMARK    5  A    between atoms: C_5  and  N_6
REMARK    6  A    between atoms: C_5  and  P_7
REMARK    7  A    between atoms: P_7  and  O_9
REMARK    8  A    between atoms: P_7  and  O_10
REMARK                            x       y       z     vdW  Elec       q    Type
REMARK                         _______ _______ _______ _____ _____    ______ ____
ROOT
ATOM      1  C   UNL     1       5.827   5.817  16.310  0.00  0.00    +0.000 C 
ENDROOT
BRANCH   1   2
ATOM      2  N   UNL     1       5.145   7.003  15.713  0.00  0.00    +0.000 NA
ATOM      3  H   UNL     1       5.791   7.796  15.778  0.00  0.00    +0.000 HD
ATOM      4  H   UNL     1       4.320   7.242  16.254  0.00  0.00    +0.000 HD
ENDBRANCH   1   2
BRANCH   1   5
ATOM      5  P   UNL     1       6.107   4.548  15.020  0.00  0.00    +0.000 P 
ATOM      6  O   UNL     1       7.615   4.817  14.995  0.00  0.00    +0.000 OA
BRANCH   5   7
ATOM      7  O   UNL     1       5.928   3.307  16.087  0.00  0.00    +0.000 OA
ATOM      8  H   UNL     1       4.963   3.149  16.196  0.00  0.00    +0.000 HD
ENDBRANCH   5   7
BRANCH   5   9
ATOM      9  O   UNL     1       6.372   3.349  13.802  0.00  0.00    +0.000 OA
ATOM     10  H   UNL     1       7.347   3.316  13.722  0.00  0.00    +0.000 HD
ENDBRANCH   5   9
ENDBRANCH   1   5
BRANCH   1  11
ATOM     11  C   UNL     1       7.115   6.194  17.049  0.00  0.00    +0.000 C 
BRANCH  11  12
ATOM     12  C   UNL     1       7.206   5.686  18.499  0.00  0.00    +0.000 C 
BRANCH  12  13
ATOM     13  C   UNL     1       5.886   5.206  19.109  0.00  0.00    +0.000 C 
BRANCH  13  14
ATOM     14  N   UNL     1       5.789   3.757  19.081  0.00  0.00    +0.000 NA
ATOM     15  H   UNL     1       5.426   3.461  18.172  0.00  0.00    +0.000 HD
ATOM     16  H   UNL     1       5.097   3.441  19.767  0.00  0.00    +0.000 HD
ENDBRANCH  13  14
ENDBRANCH  12  13
ENDBRANCH  11  12
ENDBRANCH   1  11
TORSDOF 8
ENDMDL
MODEL 5
REMARK VINA RESULT:      -4.4      1.694      2.050
REMARK  Name = 
REMARK  8 active torsions:
REMARK  status: ('A' for Active; 'I' for Inactive)
REMARK    1  A    between atoms: N_1  and  C_2
REMARK    2  A    between atoms: C_2  and  C_3
REMARK    3  A    between atoms: C_3  and  C_4
REMARK    4  A    between atoms: C_4  and  C_5
REMARK    5  A    between atoms: C_5  and  N_6
REMARK    6  A    between atoms: C_5  and  P_7
REMARK    7  A    between atoms: P_7  and  O_9
REMARK    8  A    between atoms: P_7  and  O_10
REMARK                            x       y       z     vdW  Elec       q    Type
REMARK                         _______ _______ _______ _____ _____    ______ ____
ROOT
ATOM      1  C   UNL     1       4.648   5.358  17.063  0.00  0.00    +0.000 C 
ENDROOT
BRANCH   1   2
ATOM      2  N   UNL     1       4.647   6.848  17.156  0.00  0.00    +0.000 NA
ATOM      3  H   UNL     1       3.991   7.111  17.899  0.00  0.00    +0.000 HD
ATOM      4  H   UNL     1       4.301   7.253  16.293  0.00  0.00    +0.000 HD
ENDBRANCH   1   2
BRANCH   1   5
ATOM      5  P   UNL     1       6.368   4.735  17.117  0.00  0.00    +0.000 P 
ATOM      6  O   UNL     1       6.239   4.321  18.587  0.00  0.00    +0.000 OA
BRANCH   5   7
ATOM      7  O   UNL     1       5.987   3.373  16.272  0.00  0.00    +0.000 OA
ATOM      8  H   UNL     1       6.823   2.873  16.129  0.00  0.00    +0.000 HD
ENDBRANCH   5   7
BRANCH   5   9
ATOM      9  O   UNL     1       7.993   4.144  17.169  0.00  0.00    +0.000 OA
ATOM     10  H   UNL     1       8.049   3.559  16.386  0.00  0.00    +0.000 HD
ENDBRANCH   5   9
ENDBRANCH   1   5
BRANCH   1  11
ATOM     11  C   UNL     1       3.756   4.706  18.124  0.00  0.00    +0.000 C 
BRANCH  11  12
ATOM     12  C   UNL     1       2.679   3.754  17.574  0.00  0.00    +0.000 C 
BRANCH  12  13
ATOM     13  C   UNL     1       2.957   2.262  17.777  0.00  0.00    +0.000 C 
BRANCH  13  14
ATOM     14  N   UNL     1       4.154   2.054  18.572  0.00  0.00    +0.000 NA
ATOM     15  H   UNL     1       3.902   1.585  19.444  0.00  0.00    +0.000 HD
ATOM     16  H   UNL     1       4.547   2.957  18.852  0.00  0.00    +0.000 HD
ENDBRANCH  13  14
ENDBRANCH  12  13
ENDBRANCH  11  12
ENDBRANCH   1  11
TORSDOF 8
ENDMDL
MODEL 6
REMARK VINA RESULT:      -4.4      3.413      4.122
REMARK  Name = 
REMARK  8 active torsions:
REMARK  status: ('A' for Active; 'I' for Inactive)
REMARK    1  A    between atoms: N_1  and  C_2
REMARK    2  A    between atoms: C_2  and  C_3
REMARK    3  A    between atoms: C_3  and  C_4
REMARK    4  A    between atoms: C_4  and  C_5
REMARK    5  A    between atoms: C_5  and  N_6
REMARK    6  A    between atoms: C_5  and  P_7
REMARK    7  A    between atoms: P_7  and  O_9
REMARK    8  A    between atoms: P_7  and  O_10
REMARK                            x       y       z     vdW  Elec       q    Type
REMARK                         _______ _______ _______ _____ _____    ______ ____
ROOT
ATOM      1  C   UNL     1       2.877   3.330  18.187  0.00  0.00    +0.000 C 
ENDROOT
BRANCH   1   2
ATOM      2  N   UNL     1       2.074   4.588  18.129  0.00  0.00    +0.000 NA
ATOM      3  H   UNL     1       2.051   4.895  17.151  0.00  0.00    +0.000 HD
ATOM      4  H   UNL     1       2.529   5.320  18.663  0.00  0.00    +0.000 HD
ENDBRANCH   1   2
BRANCH   1   5
ATOM      5  P   UNL     1       4.626   3.727  18.549  0.00  0.00    +0.000 P 
ATOM      6  O   UNL     1       4.237   4.844  19.523  0.00  0.00    +0.000 OA
BRANCH   5   7
ATOM      7  O   UNL     1       4.816   2.398  19.503  0.00  0.00    +0.000 OA
ATOM      8  H   UNL     1       4.891   2.712  20.433  0.00  0.00    +0.000 HD
ENDBRANCH   5   7
BRANCH   5   9
ATOM      9  O   UNL     1       6.280   4.102  18.892  0.00  0.00    +0.000 OA
ATOM     10  H   UNL     1       6.220   4.767  19.607  0.00  0.00    +0.000 HD
ENDBRANCH   5   9
ENDBRANCH   1   5
BRANCH   1  11
ATOM     11  C   UNL     1       2.293   2.310  19.171  0.00  0.00    +0.000 C 
BRANCH  11  12
ATOM     12  C   UNL     1       1.145   2.836  20.050  0.00  0.00    +0.000 C 
BRANCH  12  13
ATOM     13  C   UNL     1       1.507   3.089  21.517  0.00  0.00    +0.000 C 
BRANCH  13  14
ATOM     14  N   UNL     1       2.801   2.518  21.846  0.00  0.00    +0.000 NA
ATOM     15  H   UNL     1       2.719   1.971  22.706  0.00  0.00    +0.000 HD
ATOM     16  H   UNL     1       3.467   3.266  22.061  0.00  0.00    +0.000 HD
ENDBRANCH  13  14
ENDBRANCH  12  13
ENDBRANCH  11  12
ENDBRANCH   1  11
TORSDOF 8
ENDMDL
MODEL 7
REMARK VINA RESULT:      -4.4      1.605      2.219
REMARK  Name = 
REMARK  8 active torsions:
REMARK  status: ('A' for Active; 'I' for Inactive)
REMARK    1  A    between atoms: N_1  and  C_2
REMARK    2  A    between atoms: C_2  and  C_3
REMARK    3  A    between atoms: C_3  and  C_4
REMARK    4  A    between atoms: C_4  and  C_5
REMARK    5  A    between atoms: C_5  and  N_6
REMARK    6  A    between atoms: C_5  and  P_7
REMARK    7  A    between atoms: P_7  and  O_9
REMARK    8  A    between atoms: P_7  and  O_10
REMARK                            x       y       z     vdW  Elec       q    Type
REMARK                         _______ _______ _______ _____ _____    ______ ____
ROOT
ATOM      1  C   UNL     1       6.843   4.858  17.771  0.00  0.00    +0.000 C 
ENDROOT
BRANCH   1   2
ATOM      2  N   UNL     1       8.110   4.075  17.672  0.00  0.00    +0.000 NA
ATOM      3  H   UNL     1       7.903   3.216  17.153  0.00  0.00    +0.000 HD
ATOM      4  H   UNL     1       8.425   3.800  18.596  0.00  0.00    +0.000 HD
ENDBRANCH   1   2
BRANCH   1   5
ATOM      5  P   UNL     1       7.185   6.632  17.480  0.00  0.00    +0.000 P 
ATOM      6  O   UNL     1       7.647   6.372  16.043  0.00  0.00    +0.000 OA
BRANCH   5   7
ATOM      7  O   UNL     1       5.586   7.001  17.337  0.00  0.00    +0.000 OA
ATOM      8  H   UNL     1       5.269   6.614  16.489  0.00  0.00    +0.000 HD
ENDBRANCH   5   7
BRANCH   5   9
ATOM      9  O   UNL     1       7.508   8.309  17.204  0.00  0.00    +0.000 OA
ATOM     10  H   UNL     1       8.355   8.302  16.715  0.00  0.00    +0.000 HD
ENDBRANCH   5   9
ENDBRANCH   1   5
BRANCH   1  11
ATOM     11  C   UNL     1       5.747   4.315  16.847  0.00  0.00    +0.000 C 
BRANCH  11  12
ATOM     12  C   UNL     1       4.535   3.697  17.568  0.00  0.00    +0.000 C 
BRANCH  12  13
ATOM     13  C   UNL     1       4.601   3.722  19.098  0.00  0.00    +0.000 C 
BRANCH  13  14
ATOM     14  N   UNL     1       4.984   2.427  19.630  0.00  0.00    +0.000 NA
ATOM     15  H   UNL     1       4.877   2.434  20.646  0.00  0.00    +0.000 HD
ATOM     16  H   UNL     1       5.981   2.263  19.462  0.00  0.00    +0.000 HD
ENDBRANCH  13  14
ENDBRANCH  12  13
ENDBRANCH  11  12
ENDBRANCH   1  11
TORSDOF 8
ENDMDL
MODEL 8
REMARK VINA RESULT:      -4.4      0.948      1.035
REMARK  Name = 
REMARK  8 active torsions:
REMARK  status: ('A' for Active; 'I' for Inactive)
REMARK    1  A    between atoms: N_1  and  C_2
REMARK    2  A    between atoms: C_2  and  C_3
REMARK    3  A    between atoms: C_3  and  C_4
REMARK    4  A    between atoms: C_4  and  C_5
REMARK    5  A    between atoms: C_5  and  N_6
REMARK    6  A    between atoms: C_5  and  P_7
REMARK    7  A    between atoms: P_7  and  O_9
REMARK    8  A    between atoms: P_7  and  O_10
REMARK                            x       y       z     vdW  Elec       q    Type
REMARK                         _______ _______ _______ _____ _____    ______ ____
ROOT
ATOM      1  C   UNL     1       5.508   4.680  17.399  0.00  0.00    +0.000 C 
ENDROOT
BRANCH   1   2
ATOM      2  N   UNL     1       6.255   4.079  18.543  0.00  0.00    +0.000 NA
ATOM      3  H   UNL     1       7.249   4.067  18.292  0.00  0.00    +0.000 HD
ATOM      4  H   UNL     1       5.969   3.115  18.681  0.00  0.00    +0.000 HD
ENDBRANCH   1   2
BRANCH   1   5
ATOM      5  P   UNL     1       6.661   5.030  16.021  0.00  0.00    +0.000 P 
ATOM      6  O   UNL     1       6.704   6.525  16.354  0.00  0.00    +0.000 OA
BRANCH   5   7
ATOM      7  O   UNL     1       7.947   4.393  16.828  0.00  0.00    +0.000 OA
ATOM      8  H   UNL     1       7.848   4.632  17.777  0.00  0.00    +0.000 HD
ENDBRANCH   5   7
BRANCH   5   9
ATOM      9  O   UNL     1       7.751   5.361  14.719  0.00  0.00    +0.000 OA
ATOM     10  H   UNL     1       8.164   4.493  14.541  0.00  0.00    +0.000 HD
ENDBRANCH   5   9
ENDBRANCH   1   5
BRANCH   1  11
ATOM     11  C   UNL     1       4.318   3.821  16.962  0.00  0.00    +0.000 C 
BRANCH  11  12
ATOM     12  C   UNL     1       2.967   4.214  17.584  0.00  0.00    +0.000 C 
BRANCH  12  13
ATOM     13  C   UNL     1       2.281   3.119  18.407  0.00  0.00    +0.000 C 
BRANCH  13  14
ATOM     14  N   UNL     1       2.113   1.904  17.629  0.00  0.00    +0.000 NA
ATOM     15  H   UNL     1       2.004   2.148  16.643  0.00  0.00    +0.000 HD
ATOM     16  H   UNL     1       1.238   1.441  17.893  0.00  0.00    +0.000 HD
ENDBRANCH  13  14
ENDBRANCH  12  13
ENDBRANCH  11  12
ENDBRANCH   1  11
TORSDOF 8
ENDMDL
MODEL 9
REMARK VINA RESULT:      -4.4      3.264      3.849
REMARK  Name = 
REMARK  8 active torsions:
REMARK  status: ('A' for Active; 'I' for Inactive)
REMARK    1  A    between atoms: N_1  and  C_2
REMARK    2  A    between atoms: C_2  and  C_3
REMARK    3  A    between atoms: C_3  and  C_4
REMARK    4  A    between atoms: C_4  and  C_5
REMARK    5  A    between atoms: C_5  and  N_6
REMARK    6  A    between atoms: C_5  and  P_7
REMARK    7  A    between atoms: P_7  and  O_9
REMARK    8  A    between atoms: P_7  and  O_10
REMARK                            x       y       z     vdW  Elec       q    Type
REMARK                         _______ _______ _______ _____ _____    ______ ____
ROOT
ATOM      1  C   UNL     1       3.015   4.730  19.570  0.00  0.00    +0.000 C 
ENDROOT
BRANCH   1   2
ATOM      2  N   UNL     1       3.009   6.109  20.142  0.00  0.00    +0.000 NA
ATOM      3  H   UNL     1       3.951   6.495  20.028  0.00  0.00    +0.000 HD
ATOM      4  H   UNL     1       2.817   6.074  21.138  0.00  0.00    +0.000 HD
ENDBRANCH   1   2
BRANCH   1   5
ATOM      5  P   UNL     1       4.700   4.305  18.994  0.00  0.00    +0.000 P 
ATOM      6  O   UNL     1       4.707   2.992  19.783  0.00  0.00    +0.000 OA
BRANCH   5   7
ATOM      7  O   UNL     1       4.168   3.881  17.494  0.00  0.00    +0.000 OA
ATOM      8  H   UNL     1       4.127   2.898  17.464  0.00  0.00    +0.000 HD
ENDBRANCH   5   7
BRANCH   5   9
ATOM      9  O   UNL     1       6.292   3.903  18.449  0.00  0.00    +0.000 OA
ATOM     10  H   UNL     1       6.662   3.381  19.189  0.00  0.00    +0.000 HD
ENDBRANCH   5   9
ENDBRANCH   1   5
BRANCH   1  11
ATOM     11  C   UNL     1       2.451   3.691  20.544  0.00  0.00    +0.000 C 
BRANCH  11  12
ATOM     12  C   UNL     1       1.077   3.115  20.157  0.00  0.00    +0.000 C 
BRANCH  12  13
ATOM     13  C   UNL     1       1.022   2.408  18.799  0.00  0.00    +0.000 C 
BRANCH  13  14
ATOM     14  N   UNL     1       2.157   1.520  18.622  0.00  0.00    +0.000 NA
ATOM     15  H   UNL     1       2.911   1.809  19.248  0.00  0.00    +0.000 HD
ATOM     16  H   UNL     1       2.534   1.624  17.675  0.00  0.00    +0.000 HD
ENDBRANCH  13  14
ENDBRANCH  12  13
ENDBRANCH  11  12
ENDBRANCH   1  11
TORSDOF 8
ENDMDL
