MODEL 1
REMARK VINA RESULT:      -8.7      0.000      0.000
REMARK  Name = 
REMARK  10 active torsions:
REMARK  status: ('A' for Active; 'I' for Inactive)
REMARK    1  A    between atoms: O_1  and  C_2
REMARK    2  A    between atoms: C_5  and  C_6
REMARK    3  A    between atoms: C_6  and  C_7
REMARK    4  A    between atoms: C_7  and  C_8
REMARK    5  A    between atoms: C_8  and  C_9
REMARK    6  A    between atoms: C_9  and  N_10
REMARK    7  A    between atoms: N_10  and  C_11
REMARK    8  A    between atoms: C_11  and  C_12
REMARK    9  A    between atoms: C_12  and  C_13
REMARK   10  A    between atoms: C_14  and  C_15
REMARK                            x       y       z     vdW  Elec       q    Type
REMARK                         _______ _______ _______ _____ _____    ______ ____
ROOT
ATOM      1  C   UNL     1       5.988   5.498  16.944  0.00  0.00    +0.000 A 
ATOM      2  C   UNL     1       4.660   5.127  17.222  0.00  0.00    +0.000 A 
ATOM      3  N   UNL     1       4.248   4.385  16.142  0.00  0.00    +0.000 N 
ATOM      4  C   UNL     1       5.180   4.378  15.139  0.00  0.00    +0.000 A 
ATOM      5  C   UNL     1       5.115   3.824  13.853  0.00  0.00    +0.000 A 
ATOM      6  C   UNL     1       6.245   3.911  13.040  0.00  0.00    +0.000 A 
ATOM      7  C   UNL     1       7.402   4.530  13.495  0.00  0.00    +0.000 A 
ATOM      8  C   UNL     1       7.440   5.097  14.774  0.00  0.00    +0.000 A 
ATOM      9  C   UNL     1       6.309   5.033  15.619  0.00  0.00    +0.000 A 
ATOM     10  H   UNL     1       3.351   3.923  16.075  0.00  0.00    +0.000 HD
ENDROOT
BRANCH   2  11
ATOM     11  C   UNL     1       3.797   5.388  18.415  0.00  0.00    +0.000 A 
ATOM     12  C   UNL     1       3.167   6.647  18.532  0.00  0.00    +0.000 A 
ATOM     13  C   UNL     1       2.246   6.931  19.538  0.00  0.00    +0.000 A 
ATOM     14  C   UNL     1       1.967   5.975  20.501  0.00  0.00    +0.000 A 
ATOM     15  C   UNL     1       2.615   4.734  20.463  0.00  0.00    +0.000 A 
ATOM     16  C   UNL     1       2.354   3.781  21.452  0.00  0.00    +0.000 A 
ATOM     17  N   UNL     1       2.926   2.561  21.522  0.00  0.00    +0.000 NA
ATOM     18  C   UNL     1       3.785   2.259  20.533  0.00  0.00    +0.000 A 
ATOM     19  C   UNL     1       4.097   3.114  19.486  0.00  0.00    +0.000 A 
ATOM     20  C   UNL     1       3.531   4.411  19.428  0.00  0.00    +0.000 A 
ENDBRANCH   2  11
BRANCH   1  21
ATOM     21  C   UNL     1       6.877   6.233  17.906  0.00  0.00    +0.000 C 
BRANCH  21  22
ATOM     22  C   UNL     1       7.559   7.512  17.423  0.00  0.00    +0.000 C 
BRANCH  22  23
ATOM     23  N   UNL     1       8.334   8.190  18.472  0.00  0.00    +0.000 NA
ATOM     24  H   UNL     1       7.831   8.094  19.353  0.00  0.00    +0.000 HD
BRANCH  23  25
ATOM     25  C   UNL     1       8.499   9.608  18.164  0.00  0.00    +0.000 C 
BRANCH  25  26
ATOM     26  C   UNL     1       9.357  10.295  19.213  0.00  0.00    +0.000 C 
BRANCH  26  27
ATOM     27  C   UNL     1       9.352  11.796  18.937  0.00  0.00    +0.000 C 
BRANCH  27  28
ATOM     28  C   UNL     1      10.348  12.148  17.841  0.00  0.00    +0.000 C 
BRANCH  28  32
ATOM     29  C   UNL     1      10.457  16.381  17.133  0.00  0.00    +0.000 A 
ATOM     30  C   UNL     1      11.513  15.585  16.703  0.00  0.00    +0.000 A 
ATOM     31  C   UNL     1      11.476  14.212  16.940  0.00  0.00    +0.000 A 
ATOM     32  C   UNL     1      10.382  13.633  17.597  0.00  0.00    +0.000 A 
ATOM     33  C   UNL     1       9.337  14.454  18.043  0.00  0.00    +0.000 A 
ATOM     34  C   UNL     1       9.374  15.828  17.806  0.00  0.00    +0.000 A 
BRANCH  29  35
ATOM     35  O   UNL     1      10.450  17.726  16.912  0.00  0.00    +0.000 OA
ATOM     36  H   UNL     1      11.349  18.001  16.668  0.00  0.00    +0.000 HD
ENDBRANCH  29  35
ENDBRANCH  28  32
ENDBRANCH  27  28
ENDBRANCH  26  27
ENDBRANCH  25  26
ENDBRANCH  23  25
ENDBRANCH  22  23
ENDBRANCH  21  22
ENDBRANCH   1  21
TORSDOF 10
ENDMDL
MODEL 2
REMARK VINA RESULT:      -8.6      2.703      5.231
REMARK  Name = 
REMARK  10 active torsions:
REMARK  status: ('A' for Active; 'I' for Inactive)
REMARK    1  A    between atoms: O_1  and  C_2
REMARK    2  A    between atoms: C_5  and  C_6
REMARK    3  A    between atoms: C_6  and  C_7
REMARK    4  A    between atoms: C_7  and  C_8
REMARK    5  A    between atoms: C_8  and  C_9
REMARK    6  A    between atoms: C_9  and  N_10
REMARK    7  A    between atoms: N_10  and  C_11
REMARK    8  A    between atoms: C_11  and  C_12
REMARK    9  A    between atoms: C_12  and  C_13
REMARK   10  A    between atoms: C_14  and  C_15
REMARK                            x       y       z     vdW  Elec       q    Type
REMARK                         _______ _______ _______ _____ _____    ______ ____
ROOT
ATOM      1  C   UNL     1       3.174   6.044  18.999  0.00  0.00    +0.000 A 
ATOM      2  C   UNL     1       2.258   6.827  19.725  0.00  0.00    +0.000 A 
ATOM      3  N   UNL     1       1.864   6.050  20.786  0.00  0.00    +0.000 N 
ATOM      4  C   UNL     1       2.365   4.778  20.705  0.00  0.00    +0.000 A 
ATOM      5  C   UNL     1       2.134   3.664  21.525  0.00  0.00    +0.000 A 
ATOM      6  C   UNL     1       2.828   2.486  21.247  0.00  0.00    +0.000 A 
ATOM      7  C   UNL     1       3.723   2.421  20.187  0.00  0.00    +0.000 A 
ATOM      8  C   UNL     1       3.923   3.537  19.366  0.00  0.00    +0.000 A 
ATOM      9  C   UNL     1       3.230   4.743  19.615  0.00  0.00    +0.000 A 
ATOM     10  H   UNL     1       1.251   6.362  21.527  0.00  0.00    +0.000 HD
ENDROOT
BRANCH   2  11
ATOM     11  C   UNL     1       1.774   8.224  19.508  0.00  0.00    +0.000 A 
ATOM     12  C   UNL     1       1.859   8.777  18.211  0.00  0.00    +0.000 A 
ATOM     13  C   UNL     1       1.315  10.019  17.889  0.00  0.00    +0.000 A 
ATOM     14  C   UNL     1       0.713  10.779  18.879  0.00  0.00    +0.000 A 
ATOM     15  C   UNL     1       0.661  10.301  20.194  0.00  0.00    +0.000 A 
ATOM     16  C   UNL     1       0.079  11.082  21.197  0.00  0.00    +0.000 A 
ATOM     17  N   UNL     1      -0.016  10.729  22.496  0.00  0.00    +0.000 NA
ATOM     18  C   UNL     1       0.468   9.514  22.811  0.00  0.00    +0.000 A 
ATOM     19  C   UNL     1       1.038   8.644  21.894  0.00  0.00    +0.000 A 
ATOM     20  C   UNL     1       1.179   9.025  20.537  0.00  0.00    +0.000 A 
ENDBRANCH   2  11
BRANCH   1  21
ATOM     21  C   UNL     1       3.947   6.536  17.810  0.00  0.00    +0.000 C 
BRANCH  21  22
ATOM     22  C   UNL     1       4.869   5.551  17.093  0.00  0.00    +0.000 C 
BRANCH  22  23
ATOM     23  N   UNL     1       6.293   5.902  17.201  0.00  0.00    +0.000 NA
ATOM     24  H   UNL     1       6.673   5.439  18.027  0.00  0.00    +0.000 HD
BRANCH  23  25
ATOM     25  C   UNL     1       6.466   7.345  17.337  0.00  0.00    +0.000 C 
BRANCH  25  26
ATOM     26  C   UNL     1       7.928   7.699  17.550  0.00  0.00    +0.000 C 
BRANCH  26  27
ATOM     27  C   UNL     1       8.022   9.177  17.917  0.00  0.00    +0.000 C 
BRANCH  27  28
ATOM     28  C   UNL     1       8.995   9.389  19.068  0.00  0.00    +0.000 C 
BRANCH  28  32
ATOM     29  C   UNL     1      10.663  13.343  18.957  0.00  0.00    +0.000 A 
ATOM     30  C   UNL     1      10.658  12.566  17.803  0.00  0.00    +0.000 A 
ATOM     31  C   UNL     1      10.121  11.281  17.846  0.00  0.00    +0.000 A 
ATOM     32  C   UNL     1       9.580  10.775  19.035  0.00  0.00    +0.000 A 
ATOM     33  C   UNL     1       9.613  11.563  20.193  0.00  0.00    +0.000 A 
ATOM     34  C   UNL     1      10.151  12.850  20.152  0.00  0.00    +0.000 A 
BRANCH  29  35
ATOM     35  O   UNL     1      11.170  14.608  18.956  0.00  0.00    +0.000 OA
ATOM     36  H   UNL     1      12.117  14.559  19.164  0.00  0.00    +0.000 HD
ENDBRANCH  29  35
ENDBRANCH  28  32
ENDBRANCH  27  28
ENDBRANCH  26  27
ENDBRANCH  25  26
ENDBRANCH  23  25
ENDBRANCH  22  23
ENDBRANCH  21  22
ENDBRANCH   1  21
TORSDOF 10
ENDMDL
MODEL 3
REMARK VINA RESULT:      -8.5      1.202      1.677
REMARK  Name = 
REMARK  10 active torsions:
REMARK  status: ('A' for Active; 'I' for Inactive)
REMARK    1  A    between atoms: O_1  and  C_2
REMARK    2  A    between atoms: C_5  and  C_6
REMARK    3  A    between atoms: C_6  and  C_7
REMARK    4  A    between atoms: C_7  and  C_8
REMARK    5  A    between atoms: C_8  and  C_9
REMARK    6  A    between atoms: C_9  and  N_10
REMARK    7  A    between atoms: N_10  and  C_11
REMARK    8  A    between atoms: C_11  and  C_12
REMARK    9  A    between atoms: C_12  and  C_13
REMARK   10  A    between atoms: C_14  and  C_15
REMARK                            x       y       z     vdW  Elec       q    Type
REMARK                         _______ _______ _______ _____ _____    ______ ____
ROOT
ATOM      1  C   UNL     1       6.239   5.653  15.596  0.00  0.00    +0.000 A 
ATOM      2  C   UNL     1       5.025   5.145  16.092  0.00  0.00    +0.000 A 
ATOM      3  N   UNL     1       4.653   4.151  15.220  0.00  0.00    +0.000 N 
ATOM      4  C   UNL     1       5.481   4.089  14.130  0.00  0.00    +0.000 A 
ATOM      5  C   UNL     1       5.400   3.289  12.982  0.00  0.00    +0.000 A 
ATOM      6  C   UNL     1       6.423   3.386  12.038  0.00  0.00    +0.000 A 
ATOM      7  C   UNL     1       7.491   4.252  12.233  0.00  0.00    +0.000 A 
ATOM      8  C   UNL     1       7.543   5.059  13.376  0.00  0.00    +0.000 A 
ATOM      9  C   UNL     1       6.518   4.991  14.348  0.00  0.00    +0.000 A 
ATOM     10  H   UNL     1       3.848   3.553  15.343  0.00  0.00    +0.000 HD
ENDROOT
BRANCH   2  11
ATOM     11  C   UNL     1       4.237   5.500  17.312  0.00  0.00    +0.000 A 
ATOM     12  C   UNL     1       3.701   6.803  17.416  0.00  0.00    +0.000 A 
ATOM     13  C   UNL     1       2.848   7.181  18.452  0.00  0.00    +0.000 A 
ATOM     14  C   UNL     1       2.549   6.275  19.456  0.00  0.00    +0.000 A 
ATOM     15  C   UNL     1       3.108   4.991  19.430  0.00  0.00    +0.000 A 
ATOM     16  C   UNL     1       2.828   4.088  20.460  0.00  0.00    +0.000 A 
ATOM     17  N   UNL     1       3.318   2.834  20.545  0.00  0.00    +0.000 NA
ATOM     18  C   UNL     1       4.109   2.443  19.529  0.00  0.00    +0.000 A 
ATOM     19  C   UNL     1       4.429   3.243  18.443  0.00  0.00    +0.000 A 
ATOM     20  C   UNL     1       3.952   4.575  18.368  0.00  0.00    +0.000 A 
ENDBRANCH   2  11
BRANCH   1  21
ATOM     21  C   UNL     1       7.068   6.689  16.298  0.00  0.00    +0.000 C 
BRANCH  21  22
ATOM     22  C   UNL     1       7.616   6.354  17.684  0.00  0.00    +0.000 C 
BRANCH  22  23
ATOM     23  N   UNL     1       8.108   7.530  18.416  0.00  0.00    +0.000 NA
ATOM     24  H   UNL     1       7.731   7.498  19.362  0.00  0.00    +0.000 HD
BRANCH  23  25
ATOM     25  C   UNL     1       7.677   8.766  17.769  0.00  0.00    +0.000 C 
BRANCH  25  26
ATOM     26  C   UNL     1       8.635   9.903  18.077  0.00  0.00    +0.000 C 
BRANCH  26  27
ATOM     27  C   UNL     1       9.248   9.662  19.454  0.00  0.00    +0.000 C 
BRANCH  27  28
ATOM     28  C   UNL     1       9.700  10.972  20.084  0.00  0.00    +0.000 C 
BRANCH  28  32
ATOM     29  C   UNL     1      10.975  13.763  17.081  0.00  0.00    +0.000 A 
ATOM     30  C   UNL     1      11.815  12.716  17.447  0.00  0.00    +0.000 A 
ATOM     31  C   UNL     1      11.399  11.816  18.426  0.00  0.00    +0.000 A 
ATOM     32  C   UNL     1      10.143  11.954  19.033  0.00  0.00    +0.000 A 
ATOM     33  C   UNL     1       9.319  13.027  18.667  0.00  0.00    +0.000 A 
ATOM     34  C   UNL     1       9.736  13.929  17.687  0.00  0.00    +0.000 A 
BRANCH  29  35
ATOM     35  O   UNL     1      11.340  14.659  16.120  0.00  0.00    +0.000 OA
ATOM     36  H   UNL     1      11.637  14.165  15.339  0.00  0.00    +0.000 HD
ENDBRANCH  29  35
ENDBRANCH  28  32
ENDBRANCH  27  28
ENDBRANCH  26  27
ENDBRANCH  25  26
ENDBRANCH  23  25
ENDBRANCH  22  23
ENDBRANCH  21  22
ENDBRANCH   1  21
TORSDOF 10
ENDMDL
MODEL 4
REMARK VINA RESULT:      -8.5      2.709      5.353
REMARK  Name = 
REMARK  10 active torsions:
REMARK  status: ('A' for Active; 'I' for Inactive)
REMARK    1  A    between atoms: O_1  and  C_2
REMARK    2  A    between atoms: C_5  and  C_6
REMARK    3  A    between atoms: C_6  and  C_7
REMARK    4  A    between atoms: C_7  and  C_8
REMARK    5  A    between atoms: C_8  and  C_9
REMARK    6  A    between atoms: C_9  and  N_10
REMARK    7  A    between atoms: N_10  and  C_11
REMARK    8  A    between atoms: C_11  and  C_12
REMARK    9  A    between atoms: C_12  and  C_13
REMARK   10  A    between atoms: C_14  and  C_15
REMARK                            x       y       z     vdW  Elec       q    Type
REMARK                         _______ _______ _______ _____ _____    ______ ____
ROOT
ATOM      1  C   UNL     1       3.474   5.979  19.270  0.00  0.00    +0.000 A 
ATOM      2  C   UNL     1       2.387   6.710  19.783  0.00  0.00    +0.000 A 
ATOM      3  N   UNL     1       1.789   5.888  20.706  0.00  0.00    +0.000 N 
ATOM      4  C   UNL     1       2.343   4.635  20.713  0.00  0.00    +0.000 A 
ATOM      5  C   UNL     1       1.973   3.489  21.430  0.00  0.00    +0.000 A 
ATOM      6  C   UNL     1       2.756   2.343  21.292  0.00  0.00    +0.000 A 
ATOM      7  C   UNL     1       3.872   2.340  20.466  0.00  0.00    +0.000 A 
ATOM      8  C   UNL     1       4.213   3.487  19.741  0.00  0.00    +0.000 A 
ATOM      9  C   UNL     1       3.436   4.662  19.851  0.00  0.00    +0.000 A 
ATOM     10  H   UNL     1       1.012   6.157  21.293  0.00  0.00    +0.000 HD
ENDROOT
BRANCH   2  11
ATOM     11  C   UNL     1       1.913   8.098  19.494  0.00  0.00    +0.000 A 
ATOM     12  C   UNL     1       2.054   8.602  18.181  0.00  0.00    +0.000 A 
ATOM     13  C   UNL     1       1.525   9.830  17.791  0.00  0.00    +0.000 A 
ATOM     14  C   UNL     1       0.881  10.626  18.724  0.00  0.00    +0.000 A 
ATOM     15  C   UNL     1       0.773  10.197  20.053  0.00  0.00    +0.000 A 
ATOM     16  C   UNL     1       0.149  11.014  21.001  0.00  0.00    +0.000 A 
ATOM     17  N   UNL     1      -0.002  10.710  22.307  0.00  0.00    +0.000 NA
ATOM     18  C   UNL     1       0.468   9.509  22.687  0.00  0.00    +0.000 A 
ATOM     19  C   UNL     1       1.077   8.606  21.829  0.00  0.00    +0.000 A 
ATOM     20  C   UNL     1       1.275   8.935  20.465  0.00  0.00    +0.000 A 
ENDBRANCH   2  11
BRANCH   1  21
ATOM     21  C   UNL     1       4.480   6.533  18.303  0.00  0.00    +0.000 C 
BRANCH  21  22
ATOM     22  C   UNL     1       5.629   5.628  17.862  0.00  0.00    +0.000 C 
BRANCH  22  23
ATOM     23  N   UNL     1       6.682   5.485  18.878  0.00  0.00    +0.000 NA
ATOM     24  H   UNL     1       6.266   5.652  19.794  0.00  0.00    +0.000 HD
BRANCH  23  25
ATOM     25  C   UNL     1       7.756   6.449  18.656  0.00  0.00    +0.000 C 
BRANCH  25  26
ATOM     26  C   UNL     1       7.511   7.252  17.390  0.00  0.00    +0.000 C 
BRANCH  26  27
ATOM     27  C   UNL     1       7.843   8.715  17.671  0.00  0.00    +0.000 C 
BRANCH  27  28
ATOM     28  C   UNL     1       8.801   8.837  18.848  0.00  0.00    +0.000 C 
BRANCH  28  32
ATOM     29  C   UNL     1      10.129  12.887  19.365  0.00  0.00    +0.000 A 
ATOM     30  C   UNL     1       9.830  12.114  20.482  0.00  0.00    +0.000 A 
ATOM     31  C   UNL     1       9.394  10.801  20.309  0.00  0.00    +0.000 A 
ATOM     32  C   UNL     1       9.265  10.258  19.023  0.00  0.00    +0.000 A 
ATOM     33  C   UNL     1       9.550  11.058  17.909  0.00  0.00    +0.000 A 
ATOM     34  C   UNL     1       9.987  12.372  18.081  0.00  0.00    +0.000 A 
BRANCH  29  35
ATOM     35  O   UNL     1      10.568  14.171  19.491  0.00  0.00    +0.000 OA
ATOM     36  H   UNL     1      10.192  14.544  20.304  0.00  0.00    +0.000 HD
ENDBRANCH  29  35
ENDBRANCH  28  32
ENDBRANCH  27  28
ENDBRANCH  26  27
ENDBRANCH  25  26
ENDBRANCH  23  25
ENDBRANCH  22  23
ENDBRANCH  21  22
ENDBRANCH   1  21
TORSDOF 10
ENDMDL
MODEL 5
REMARK VINA RESULT:      -8.5      7.114     11.427
REMARK  Name = 
REMARK  10 active torsions:
REMARK  status: ('A' for Active; 'I' for Inactive)
REMARK    1  A    between atoms: O_1  and  C_2
REMARK    2  A    between atoms: C_5  and  C_6
REMARK    3  A    between atoms: C_6  and  C_7
REMARK    4  A    between atoms: C_7  and  C_8
REMARK    5  A    between atoms: C_8  and  C_9
REMARK    6  A    between atoms: C_9  and  N_10
REMARK    7  A    between atoms: N_10  and  C_11
REMARK    8  A    between atoms: C_11  and  C_12
REMARK    9  A    between atoms: C_12  and  C_13
REMARK   10  A    between atoms: C_14  and  C_15
REMARK                            x       y       z     vdW  Elec       q    Type
REMARK                         _______ _______ _______ _____ _____    ______ ____
ROOT
ATOM      1  C   UNL     1      -1.372  10.995  18.898  0.00  0.00    +0.000 A 
ATOM      2  C   UNL     1      -2.066  11.999  19.596  0.00  0.00    +0.000 A 
ATOM      3  N   UNL     1      -3.227  12.206  18.891  0.00  0.00    +0.000 N 
ATOM      4  C   UNL     1      -3.249  11.497  17.719  0.00  0.00    +0.000 A 
ATOM      5  C   UNL     1      -4.195  11.495  16.685  0.00  0.00    +0.000 A 
ATOM      6  C   UNL     1      -4.000  10.621  15.615  0.00  0.00    +0.000 A 
ATOM      7  C   UNL     1      -2.899   9.776  15.579  0.00  0.00    +0.000 A 
ATOM      8  C   UNL     1      -1.954   9.807  16.611  0.00  0.00    +0.000 A 
ATOM      9  C   UNL     1      -2.117  10.688  17.705  0.00  0.00    +0.000 A 
ATOM     10  H   UNL     1      -3.968  12.830  19.180  0.00  0.00    +0.000 HD
ENDROOT
BRANCH   2  11
ATOM     11  C   UNL     1      -1.734  12.727  20.858  0.00  0.00    +0.000 A 
ATOM     12  C   UNL     1      -2.367  12.328  22.057  0.00  0.00    +0.000 A 
ATOM     13  C   UNL     1      -2.023  12.861  23.298  0.00  0.00    +0.000 A 
ATOM     14  C   UNL     1      -1.066  13.859  23.372  0.00  0.00    +0.000 A 
ATOM     15  C   UNL     1      -0.455  14.332  22.204  0.00  0.00    +0.000 A 
ATOM     16  C   UNL     1       0.489  15.360  22.278  0.00  0.00    +0.000 A 
ATOM     17  N   UNL     1       1.130  15.901  21.220  0.00  0.00    +0.000 NA
ATOM     18  C   UNL     1       0.837  15.367  20.021  0.00  0.00    +0.000 A 
ATOM     19  C   UNL     1      -0.060  14.326  19.833  0.00  0.00    +0.000 A 
ATOM     20  C   UNL     1      -0.767  13.781  20.933  0.00  0.00    +0.000 A 
ENDBRANCH   2  11
BRANCH   1  21
ATOM     21  C   UNL     1      -0.091  10.372  19.373  0.00  0.00    +0.000 C 
BRANCH  21  22
ATOM     22  C   UNL     1       1.225  10.925  18.827  0.00  0.00    +0.000 C 
BRANCH  22  23
ATOM     23  N   UNL     1       1.766  10.142  17.706  0.00  0.00    +0.000 NA
ATOM     24  H   UNL     1       1.381  10.518  16.840  0.00  0.00    +0.000 HD
BRANCH  23  25
ATOM     25  C   UNL     1       1.395   8.735  17.825  0.00  0.00    +0.000 C 
BRANCH  25  26
ATOM     26  C   UNL     1       2.219   8.045  18.899  0.00  0.00    +0.000 C 
BRANCH  26  27
ATOM     27  C   UNL     1       3.133   7.023  18.229  0.00  0.00    +0.000 C 
BRANCH  27  28
ATOM     28  C   UNL     1       2.349   5.789  17.808  0.00  0.00    +0.000 C 
BRANCH  28  32
ATOM     29  C   UNL     1       1.589   3.206  21.152  0.00  0.00    +0.000 A 
ATOM     30  C   UNL     1       1.025   2.913  19.915  0.00  0.00    +0.000 A 
ATOM     31  C   UNL     1       1.270   3.757  18.834  0.00  0.00    +0.000 A 
ATOM     32  C   UNL     1       2.085   4.887  18.984  0.00  0.00    +0.000 A 
ATOM     33  C   UNL     1       2.627   5.179  20.243  0.00  0.00    +0.000 A 
ATOM     34  C   UNL     1       2.382   4.335  21.326  0.00  0.00    +0.000 A 
BRANCH  29  35
ATOM     35  O   UNL     1       1.383   2.400  22.233  0.00  0.00    +0.000 OA
ATOM     36  H   UNL     1       0.908   1.607  21.936  0.00  0.00    +0.000 HD
ENDBRANCH  29  35
ENDBRANCH  28  32
ENDBRANCH  27  28
ENDBRANCH  26  27
ENDBRANCH  25  26
ENDBRANCH  23  25
ENDBRANCH  22  23
ENDBRANCH  21  22
ENDBRANCH   1  21
TORSDOF 10
ENDMDL
MODEL 6
REMARK VINA RESULT:      -8.4      1.453      2.428
REMARK  Name = 
REMARK  10 active torsions:
REMARK  status: ('A' for Active; 'I' for Inactive)
REMARK    1  A    between atoms: O_1  and  C_2
REMARK    2  A    between atoms: C_5  and  C_6
REMARK    3  A    between atoms: C_6  and  C_7
REMARK    4  A    between atoms: C_7  and  C_8
REMARK    5  A    between atoms: C_8  and  C_9
REMARK    6  A    between atoms: C_9  and  N_10
REMARK    7  A    between atoms: N_10  and  C_11
REMARK    8  A    between atoms: C_11  and  C_12
REMARK    9  A    between atoms: C_12  and  C_13
REMARK   10  A    between atoms: C_14  and  C_15
REMARK                            x       y       z     vdW  Elec       q    Type
REMARK                         _______ _______ _______ _____ _____    ______ ____
ROOT
ATOM      1  C   UNL     1       5.895   5.781  16.604  0.00  0.00    +0.000 A 
ATOM      2  C   UNL     1       4.687   5.151  16.955  0.00  0.00    +0.000 A 
ATOM      3  N   UNL     1       4.450   4.225  15.970  0.00  0.00    +0.000 N 
ATOM      4  C   UNL     1       5.357   4.320  14.947  0.00  0.00    +0.000 A 
ATOM      5  C   UNL     1       5.416   3.632  13.728  0.00  0.00    +0.000 A 
ATOM      6  C   UNL     1       6.495   3.884  12.880  0.00  0.00    +0.000 A 
ATOM      7  C   UNL     1       7.482   4.792  13.237  0.00  0.00    +0.000 A 
ATOM      8  C   UNL     1       7.395   5.487  14.449  0.00  0.00    +0.000 A 
ATOM      9  C   UNL     1       6.310   5.261  15.327  0.00  0.00    +0.000 A 
ATOM     10  H   UNL     1       3.682   3.568  15.975  0.00  0.00    +0.000 HD
ENDROOT
BRANCH   2  11
ATOM     11  C   UNL     1       3.791   5.337  18.137  0.00  0.00    +0.000 A 
ATOM     12  C   UNL     1       3.659   4.277  19.061  0.00  0.00    +0.000 A 
ATOM     13  C   UNL     1       2.951   4.408  20.254  0.00  0.00    +0.000 A 
ATOM     14  C   UNL     1       2.299   5.597  20.536  0.00  0.00    +0.000 A 
ATOM     15  C   UNL     1       2.347   6.656  19.620  0.00  0.00    +0.000 A 
ATOM     16  C   UNL     1       1.664   7.845  19.892  0.00  0.00    +0.000 A 
ATOM     17  N   UNL     1       1.631   8.922  19.081  0.00  0.00    +0.000 NA
ATOM     18  C   UNL     1       2.345   8.824  17.946  0.00  0.00    +0.000 A 
ATOM     19  C   UNL     1       3.084   7.706  17.588  0.00  0.00    +0.000 A 
ATOM     20  C   UNL     1       3.090   6.556  18.415  0.00  0.00    +0.000 A 
ENDBRANCH   2  11
BRANCH   1  21
ATOM     21  C   UNL     1       6.597   6.795  17.461  0.00  0.00    +0.000 C 
BRANCH  21  22
ATOM     22  C   UNL     1       7.572   6.290  18.522  0.00  0.00    +0.000 C 
BRANCH  22  23
ATOM     23  N   UNL     1       8.530   7.312  18.968  0.00  0.00    +0.000 NA
ATOM     24  H   UNL     1       8.393   7.463  19.967  0.00  0.00    +0.000 HD
BRANCH  23  25
ATOM     25  C   UNL     1       8.318   8.570  18.258  0.00  0.00    +0.000 C 
BRANCH  25  26
ATOM     26  C   UNL     1       9.037   9.713  18.954  0.00  0.00    +0.000 C 
BRANCH  26  27
ATOM     27  C   UNL     1       9.175  10.871  17.970  0.00  0.00    +0.000 C 
BRANCH  27  28
ATOM     28  C   UNL     1      10.543  11.526  18.092  0.00  0.00    +0.000 C 
BRANCH  28  32
ATOM     29  C   UNL     1      10.205  15.784  18.521  0.00  0.00    +0.000 A 
ATOM     30  C   UNL     1      11.417  15.160  18.797  0.00  0.00    +0.000 A 
ATOM     31  C   UNL     1      11.520  13.777  18.662  0.00  0.00    +0.000 A 
ATOM     32  C   UNL     1      10.419  13.019  18.242  0.00  0.00    +0.000 A 
ATOM     33  C   UNL     1       9.200  13.662  17.989  0.00  0.00    +0.000 A 
ATOM     34  C   UNL     1       9.096  15.047  18.124  0.00  0.00    +0.000 A 
BRANCH  29  35
ATOM     35  O   UNL     1      10.065  17.136  18.631  0.00  0.00    +0.000 OA
ATOM     36  H   UNL     1      10.938  17.544  18.513  0.00  0.00    +0.000 HD
ENDBRANCH  29  35
ENDBRANCH  28  32
ENDBRANCH  27  28
ENDBRANCH  26  27
ENDBRANCH  25  26
ENDBRANCH  23  25
ENDBRANCH  22  23
ENDBRANCH  21  22
ENDBRANCH   1  21
TORSDOF 10
ENDMDL
MODEL 7
REMARK VINA RESULT:      -8.3      0.993      1.141
REMARK  Name = 
REMARK  10 active torsions:
REMARK  status: ('A' for Active; 'I' for Inactive)
REMARK    1  A    between atoms: O_1  and  C_2
REMARK    2  A    between atoms: C_5  and  C_6
REMARK    3  A    between atoms: C_6  and  C_7
REMARK    4  A    between atoms: C_7  and  C_8
REMARK    5  A    between atoms: C_8  and  C_9
REMARK    6  A    between atoms: C_9  and  N_10
REMARK    7  A    between atoms: N_10  and  C_11
REMARK    8  A    between atoms: C_11  and  C_12
REMARK    9  A    between atoms: C_12  and  C_13
REMARK   10  A    between atoms: C_14  and  C_15
REMARK                            x       y       z     vdW  Elec       q    Type
REMARK                         _______ _______ _______ _____ _____    ______ ____
ROOT
ATOM      1  C   UNL     1       5.827   5.890  16.541  0.00  0.00    +0.000 A 
ATOM      2  C   UNL     1       4.664   5.254  17.011  0.00  0.00    +0.000 A 
ATOM      3  N   UNL     1       4.429   4.218  16.140  0.00  0.00    +0.000 N 
ATOM      4  C   UNL     1       5.288   4.240  15.073  0.00  0.00    +0.000 A 
ATOM      5  C   UNL     1       5.328   3.427  13.932  0.00  0.00    +0.000 A 
ATOM      6  C   UNL     1       6.359   3.629  13.015  0.00  0.00    +0.000 A 
ATOM      7  C   UNL     1       7.319   4.610  13.228  0.00  0.00    +0.000 A 
ATOM      8  C   UNL     1       7.250   5.426  14.363  0.00  0.00    +0.000 A 
ATOM      9  C   UNL     1       6.213   5.253  15.308  0.00  0.00    +0.000 A 
ATOM     10  H   UNL     1       3.692   3.536  16.249  0.00  0.00    +0.000 HD
ENDROOT
BRANCH   2  11
ATOM     11  C   UNL     1       3.809   5.530  18.205  0.00  0.00    +0.000 A 
ATOM     12  C   UNL     1       3.275   6.828  18.371  0.00  0.00    +0.000 A 
ATOM     13  C   UNL     1       2.366   7.139  19.380  0.00  0.00    +0.000 A 
ATOM     14  C   UNL     1       2.003   6.168  20.298  0.00  0.00    +0.000 A 
ATOM     15  C   UNL     1       2.555   4.883  20.213  0.00  0.00    +0.000 A 
ATOM     16  C   UNL     1       2.210   3.912  21.157  0.00  0.00    +0.000 A 
ATOM     17  N   UNL     1       2.687   2.650  21.180  0.00  0.00    +0.000 NA
ATOM     18  C   UNL     1       3.533   2.325  20.187  0.00  0.00    +0.000 A 
ATOM     19  C   UNL     1       3.921   3.197  19.181  0.00  0.00    +0.000 A 
ATOM     20  C   UNL     1       3.457   4.535  19.174  0.00  0.00    +0.000 A 
ENDBRANCH   2  11
BRANCH   1  21
ATOM     21  C   UNL     1       6.517   7.018  17.252  0.00  0.00    +0.000 C 
BRANCH  21  22
ATOM     22  C   UNL     1       7.890   6.748  17.867  0.00  0.00    +0.000 C 
BRANCH  22  23
ATOM     23  N   UNL     1       8.356   7.828  18.749  0.00  0.00    +0.000 NA
ATOM     24  H   UNL     1       7.778   7.825  19.589  0.00  0.00    +0.000 HD
BRANCH  23  25
ATOM     25  C   UNL     1       8.240   9.127  18.092  0.00  0.00    +0.000 C 
BRANCH  25  26
ATOM     26  C   UNL     1       8.965  10.202  18.882  0.00  0.00    +0.000 C 
BRANCH  26  27
ATOM     27  C   UNL     1       9.396  11.305  17.919  0.00  0.00    +0.000 C 
BRANCH  27  28
ATOM     28  C   UNL     1      10.906  11.492  17.950  0.00  0.00    +0.000 C 
BRANCH  28  32
ATOM     29  C   UNL     1      11.932  15.629  18.459  0.00  0.00    +0.000 A 
ATOM     30  C   UNL     1      11.299  15.217  17.291  0.00  0.00    +0.000 A 
ATOM     31  C   UNL     1      10.973  13.872  17.128  0.00  0.00    +0.000 A 
ATOM     32  C   UNL     1      11.270  12.941  18.133  0.00  0.00    +0.000 A 
ATOM     33  C   UNL     1      11.927  13.371  19.293  0.00  0.00    +0.000 A 
ATOM     34  C   UNL     1      12.254  14.717  19.457  0.00  0.00    +0.000 A 
BRANCH  29  35
ATOM     35  O   UNL     1      12.259  16.937  18.662  0.00  0.00    +0.000 OA
ATOM     36  H   UNL     1      11.464  17.476  18.521  0.00  0.00    +0.000 HD
ENDBRANCH  29  35
ENDBRANCH  28  32
ENDBRANCH  27  28
ENDBRANCH  26  27
ENDBRANCH  25  26
ENDBRANCH  23  25
ENDBRANCH  22  23
ENDBRANCH  21  22
ENDBRANCH   1  21
TORSDOF 10
ENDMDL
MODEL 8
REMARK VINA RESULT:      -8.3      5.328      9.146
REMARK  Name = 
REMARK  10 active torsions:
REMARK  status: ('A' for Active; 'I' for Inactive)
REMARK    1  A    between atoms: O_1  and  C_2
REMARK    2  A    between atoms: C_5  and  C_6
REMARK    3  A    between atoms: C_6  and  C_7
REMARK    4  A    between atoms: C_7  and  C_8
REMARK    5  A    between atoms: C_8  and  C_9
REMARK    6  A    between atoms: C_9  and  N_10
REMARK    7  A    between atoms: N_10  and  C_11
REMARK    8  A    between atoms: C_11  and  C_12
REMARK    9  A    between atoms: C_12  and  C_13
REMARK   10  A    between atoms: C_14  and  C_15
REMARK                            x       y       z     vdW  Elec       q    Type
REMARK                         _______ _______ _______ _____ _____    ______ ____
ROOT
ATOM      1  C   UNL     1       3.059   5.122  18.933  0.00  0.00    +0.000 A 
ATOM      2  C   UNL     1       4.389   4.727  18.700  0.00  0.00    +0.000 A 
ATOM      3  N   UNL     1       4.555   3.554  19.394  0.00  0.00    +0.000 N 
ATOM      4  C   UNL     1       3.461   3.252  20.161  0.00  0.00    +0.000 A 
ATOM      5  C   UNL     1       3.260   2.207  21.074  0.00  0.00    +0.000 A 
ATOM      6  C   UNL     1       2.012   2.097  21.685  0.00  0.00    +0.000 A 
ATOM      7  C   UNL     1       0.996   2.998  21.395  0.00  0.00    +0.000 A 
ATOM      8  C   UNL     1       1.221   4.047  20.498  0.00  0.00    +0.000 A 
ATOM      9  C   UNL     1       2.478   4.193  19.867  0.00  0.00    +0.000 A 
ATOM     10  H   UNL     1       5.394   2.990  19.372  0.00  0.00    +0.000 HD
ENDROOT
BRANCH   2  11
ATOM     11  C   UNL     1       5.464   5.345  17.866  0.00  0.00    +0.000 A 
ATOM     12  C   UNL     1       6.279   6.345  18.444  0.00  0.00    +0.000 A 
ATOM     13  C   UNL     1       7.384   6.881  17.786  0.00  0.00    +0.000 A 
ATOM     14  C   UNL     1       7.679   6.472  16.496  0.00  0.00    +0.000 A 
ATOM     15  C   UNL     1       6.863   5.529  15.858  0.00  0.00    +0.000 A 
ATOM     16  C   UNL     1       7.144   5.138  14.545  0.00  0.00    +0.000 A 
ATOM     17  N   UNL     1       6.423   4.250  13.830  0.00  0.00    +0.000 NA
ATOM     18  C   UNL     1       5.378   3.694  14.468  0.00  0.00    +0.000 A 
ATOM     19  C   UNL     1       5.024   3.983  15.778  0.00  0.00    +0.000 A 
ATOM     20  C   UNL     1       5.751   4.945  16.521  0.00  0.00    +0.000 A 
ENDBRANCH   2  11
BRANCH   1  21
ATOM     21  C   UNL     1       2.403   6.303  18.277  0.00  0.00    +0.000 C 
BRANCH  21  22
ATOM     22  C   UNL     1       2.337   7.615  19.057  0.00  0.00    +0.000 C 
BRANCH  22  23
ATOM     23  N   UNL     1       1.982   7.434  20.472  0.00  0.00    +0.000 NA
ATOM     24  H   UNL     1       1.531   6.525  20.574  0.00  0.00    +0.000 HD
BRANCH  23  25
ATOM     25  C   UNL     1       1.064   8.478  20.917  0.00  0.00    +0.000 C 
BRANCH  25  26
ATOM     26  C   UNL     1       1.086   9.662  19.966  0.00  0.00    +0.000 C 
BRANCH  26  27
ATOM     27  C   UNL     1      -0.354  10.052  19.643  0.00  0.00    +0.000 C 
BRANCH  27  28
ATOM     28  C   UNL     1      -0.464  10.591  18.224  0.00  0.00    +0.000 C 
BRANCH  28  32
ATOM     29  C   UNL     1      -4.560  11.326  17.169  0.00  0.00    +0.000 A 
ATOM     30  C   UNL     1      -4.078  11.761  18.400  0.00  0.00    +0.000 A 
ATOM     31  C   UNL     1      -2.749  11.515  18.740  0.00  0.00    +0.000 A 
ATOM     32  C   UNL     1      -1.899  10.845  17.850  0.00  0.00    +0.000 A 
ATOM     33  C   UNL     1      -2.407  10.395  16.623  0.00  0.00    +0.000 A 
ATOM     34  C   UNL     1      -3.738  10.641  16.283  0.00  0.00    +0.000 A 
BRANCH  29  35
ATOM     35  O   UNL     1      -5.850  11.555  16.794  0.00  0.00    +0.000 OA
ATOM     36  H   UNL     1      -5.925  12.478  16.504  0.00  0.00    +0.000 HD
ENDBRANCH  29  35
ENDBRANCH  28  32
ENDBRANCH  27  28
ENDBRANCH  26  27
ENDBRANCH  25  26
ENDBRANCH  23  25
ENDBRANCH  22  23
ENDBRANCH  21  22
ENDBRANCH   1  21
TORSDOF 10
ENDMDL
MODEL 9
REMARK VINA RESULT:      -8.3      7.733     11.714
REMARK  Name = 
REMARK  10 active torsions:
REMARK  status: ('A' for Active; 'I' for Inactive)
REMARK    1  A    between atoms: O_1  and  C_2
REMARK    2  A    between atoms: C_5  and  C_6
REMARK    3  A    between atoms: C_6  and  C_7
REMARK    4  A    between atoms: C_7  and  C_8
REMARK    5  A    between atoms: C_8  and  C_9
REMARK    6  A    between atoms: C_9  and  N_10
REMARK    7  A    between atoms: N_10  and  C_11
REMARK    8  A    between atoms: C_11  and  C_12
REMARK    9  A    between atoms: C_12  and  C_13
REMARK   10  A    between atoms: C_14  and  C_15
REMARK                            x       y       z     vdW  Elec       q    Type
REMARK                         _______ _______ _______ _____ _____    ______ ____
ROOT
ATOM      1  C   UNL     1      -1.867  11.535  19.307  0.00  0.00    +0.000 A 
ATOM      2  C   UNL     1      -2.854  12.379  19.848  0.00  0.00    +0.000 A 
ATOM      3  N   UNL     1      -3.916  12.312  18.980  0.00  0.00    +0.000 N 
ATOM      4  C   UNL     1      -3.616  11.589  17.856  0.00  0.00    +0.000 A 
ATOM      5  C   UNL     1      -4.377  11.358  16.702  0.00  0.00    +0.000 A 
ATOM      6  C   UNL     1      -3.847  10.524  15.718  0.00  0.00    +0.000 A 
ATOM      7  C   UNL     1      -2.598   9.939  15.879  0.00  0.00    +0.000 A 
ATOM      8  C   UNL     1      -1.842  10.199  17.028  0.00  0.00    +0.000 A 
ATOM      9  C   UNL     1      -2.347  11.046  18.041  0.00  0.00    +0.000 A 
ATOM     10  H   UNL     1      -4.807  12.765  19.130  0.00  0.00    +0.000 HD
ENDROOT
BRANCH   2  11
ATOM     11  C   UNL     1      -2.872  13.189  21.104  0.00  0.00    +0.000 A 
ATOM     12  C   UNL     1      -3.583  12.694  22.220  0.00  0.00    +0.000 A 
ATOM     13  C   UNL     1      -3.546  13.315  23.466  0.00  0.00    +0.000 A 
ATOM     14  C   UNL     1      -2.837  14.495  23.622  0.00  0.00    +0.000 A 
ATOM     15  C   UNL     1      -2.168  15.059  22.528  0.00  0.00    +0.000 A 
ATOM     16  C   UNL     1      -1.478  16.265  22.680  0.00  0.00    +0.000 A 
ATOM     17  N   UNL     1      -0.810  16.904  21.697  0.00  0.00    +0.000 NA
ATOM     18  C   UNL     1      -0.803  16.293  20.500  0.00  0.00    +0.000 A 
ATOM     19  C   UNL     1      -1.428  15.082  20.242  0.00  0.00    +0.000 A 
ATOM     20  C   UNL     1      -2.165  14.426  21.258  0.00  0.00    +0.000 A 
ENDBRANCH   2  11
BRANCH   1  21
ATOM     21  C   UNL     1      -0.566  11.217  19.986  0.00  0.00    +0.000 C 
BRANCH  21  22
ATOM     22  C   UNL     1      -0.333   9.784  20.461  0.00  0.00    +0.000 C 
BRANCH  22  23
ATOM     23  N   UNL     1       0.964   9.234  20.040  0.00  0.00    +0.000 NA
ATOM     24  H   UNL     1       1.654   9.461  20.755  0.00  0.00    +0.000 HD
BRANCH  23  25
ATOM     25  C   UNL     1       1.386   9.809  18.766  0.00  0.00    +0.000 C 
BRANCH  25  26
ATOM     26  C   UNL     1       1.822   8.723  17.798  0.00  0.00    +0.000 C 
BRANCH  26  27
ATOM     27  C   UNL     1       2.534   7.627  18.586  0.00  0.00    +0.000 C 
BRANCH  27  28
ATOM     28  C   UNL     1       3.439   6.807  17.678  0.00  0.00    +0.000 C 
BRANCH  28  32
ATOM     29  C   UNL     1       2.783   2.599  18.222  0.00  0.00    +0.000 A 
ATOM     30  C   UNL     1       4.080   3.100  18.236  0.00  0.00    +0.000 A 
ATOM     31  C   UNL     1       4.289   4.466  18.054  0.00  0.00    +0.000 A 
ATOM     32  C   UNL     1       3.204   5.333  17.867  0.00  0.00    +0.000 A 
ATOM     33  C   UNL     1       1.905   4.807  17.834  0.00  0.00    +0.000 A 
ATOM     34  C   UNL     1       1.696   3.440  18.016  0.00  0.00    +0.000 A 
BRANCH  29  35
ATOM     35  O   UNL     1       2.535   1.272  18.407  0.00  0.00    +0.000 OA
ATOM     36  H   UNL     1       3.262   0.895  18.928  0.00  0.00    +0.000 HD
ENDBRANCH  29  35
ENDBRANCH  28  32
ENDBRANCH  27  28
ENDBRANCH  26  27
ENDBRANCH  25  26
ENDBRANCH  23  25
ENDBRANCH  22  23
ENDBRANCH  21  22
ENDBRANCH   1  21
TORSDOF 10
ENDMDL
