MODEL 1
REMARK VINA RESULT:      -8.3      0.000      0.000
REMARK  Name = 
REMARK  7 active torsions:
REMARK  status: ('A' for Active; 'I' for Inactive)
REMARK    1  A    between atoms: C_1  and  N_2
REMARK    2  A    between atoms: N_5  and  C_6
REMARK    3  A    between atoms: C_6  and  C_7
REMARK    4  A    between atoms: C_7  and  C_8
REMARK    5  A    between atoms: C_8  and  O_9
REMARK    6  A    between atoms: O_9  and  C_10
REMARK    7  A    between atoms: C_19  and  O_20
REMARK                            x       y       z     vdW  Elec       q    Type
REMARK                         _______ _______ _______ _____ _____    ______ ____
ROOT
ATOM      1  C   UNL     1       6.562   6.157  17.024  0.00  0.00    +0.000 A 
ATOM      2  C   UNL     1       5.965   5.653  15.867  0.00  0.00    +0.000 A 
ATOM      3  C   UNL     1       4.826   4.860  15.956  0.00  0.00    +0.000 A 
ATOM      4  C   UNL     1       4.293   4.568  17.209  0.00  0.00    +0.000 A 
ATOM      5  C   UNL     1       3.098   3.723  17.312  0.00  0.00    +0.000 A 
ATOM      6  O   UNL     1       2.547   3.277  16.317  0.00  0.00    +0.000 OA
ATOM      7  C   UNL     1       2.602   3.446  18.656  0.00  0.00    +0.000 A 
ATOM      8  C   UNL     1       1.472   2.640  18.827  0.00  0.00    +0.000 A 
ATOM      9  C   UNL     1       1.005   2.379  20.112  0.00  0.00    +0.000 A 
ATOM     10  C   UNL     1       1.673   2.927  21.203  0.00  0.00    +0.000 A 
ATOM     11  C   UNL     1       2.802   3.731  21.033  0.00  0.00    +0.000 A 
ATOM     12  C   UNL     1       3.275   3.993  19.747  0.00  0.00    +0.000 A 
ATOM     13  O   UNL     1       4.393   4.787  19.635  0.00  0.00    +0.000 OA
ATOM     14  C   UNL     1       4.881   5.051  18.375  0.00  0.00    +0.000 A 
ATOM     15  C   UNL     1       6.024   5.844  18.280  0.00  0.00    +0.000 A 
ENDROOT
BRANCH  10  16
ATOM     16  O   UNL     1       1.243   2.695  22.474  0.00  0.00    +0.000 OA
ATOM     17  H   UNL     1       0.329   2.365  22.442  0.00  0.00    +0.000 HD
ENDBRANCH  10  16
BRANCH   1  18
ATOM     18  O   UNL     1       7.698   6.924  17.032  0.00  0.00    +0.000 OA
BRANCH  18  19
ATOM     19  C   UNL     1       7.495   8.288  17.419  0.00  0.00    +0.000 C 
BRANCH  19  20
ATOM     20  C   UNL     1       8.600   8.682  18.389  0.00  0.00    +0.000 C 
BRANCH  20  21
ATOM     21  C   UNL     1       8.661  10.198  18.599  0.00  0.00    +0.000 C 
BRANCH  21  26
ATOM     22  C   UNL     1       9.334  14.977  18.741  0.00  0.00    +0.000 C 
ATOM     23  N   UNL     1       9.973  13.678  18.904  0.00  0.00    +0.000 NA
ATOM     24  C   UNL     1       9.943  12.904  17.650  0.00  0.00    +0.000 C 
ATOM     25  C   UNL     1      10.594  11.512  17.825  0.00  0.00    +0.000 C 
ATOM     26  N   UNL     1      10.010  10.694  18.912  0.00  0.00    +0.000 NA
ATOM     27  C   UNL     1      10.013  11.512  20.147  0.00  0.00    +0.000 C 
ATOM     28  C   UNL     1       9.352  12.903  19.995  0.00  0.00    +0.000 C 
ENDBRANCH  21  26
ENDBRANCH  20  21
ENDBRANCH  19  20
ENDBRANCH  18  19
ENDBRANCH   1  18
TORSDOF 6
ENDMDL
MODEL 2
REMARK VINA RESULT:      -7.8      6.537      9.201
REMARK  Name = 
REMARK  7 active torsions:
REMARK  status: ('A' for Active; 'I' for Inactive)
REMARK    1  A    between atoms: C_1  and  N_2
REMARK    2  A    between atoms: N_5  and  C_6
REMARK    3  A    between atoms: C_6  and  C_7
REMARK    4  A    between atoms: C_7  and  C_8
REMARK    5  A    between atoms: C_8  and  O_9
REMARK    6  A    between atoms: O_9  and  C_10
REMARK    7  A    between atoms: C_19  and  O_20
REMARK                            x       y       z     vdW  Elec       q    Type
REMARK                         _______ _______ _______ _____ _____    ______ ____
ROOT
ATOM      1  C   UNL     1       2.613   7.748  18.271  0.00  0.00    +0.000 A 
ATOM      2  C   UNL     1       2.447   7.124  19.508  0.00  0.00    +0.000 A 
ATOM      3  C   UNL     1       1.659   7.716  20.489  0.00  0.00    +0.000 A 
ATOM      4  C   UNL     1       1.045   8.939  20.228  0.00  0.00    +0.000 A 
ATOM      5  C   UNL     1       0.221   9.575  21.262  0.00  0.00    +0.000 A 
ATOM      6  O   UNL     1       0.048   9.047  22.350  0.00  0.00    +0.000 OA
ATOM      7  C   UNL     1      -0.379  10.861  20.925  0.00  0.00    +0.000 A 
ATOM      8  C   UNL     1      -1.170  11.527  21.868  0.00  0.00    +0.000 A 
ATOM      9  C   UNL     1      -1.739  12.754  21.539  0.00  0.00    +0.000 A 
ATOM     10  C   UNL     1      -1.511  13.294  20.277  0.00  0.00    +0.000 A 
ATOM     11  C   UNL     1      -0.721  12.631  19.337  0.00  0.00    +0.000 A 
ATOM     12  C   UNL     1      -0.147  11.402  19.661  0.00  0.00    +0.000 A 
ATOM     13  O   UNL     1       0.626  10.792  18.700  0.00  0.00    +0.000 OA
ATOM     14  C   UNL     1       1.208   9.582  19.004  0.00  0.00    +0.000 A 
ATOM     15  C   UNL     1       2.002   8.985  18.024  0.00  0.00    +0.000 A 
ENDROOT
BRANCH  10  16
ATOM     16  O   UNL     1      -2.054  14.492  19.921  0.00  0.00    +0.000 OA
ATOM     17  H   UNL     1      -1.963  14.605  18.960  0.00  0.00    +0.000 HD
ENDBRANCH  10  16
BRANCH   1  18
ATOM     18  O   UNL     1       3.390   7.251  17.257  0.00  0.00    +0.000 OA
BRANCH  18  19
ATOM     19  C   UNL     1       4.540   6.516  17.692  0.00  0.00    +0.000 C 
BRANCH  19  20
ATOM     20  C   UNL     1       4.607   5.215  16.905  0.00  0.00    +0.000 C 
BRANCH  20  21
ATOM     21  C   UNL     1       3.449   4.276  17.256  0.00  0.00    +0.000 C 
BRANCH  21  26
ATOM     22  C   UNL     1       1.277   2.788  21.304  0.00  0.00    +0.000 C 
ATOM     23  N   UNL     1       2.287   2.465  20.305  0.00  0.00    +0.000 NA
ATOM     24  C   UNL     1       3.367   3.467  20.290  0.00  0.00    +0.000 C 
ATOM     25  C   UNL     1       4.428   3.145  19.212  0.00  0.00    +0.000 C 
ATOM     26  N   UNL     1       3.885   2.999  17.842  0.00  0.00    +0.000 NA
ATOM     27  C   UNL     1       2.775   2.020  17.896  0.00  0.00    +0.000 C 
ATOM     28  C   UNL     1       1.696   2.335  18.960  0.00  0.00    +0.000 C 
ENDBRANCH  21  26
ENDBRANCH  20  21
ENDBRANCH  19  20
ENDBRANCH  18  19
ENDBRANCH   1  18
TORSDOF 6
ENDMDL
MODEL 3
REMARK VINA RESULT:      -7.8      5.827      7.422
REMARK  Name = 
REMARK  7 active torsions:
REMARK  status: ('A' for Active; 'I' for Inactive)
REMARK    1  A    between atoms: C_1  and  N_2
REMARK    2  A    between atoms: N_5  and  C_6
REMARK    3  A    between atoms: C_6  and  C_7
REMARK    4  A    between atoms: C_7  and  C_8
REMARK    5  A    between atoms: C_8  and  O_9
REMARK    6  A    between atoms: O_9  and  C_10
REMARK    7  A    between atoms: C_19  and  O_20
REMARK                            x       y       z     vdW  Elec       q    Type
REMARK                         _______ _______ _______ _____ _____    ______ ____
ROOT
ATOM      1  C   UNL     1       2.571   6.948  19.497  0.00  0.00    +0.000 A 
ATOM      2  C   UNL     1       2.578   7.693  18.317  0.00  0.00    +0.000 A 
ATOM      3  C   UNL     1       1.877   8.892  18.243  0.00  0.00    +0.000 A 
ATOM      4  C   UNL     1       1.163   9.336  19.353  0.00  0.00    +0.000 A 
ATOM      5  C   UNL     1       0.412  10.594  19.280  0.00  0.00    +0.000 A 
ATOM      6  O   UNL     1       0.408  11.273  18.264  0.00  0.00    +0.000 OA
ATOM      7  C   UNL     1      -0.325  10.991  20.475  0.00  0.00    +0.000 A 
ATOM      8  C   UNL     1      -1.069  12.175  20.471  0.00  0.00    +0.000 A 
ATOM      9  C   UNL     1      -1.770  12.548  21.615  0.00  0.00    +0.000 A 
ATOM     10  C   UNL     1      -1.714  11.733  22.742  0.00  0.00    +0.000 A 
ATOM     11  C   UNL     1      -0.972  10.551  22.746  0.00  0.00    +0.000 A 
ATOM     12  C   UNL     1      -0.270  10.173  21.602  0.00  0.00    +0.000 A 
ATOM     13  O   UNL     1       0.442   8.996  21.657  0.00  0.00    +0.000 OA
ATOM     14  C   UNL     1       1.135   8.601  20.536  0.00  0.00    +0.000 A 
ATOM     15  C   UNL     1       1.838   7.398  20.603  0.00  0.00    +0.000 A 
ENDROOT
BRANCH  10  16
ATOM     16  O   UNL     1      -2.385  12.068  23.879  0.00  0.00    +0.000 OA
ATOM     17  H   UNL     1      -3.336  12.119  23.680  0.00  0.00    +0.000 HD
ENDBRANCH  10  16
BRANCH   1  18
ATOM     18  O   UNL     1       3.212   5.746  19.651  0.00  0.00    +0.000 OA
BRANCH  18  19
ATOM     19  C   UNL     1       2.587   4.646  18.978  0.00  0.00    +0.000 C 
BRANCH  19  20
ATOM     20  C   UNL     1       3.557   4.102  17.940  0.00  0.00    +0.000 C 
BRANCH  20  21
ATOM     21  C   UNL     1       5.016   4.341  18.343  0.00  0.00    +0.000 C 
BRANCH  21  26
ATOM     22  C   UNL     1       7.600   8.364  17.675  0.00  0.00    +0.000 C 
ATOM     23  N   UNL     1       7.328   7.025  17.171  0.00  0.00    +0.000 NA
ATOM     24  C   UNL     1       5.924   6.888  16.744  0.00  0.00    +0.000 C 
ATOM     25  C   UNL     1       5.622   5.460  16.235  0.00  0.00    +0.000 C 
ATOM     26  N   UNL     1       5.941   4.383  17.200  0.00  0.00    +0.000 NA
ATOM     27  C   UNL     1       7.342   4.573  17.643  0.00  0.00    +0.000 C 
ATOM     28  C   UNL     1       7.659   5.993  18.171  0.00  0.00    +0.000 C 
ENDBRANCH  21  26
ENDBRANCH  20  21
ENDBRANCH  19  20
ENDBRANCH  18  19
ENDBRANCH   1  18
TORSDOF 6
ENDMDL
MODEL 4
REMARK VINA RESULT:      -7.8      6.087      9.049
REMARK  Name = 
REMARK  7 active torsions:
REMARK  status: ('A' for Active; 'I' for Inactive)
REMARK    1  A    between atoms: C_1  and  N_2
REMARK    2  A    between atoms: N_5  and  C_6
REMARK    3  A    between atoms: C_6  and  C_7
REMARK    4  A    between atoms: C_7  and  C_8
REMARK    5  A    between atoms: C_8  and  O_9
REMARK    6  A    between atoms: O_9  and  C_10
REMARK    7  A    between atoms: C_19  and  O_20
REMARK                            x       y       z     vdW  Elec       q    Type
REMARK                         _______ _______ _______ _____ _____    ______ ____
ROOT
ATOM      1  C   UNL     1       3.224   6.899  18.084  0.00  0.00    +0.000 A 
ATOM      2  C   UNL     1       2.992   6.380  19.359  0.00  0.00    +0.000 A 
ATOM      3  C   UNL     1       2.169   7.059  20.251  0.00  0.00    +0.000 A 
ATOM      4  C   UNL     1       1.585   8.263  19.862  0.00  0.00    +0.000 A 
ATOM      5  C   UNL     1       0.723   8.990  20.800  0.00  0.00    +0.000 A 
ATOM      6  O   UNL     1       0.494   8.556  21.919  0.00  0.00    +0.000 OA
ATOM      7  C   UNL     1       0.158  10.250  20.332  0.00  0.00    +0.000 A 
ATOM      8  C   UNL     1      -0.665  11.000  21.179  0.00  0.00    +0.000 A 
ATOM      9  C   UNL     1      -1.202  12.202  20.725  0.00  0.00    +0.000 A 
ATOM     10  C   UNL     1      -0.908  12.634  19.436  0.00  0.00    +0.000 A 
ATOM     11  C   UNL     1      -0.085  11.887  18.591  0.00  0.00    +0.000 A 
ATOM     12  C   UNL     1       0.455  10.683  19.041  0.00  0.00    +0.000 A 
ATOM     13  O   UNL     1       1.263   9.988  18.170  0.00  0.00    +0.000 OA
ATOM     14  C   UNL     1       1.814   8.801  18.599  0.00  0.00    +0.000 A 
ATOM     15  C   UNL     1       2.643   8.117  17.709  0.00  0.00    +0.000 A 
ENDROOT
BRANCH  10  16
ATOM     16  O   UNL     1      -1.417  13.803  18.958  0.00  0.00    +0.000 OA
ATOM     17  H   UNL     1      -1.196  13.881  18.014  0.00  0.00    +0.000 HD
ENDBRANCH  10  16
BRANCH   1  18
ATOM     18  O   UNL     1       4.039   6.311  17.152  0.00  0.00    +0.000 OA
BRANCH  18  19
ATOM     19  C   UNL     1       4.663   5.096  17.585  0.00  0.00    +0.000 C 
BRANCH  19  20
ATOM     20  C   UNL     1       4.046   3.938  16.814  0.00  0.00    +0.000 C 
BRANCH  20  21
ATOM     21  C   UNL     1       2.571   3.734  17.173  0.00  0.00    +0.000 C 
BRANCH  21  26
ATOM     22  C   UNL     1       2.141   3.239  21.956  0.00  0.00    +0.000 C 
ATOM     23  N   UNL     1       2.087   2.545  20.676  0.00  0.00    +0.000 NA
ATOM     24  C   UNL     1       3.387   2.594  19.984  0.00  0.00    +0.000 C 
ATOM     25  C   UNL     1       3.328   1.885  18.612  0.00  0.00    +0.000 C 
ATOM     26  N   UNL     1       2.276   2.394  17.702  0.00  0.00    +0.000 NA
ATOM     27  C   UNL     1       0.991   2.373  18.439  0.00  0.00    +0.000 C 
ATOM     28  C   UNL     1       1.027   3.092  19.809  0.00  0.00    +0.000 C 
ENDBRANCH  21  26
ENDBRANCH  20  21
ENDBRANCH  19  20
ENDBRANCH  18  19
ENDBRANCH   1  18
TORSDOF 6
ENDMDL
MODEL 5
REMARK VINA RESULT:      -7.7      5.440      7.479
REMARK  Name = 
REMARK  7 active torsions:
REMARK  status: ('A' for Active; 'I' for Inactive)
REMARK    1  A    between atoms: C_1  and  N_2
REMARK    2  A    between atoms: N_5  and  C_6
REMARK    3  A    between atoms: C_6  and  C_7
REMARK    4  A    between atoms: C_7  and  C_8
REMARK    5  A    between atoms: C_8  and  O_9
REMARK    6  A    between atoms: O_9  and  C_10
REMARK    7  A    between atoms: C_19  and  O_20
REMARK                            x       y       z     vdW  Elec       q    Type
REMARK                         _______ _______ _______ _____ _____    ______ ____
ROOT
ATOM      1  C   UNL     1       1.673   6.050  20.429  0.00  0.00    +0.000 A 
ATOM      2  C   UNL     1       1.282   4.711  20.366  0.00  0.00    +0.000 A 
ATOM      3  C   UNL     1       1.917   3.837  19.491  0.00  0.00    +0.000 A 
ATOM      4  C   UNL     1       2.941   4.312  18.674  0.00  0.00    +0.000 A 
ATOM      5  C   UNL     1       3.610   3.399  17.740  0.00  0.00    +0.000 A 
ATOM      6  O   UNL     1       3.296   2.220  17.671  0.00  0.00    +0.000 OA
ATOM      7  C   UNL     1       4.661   3.967  16.904  0.00  0.00    +0.000 A 
ATOM      8  C   UNL     1       5.334   3.154  15.986  0.00  0.00    +0.000 A 
ATOM      9  C   UNL     1       6.337   3.704  15.192  0.00  0.00    +0.000 A 
ATOM     10  C   UNL     1       6.651   5.052  15.329  0.00  0.00    +0.000 A 
ATOM     11  C   UNL     1       5.979   5.864  16.244  0.00  0.00    +0.000 A 
ATOM     12  C   UNL     1       4.973   5.319  17.041  0.00  0.00    +0.000 A 
ATOM     13  O   UNL     1       4.339   6.163  17.924  0.00  0.00    +0.000 OA
ATOM     14  C   UNL     1       3.337   5.646  18.713  0.00  0.00    +0.000 A 
ATOM     15  C   UNL     1       2.694   6.519  19.592  0.00  0.00    +0.000 A 
ENDROOT
BRANCH  10  16
ATOM     16  O   UNL     1       7.628   5.622  14.570  0.00  0.00    +0.000 OA
ATOM     17  H   UNL     1       7.565   6.589  14.650  0.00  0.00    +0.000 HD
ENDBRANCH  10  16
BRANCH   1  18
ATOM     18  O   UNL     1       1.086   6.984  21.241  0.00  0.00    +0.000 OA
BRANCH  18  19
ATOM     19  C   UNL     1       1.444   8.340  20.948  0.00  0.00    +0.000 C 
BRANCH  19  20
ATOM     20  C   UNL     1       1.228   9.177  22.201  0.00  0.00    +0.000 C 
BRANCH  20  21
ATOM     21  C   UNL     1      -0.063   9.999  22.122  0.00  0.00    +0.000 C 
BRANCH  21  26
ATOM     22  C   UNL     1      -1.519  12.173  18.064  0.00  0.00    +0.000 C 
ATOM     23  N   UNL     1      -0.885  12.370  19.361  0.00  0.00    +0.000 NA
ATOM     24  C   UNL     1       0.375  11.613  19.463  0.00  0.00    +0.000 C 
ATOM     25  C   UNL     1       1.038  11.795  20.847  0.00  0.00    +0.000 C 
ATOM     26  N   UNL     1       0.170  11.446  21.995  0.00  0.00    +0.000 NA
ATOM     27  C   UNL     1      -1.104  12.187  21.842  0.00  0.00    +0.000 C 
ATOM     28  C   UNL     1      -1.789  12.005  20.467  0.00  0.00    +0.000 C 
ENDBRANCH  21  26
ENDBRANCH  20  21
ENDBRANCH  19  20
ENDBRANCH  18  19
ENDBRANCH   1  18
TORSDOF 6
ENDMDL
MODEL 6
REMARK VINA RESULT:      -7.7      5.788      8.748
REMARK  Name = 
REMARK  7 active torsions:
REMARK  status: ('A' for Active; 'I' for Inactive)
REMARK    1  A    between atoms: C_1  and  N_2
REMARK    2  A    between atoms: N_5  and  C_6
REMARK    3  A    between atoms: C_6  and  C_7
REMARK    4  A    between atoms: C_7  and  C_8
REMARK    5  A    between atoms: C_8  and  O_9
REMARK    6  A    between atoms: O_9  and  C_10
REMARK    7  A    between atoms: C_19  and  O_20
REMARK                            x       y       z     vdW  Elec       q    Type
REMARK                         _______ _______ _______ _____ _____    ______ ____
ROOT
ATOM      1  C   UNL     1       3.238   6.392  18.724  0.00  0.00    +0.000 A 
ATOM      2  C   UNL     1       3.305   7.284  17.652  0.00  0.00    +0.000 A 
ATOM      3  C   UNL     1       2.633   8.499  17.710  0.00  0.00    +0.000 A 
ATOM      4  C   UNL     1       1.885   8.814  18.842  0.00  0.00    +0.000 A 
ATOM      5  C   UNL     1       1.164  10.090  18.907  0.00  0.00    +0.000 A 
ATOM      6  O   UNL     1       1.213  10.895  17.989  0.00  0.00    +0.000 OA
ATOM      7  C   UNL     1       0.390  10.347  20.116  0.00  0.00    +0.000 A 
ATOM      8  C   UNL     1      -0.329  11.541  20.239  0.00  0.00    +0.000 A 
ATOM      9  C   UNL     1      -1.066  11.779  21.397  0.00  0.00    +0.000 A 
ATOM     10  C   UNL     1      -1.071  10.825  22.409  0.00  0.00    +0.000 A 
ATOM     11  C   UNL     1      -0.354   9.634  22.286  0.00  0.00    +0.000 A 
ATOM     12  C   UNL     1       0.384   9.389  21.128  0.00  0.00    +0.000 A 
ATOM     13  O   UNL     1       1.069   8.198  21.055  0.00  0.00    +0.000 OA
ATOM     14  C   UNL     1       1.796   7.933  19.917  0.00  0.00    +0.000 A 
ATOM     15  C   UNL     1       2.472   6.714  19.852  0.00  0.00    +0.000 A 
ENDROOT
BRANCH  10  16
ATOM     16  O   UNL     1      -1.778  11.027  23.555  0.00  0.00    +0.000 OA
ATOM     17  H   UNL     1      -1.953  11.978  23.654  0.00  0.00    +0.000 HD
ENDBRANCH  10  16
BRANCH   1  18
ATOM     18  O   UNL     1       3.847   5.165  18.743  0.00  0.00    +0.000 OA
BRANCH  18  19
ATOM     19  C   UNL     1       4.615   4.861  17.572  0.00  0.00    +0.000 C 
BRANCH  19  20
ATOM     20  C   UNL     1       3.994   3.650  16.890  0.00  0.00    +0.000 C 
BRANCH  20  21
ATOM     21  C   UNL     1       2.492   3.544  17.172  0.00  0.00    +0.000 C 
BRANCH  21  26
ATOM     22  C   UNL     1       2.175   3.204  21.978  0.00  0.00    +0.000 C 
ATOM     23  N   UNL     1       2.016   2.488  20.719  0.00  0.00    +0.000 NA
ATOM     24  C   UNL     1       3.291   2.400  19.987  0.00  0.00    +0.000 C 
ATOM     25  C   UNL     1       3.122   1.667  18.636  0.00  0.00    +0.000 C 
ATOM     26  N   UNL     1       2.093   2.250  17.745  0.00  0.00    +0.000 NA
ATOM     27  C   UNL     1       0.836   2.366  18.521  0.00  0.00    +0.000 C 
ATOM     28  C   UNL     1       0.983   3.110  19.870  0.00  0.00    +0.000 C 
ENDBRANCH  21  26
ENDBRANCH  20  21
ENDBRANCH  19  20
ENDBRANCH  18  19
ENDBRANCH   1  18
TORSDOF 6
ENDMDL
MODEL 7
REMARK VINA RESULT:      -7.7      0.896      1.005
REMARK  Name = 
REMARK  7 active torsions:
REMARK  status: ('A' for Active; 'I' for Inactive)
REMARK    1  A    between atoms: C_1  and  N_2
REMARK    2  A    between atoms: N_5  and  C_6
REMARK    3  A    between atoms: C_6  and  C_7
REMARK    4  A    between atoms: C_7  and  C_8
REMARK    5  A    between atoms: C_8  and  O_9
REMARK    6  A    between atoms: O_9  and  C_10
REMARK    7  A    between atoms: C_19  and  O_20
REMARK                            x       y       z     vdW  Elec       q    Type
REMARK                         _______ _______ _______ _____ _____    ______ ____
ROOT
ATOM      1  C   UNL     1       7.268   6.621  17.801  0.00  0.00    +0.000 A 
ATOM      2  C   UNL     1       7.103   6.073  16.528  0.00  0.00    +0.000 A 
ATOM      3  C   UNL     1       6.060   5.189  16.277  0.00  0.00    +0.000 A 
ATOM      4  C   UNL     1       5.188   4.850  17.309  0.00  0.00    +0.000 A 
ATOM      5  C   UNL     1       4.090   3.910  17.055  0.00  0.00    +0.000 A 
ATOM      6  O   UNL     1       3.914   3.423  15.949  0.00  0.00    +0.000 OA
ATOM      7  C   UNL     1       3.224   3.589  18.185  0.00  0.00    +0.000 A 
ATOM      8  C   UNL     1       2.164   2.693  18.014  0.00  0.00    +0.000 A 
ATOM      9  C   UNL     1       1.342   2.391  19.097  0.00  0.00    +0.000 A 
ATOM     10  C   UNL     1       1.592   2.990  20.328  0.00  0.00    +0.000 A 
ATOM     11  C   UNL     1       2.651   3.883  20.499  0.00  0.00    +0.000 A 
ATOM     12  C   UNL     1       3.478   4.187  19.418  0.00  0.00    +0.000 A 
ATOM     13  O   UNL     1       4.509   5.070  19.640  0.00  0.00    +0.000 OA
ATOM     14  C   UNL     1       5.343   5.377  18.589  0.00  0.00    +0.000 A 
ATOM     15  C   UNL     1       6.393   6.262  18.835  0.00  0.00    +0.000 A 
ENDROOT
BRANCH  10  16
ATOM     16  O   UNL     1       0.807   2.720  21.408  0.00  0.00    +0.000 OA
ATOM     17  H   UNL     1       0.893   1.777  21.633  0.00  0.00    +0.000 HD
ENDBRANCH  10  16
BRANCH   1  18
ATOM     18  O   UNL     1       8.281   7.478  18.144  0.00  0.00    +0.000 OA
BRANCH  18  19
ATOM     19  C   UNL     1       8.001   8.862  17.899  0.00  0.00    +0.000 C 
BRANCH  19  20
ATOM     20  C   UNL     1       8.871   9.700  18.825  0.00  0.00    +0.000 C 
BRANCH  20  21
ATOM     21  C   UNL     1       9.687  10.741  18.053  0.00  0.00    +0.000 C 
BRANCH  21  26
ATOM     22  C   UNL     1       9.635  15.556  18.416  0.00  0.00    +0.000 C 
ATOM     23  N   UNL     1      10.323  14.337  18.821  0.00  0.00    +0.000 NA
ATOM     24  C   UNL     1      10.877  13.622  17.658  0.00  0.00    +0.000 C 
ATOM     25  C   UNL     1      11.583  12.312  18.080  0.00  0.00    +0.000 C 
ATOM     26  N   UNL     1      10.736  11.382  18.861  0.00  0.00    +0.000 NA
ATOM     27  C   UNL     1      10.159  12.139  19.996  0.00  0.00    +0.000 C 
ATOM     28  C   UNL     1       9.436  13.446  19.591  0.00  0.00    +0.000 C 
ENDBRANCH  21  26
ENDBRANCH  20  21
ENDBRANCH  19  20
ENDBRANCH  18  19
ENDBRANCH   1  18
TORSDOF 6
ENDMDL
MODEL 8
REMARK VINA RESULT:      -7.7      5.270      7.231
REMARK  Name = 
REMARK  7 active torsions:
REMARK  status: ('A' for Active; 'I' for Inactive)
REMARK    1  A    between atoms: C_1  and  N_2
REMARK    2  A    between atoms: N_5  and  C_6
REMARK    3  A    between atoms: C_6  and  C_7
REMARK    4  A    between atoms: C_7  and  C_8
REMARK    5  A    between atoms: C_8  and  O_9
REMARK    6  A    between atoms: O_9  and  C_10
REMARK    7  A    between atoms: C_19  and  O_20
REMARK                            x       y       z     vdW  Elec       q    Type
REMARK                         _______ _______ _______ _____ _____    ______ ____
ROOT
ATOM      1  C   UNL     1       1.679   6.020  20.455  0.00  0.00    +0.000 A 
ATOM      2  C   UNL     1       1.213   4.713  20.301  0.00  0.00    +0.000 A 
ATOM      3  C   UNL     1       1.807   3.863  19.375  0.00  0.00    +0.000 A 
ATOM      4  C   UNL     1       2.865   4.331  18.598  0.00  0.00    +0.000 A 
ATOM      5  C   UNL     1       3.491   3.444  17.611  0.00  0.00    +0.000 A 
ATOM      6  O   UNL     1       3.111   2.292  17.461  0.00  0.00    +0.000 OA
ATOM      7  C   UNL     1       4.583   4.004  16.823  0.00  0.00    +0.000 A 
ATOM      8  C   UNL     1       5.217   3.215  15.857  0.00  0.00    +0.000 A 
ATOM      9  C   UNL     1       6.259   3.757  15.109  0.00  0.00    +0.000 A 
ATOM     10  C   UNL     1       6.649   5.073  15.337  0.00  0.00    +0.000 A 
ATOM     11  C   UNL     1       6.014   5.860  16.299  0.00  0.00    +0.000 A 
ATOM     12  C   UNL     1       4.970   5.323  17.051  0.00  0.00    +0.000 A 
ATOM     13  O   UNL     1       4.376   6.142  17.983  0.00  0.00    +0.000 OA
ATOM     14  C   UNL     1       3.336   5.634  18.729  0.00  0.00    +0.000 A 
ATOM     15  C   UNL     1       2.734   6.483  19.658  0.00  0.00    +0.000 A 
ENDROOT
BRANCH  10  16
ATOM     16  O   UNL     1       7.665   5.634  14.625  0.00  0.00    +0.000 OA
ATOM     17  H   UNL     1       8.371   4.974  14.509  0.00  0.00    +0.000 HD
ENDBRANCH  10  16
BRANCH   1  18
ATOM     18  O   UNL     1       1.138   6.931  21.323  0.00  0.00    +0.000 OA
BRANCH  18  19
ATOM     19  C   UNL     1       1.279   8.299  20.919  0.00  0.00    +0.000 C 
BRANCH  19  20
ATOM     20  C   UNL     1       0.153   9.106  21.550  0.00  0.00    +0.000 C 
BRANCH  20  21
ATOM     21  C   UNL     1       0.081  10.525  20.979  0.00  0.00    +0.000 C 
BRANCH  21  26
ATOM     22  C   UNL     1      -0.157  14.849  18.844  0.00  0.00    +0.000 C 
ATOM     23  N   UNL     1      -0.055  13.413  18.620  0.00  0.00    +0.000 NA
ATOM     24  C   UNL     1      -1.237  12.704  19.140  0.00  0.00    +0.000 C 
ATOM     25  C   UNL     1      -1.122  11.177  18.932  0.00  0.00    +0.000 C 
ATOM     26  N   UNL     1       0.099  10.568  19.509  0.00  0.00    +0.000 NA
ATOM     27  C   UNL     1       1.266  11.329  19.003  0.00  0.00    +0.000 C 
ATOM     28  C   UNL     1       1.174  12.859  19.217  0.00  0.00    +0.000 C 
ENDBRANCH  21  26
ENDBRANCH  20  21
ENDBRANCH  19  20
ENDBRANCH  18  19
ENDBRANCH   1  18
TORSDOF 6
ENDMDL
MODEL 9
REMARK VINA RESULT:      -7.6      5.338      7.245
REMARK  Name = 
REMARK  7 active torsions:
REMARK  status: ('A' for Active; 'I' for Inactive)
REMARK    1  A    between atoms: C_1  and  N_2
REMARK    2  A    between atoms: N_5  and  C_6
REMARK    3  A    between atoms: C_6  and  C_7
REMARK    4  A    between atoms: C_7  and  C_8
REMARK    5  A    between atoms: C_8  and  O_9
REMARK    6  A    between atoms: O_9  and  C_10
REMARK    7  A    between atoms: C_19  and  O_20
REMARK                            x       y       z     vdW  Elec       q    Type
REMARK                         _______ _______ _______ _____ _____    ______ ____
ROOT
ATOM      1  C   UNL     1       1.715   6.152  20.406  0.00  0.00    +0.000 A 
ATOM      2  C   UNL     1       1.304   4.819  20.356  0.00  0.00    +0.000 A 
ATOM      3  C   UNL     1       1.916   3.931  19.477  0.00  0.00    +0.000 A 
ATOM      4  C   UNL     1       2.935   4.387  18.644  0.00  0.00    +0.000 A 
ATOM      5  C   UNL     1       3.579   3.459  17.708  0.00  0.00    +0.000 A 
ATOM      6  O   UNL     1       3.249   2.285  17.649  0.00  0.00    +0.000 OA
ATOM      7  C   UNL     1       4.628   4.008  16.855  0.00  0.00    +0.000 A 
ATOM      8  C   UNL     1       5.277   3.181  15.933  0.00  0.00    +0.000 A 
ATOM      9  C   UNL     1       6.278   3.712  15.123  0.00  0.00    +0.000 A 
ATOM     10  C   UNL     1       6.613   5.056  15.248  0.00  0.00    +0.000 A 
ATOM     11  C   UNL     1       5.964   5.883  16.168  0.00  0.00    +0.000 A 
ATOM     12  C   UNL     1       4.960   5.356  16.980  0.00  0.00    +0.000 A 
ATOM     13  O   UNL     1       4.350   6.214  17.866  0.00  0.00    +0.000 OA
ATOM     14  C   UNL     1       3.351   5.716  18.671  0.00  0.00    +0.000 A 
ATOM     15  C   UNL     1       2.731   6.602  19.553  0.00  0.00    +0.000 A 
ENDROOT
BRANCH  10  16
ATOM     16  O   UNL     1       7.588   5.609  14.474  0.00  0.00    +0.000 OA
ATOM     17  H   UNL     1       8.306   5.923  15.048  0.00  0.00    +0.000 HD
ENDBRANCH  10  16
BRANCH   1  18
ATOM     18  O   UNL     1       1.152   7.099  21.220  0.00  0.00    +0.000 OA
BRANCH  18  19
ATOM     19  C   UNL     1       1.347   8.451  20.788  0.00  0.00    +0.000 C 
BRANCH  19  20
ATOM     20  C   UNL     1       0.160   9.282  21.255  0.00  0.00    +0.000 C 
BRANCH  20  21
ATOM     21  C   UNL     1      -0.413  10.142  20.124  0.00  0.00    +0.000 C 
BRANCH  21  26
ATOM     22  C   UNL     1       1.793  14.162  18.612  0.00  0.00    +0.000 C 
ATOM     23  N   UNL     1       0.697  13.633  19.412  0.00  0.00    +0.000 NA
ATOM     24  C   UNL     1       1.195  12.811  20.528  0.00  0.00    +0.000 C 
ATOM     25  C   UNL     1       0.034  12.222  21.364  0.00  0.00    +0.000 C 
ATOM     26  N   UNL     1      -0.947  11.434  20.583  0.00  0.00    +0.000 NA
ATOM     27  C   UNL     1      -1.395  12.270  19.445  0.00  0.00    +0.000 C 
ATOM     28  C   UNL     1      -0.247  12.855  18.588  0.00  0.00    +0.000 C 
ENDBRANCH  21  26
ENDBRANCH  20  21
ENDBRANCH  19  20
ENDBRANCH  18  19
ENDBRANCH   1  18
TORSDOF 6
ENDMDL
