MODEL 1
REMARK VINA RESULT:      -5.9      0.000      0.000
REMARK  Name = 
REMARK  7 active torsions:
REMARK  status: ('A' for Active; 'I' for Inactive)
REMARK    1  A    between atoms: C_1  and  C_2
REMARK    2  A    between atoms: C_2  and  C_3
REMARK    3  A    between atoms: C_3  and  C_4
REMARK    4  A    between atoms: C_4  and  N_5
REMARK    5  A    between atoms: C_7  and  O_8
REMARK    6  A    between atoms: C_9  and  O_10
REMARK    7  A    between atoms: C_11  and  O_12
REMARK                            x       y       z     vdW  Elec       q    Type
REMARK                         _______ _______ _______ _____ _____    ______ ____
ROOT
ATOM      1  N   UNL     1       4.581   4.547  17.502  0.00  0.00    +0.000 NA
ATOM      2  C   UNL     1       5.422   4.597  16.289  0.00  0.00    +0.000 C 
ATOM      3  C   UNL     1       6.678   5.498  16.343  0.00  0.00    +0.000 C 
ATOM      4  C   UNL     1       7.464   5.347  17.657  0.00  0.00    +0.000 C 
ATOM      5  C   UNL     1       6.518   5.403  18.861  0.00  0.00    +0.000 C 
ATOM      6  C   UNL     1       5.409   4.350  18.707  0.00  0.00    +0.000 C 
ENDROOT
BRANCH   3   7
ATOM      7  O   UNL     1       7.543   5.178  15.242  0.00  0.00    +0.000 OA
ATOM      8  H   UNL     1       7.968   4.321  15.455  0.00  0.00    +0.000 HD
ENDBRANCH   3   7
BRANCH   4   9
ATOM      9  O   UNL     1       8.218   4.114  17.657  0.00  0.00    +0.000 OA
ATOM     10  H   UNL     1       9.139   4.311  17.911  0.00  0.00    +0.000 HD
ENDBRANCH   4   9
BRANCH   5  11
ATOM     11  O   UNL     1       7.232   5.184  20.076  0.00  0.00    +0.000 OA
ATOM     12  H   UNL     1       6.683   4.591  20.619  0.00  0.00    +0.000 HD
ENDBRANCH   5  11
BRANCH   1  13
ATOM     13  C   UNL     1       3.687   5.699  17.690  0.00  0.00    +0.000 C 
BRANCH  13  14
ATOM     14  C   UNL     1       2.262   5.387  18.163  0.00  0.00    +0.000 C 
BRANCH  14  16
ATOM     15  C   UNL     1       1.228   3.179  18.812  0.00  0.00    +0.000 C 
ATOM     16  C   UNL     1       1.744   4.037  17.666  0.00  0.00    +0.000 C 
ENDBRANCH  14  16
ENDBRANCH  13  14
ENDBRANCH   1  13
TORSDOF 6
ENDMDL
MODEL 2
REMARK VINA RESULT:      -5.6      1.817      2.513
REMARK  Name = 
REMARK  7 active torsions:
REMARK  status: ('A' for Active; 'I' for Inactive)
REMARK    1  A    between atoms: C_1  and  C_2
REMARK    2  A    between atoms: C_2  and  C_3
REMARK    3  A    between atoms: C_3  and  C_4
REMARK    4  A    between atoms: C_4  and  N_5
REMARK    5  A    between atoms: C_7  and  O_8
REMARK    6  A    between atoms: C_9  and  O_10
REMARK    7  A    between atoms: C_11  and  O_12
REMARK                            x       y       z     vdW  Elec       q    Type
REMARK                         _______ _______ _______ _____ _____    ______ ____
ROOT
ATOM      1  N   UNL     1       3.182   3.910  17.278  0.00  0.00    +0.000 NA
ATOM      2  C   UNL     1       4.031   5.093  17.030  0.00  0.00    +0.000 C 
ATOM      3  C   UNL     1       4.852   5.631  18.226  0.00  0.00    +0.000 C 
ATOM      4  C   UNL     1       5.538   4.512  19.028  0.00  0.00    +0.000 C 
ATOM      5  C   UNL     1       4.554   3.375  19.318  0.00  0.00    +0.000 C 
ATOM      6  C   UNL     1       3.933   2.870  18.006  0.00  0.00    +0.000 C 
ENDROOT
BRANCH   3   7
ATOM      7  O   UNL     1       5.853   6.543  17.746  0.00  0.00    +0.000 OA
ATOM      8  H   UNL     1       6.169   7.051  18.523  0.00  0.00    +0.000 HD
ENDBRANCH   3   7
BRANCH   4   9
ATOM      9  O   UNL     1       6.696   4.017  18.319  0.00  0.00    +0.000 OA
ATOM     10  H   UNL     1       7.349   4.737  18.244  0.00  0.00    +0.000 HD
ENDBRANCH   4   9
BRANCH   5  11
ATOM     11  O   UNL     1       5.206   2.301  19.993  0.00  0.00    +0.000 OA
ATOM     12  H   UNL     1       4.655   1.509  19.856  0.00  0.00    +0.000 HD
ENDBRANCH   5  11
BRANCH   1  13
ATOM     13  C   UNL     1       1.911   4.186  17.964  0.00  0.00    +0.000 C 
BRANCH  13  14
ATOM     14  C   UNL     1       1.152   2.970  18.509  0.00  0.00    +0.000 C 
BRANCH  14  16
ATOM     15  C   UNL     1       1.220   4.440  20.558  0.00  0.00    +0.000 C 
ATOM     16  C   UNL     1       0.820   3.083  19.997  0.00  0.00    +0.000 C 
ENDBRANCH  14  16
ENDBRANCH  13  14
ENDBRANCH   1  13
TORSDOF 6
ENDMDL
MODEL 3
REMARK VINA RESULT:      -5.6      1.496      2.595
REMARK  Name = 
REMARK  7 active torsions:
REMARK  status: ('A' for Active; 'I' for Inactive)
REMARK    1  A    between atoms: C_1  and  C_2
REMARK    2  A    between atoms: C_2  and  C_3
REMARK    3  A    between atoms: C_3  and  C_4
REMARK    4  A    between atoms: C_4  and  N_5
REMARK    5  A    between atoms: C_7  and  O_8
REMARK    6  A    between atoms: C_9  and  O_10
REMARK    7  A    between atoms: C_11  and  O_12
REMARK                            x       y       z     vdW  Elec       q    Type
REMARK                         _______ _______ _______ _____ _____    ______ ____
ROOT
ATOM      1  N   UNL     1       4.605   5.219  18.299  0.00  0.00    +0.000 NA
ATOM      2  C   UNL     1       5.955   4.657  18.509  0.00  0.00    +0.000 C 
ATOM      3  C   UNL     1       6.786   4.336  17.243  0.00  0.00    +0.000 C 
ATOM      4  C   UNL     1       6.718   5.453  16.187  0.00  0.00    +0.000 C 
ATOM      5  C   UNL     1       5.270   5.903  15.971  0.00  0.00    +0.000 C 
ATOM      6  C   UNL     1       4.642   6.314  17.311  0.00  0.00    +0.000 C 
ENDROOT
BRANCH   3   7
ATOM      7  O   UNL     1       8.158   4.126  17.614  0.00  0.00    +0.000 OA
ATOM      8  H   UNL     1       8.701   4.677  17.012  0.00  0.00    +0.000 HD
ENDBRANCH   3   7
BRANCH   4   9
ATOM      9  O   UNL     1       7.547   6.570  16.578  0.00  0.00    +0.000 OA
ATOM     10  H   UNL     1       7.390   6.762  17.521  0.00  0.00    +0.000 HD
ENDBRANCH   4   9
BRANCH   5  11
ATOM     11  O   UNL     1       5.211   6.992  15.051  0.00  0.00    +0.000 OA
ATOM     12  H   UNL     1       4.979   7.782  15.569  0.00  0.00    +0.000 HD
ENDBRANCH   5  11
BRANCH   1  13
ATOM     13  C   UNL     1       3.572   4.241  17.928  0.00  0.00    +0.000 C 
BRANCH  13  14
ATOM     14  C   UNL     1       2.116   4.692  18.092  0.00  0.00    +0.000 C 
BRANCH  14  16
ATOM     15  C   UNL     1       1.719   5.042  20.559  0.00  0.00    +0.000 C 
ATOM     16  C   UNL     1       1.456   4.145  19.358  0.00  0.00    +0.000 C 
ENDBRANCH  14  16
ENDBRANCH  13  14
ENDBRANCH   1  13
TORSDOF 6
ENDMDL
MODEL 4
REMARK VINA RESULT:      -5.5      0.960      1.651
REMARK  Name = 
REMARK  7 active torsions:
REMARK  status: ('A' for Active; 'I' for Inactive)
REMARK    1  A    between atoms: C_1  and  C_2
REMARK    2  A    between atoms: C_2  and  C_3
REMARK    3  A    between atoms: C_3  and  C_4
REMARK    4  A    between atoms: C_4  and  N_5
REMARK    5  A    between atoms: C_7  and  O_8
REMARK    6  A    between atoms: C_9  and  O_10
REMARK    7  A    between atoms: C_11  and  O_12
REMARK                            x       y       z     vdW  Elec       q    Type
REMARK                         _______ _______ _______ _____ _____    ______ ____
ROOT
ATOM      1  N   UNL     1       4.592   4.162  17.496  0.00  0.00    +0.000 NA
ATOM      2  C   UNL     1       5.449   4.128  16.293  0.00  0.00    +0.000 C 
ATOM      3  C   UNL     1       6.625   5.132  16.241  0.00  0.00    +0.000 C 
ATOM      4  C   UNL     1       7.396   5.216  17.570  0.00  0.00    +0.000 C 
ATOM      5  C   UNL     1       6.426   5.344  18.749  0.00  0.00    +0.000 C 
ATOM      6  C   UNL     1       5.411   4.191  18.722  0.00  0.00    +0.000 C 
ENDROOT
BRANCH   3   7
ATOM      7  O   UNL     1       7.534   4.748  15.198  0.00  0.00    +0.000 OA
ATOM      8  H   UNL     1       7.107   4.017  14.704  0.00  0.00    +0.000 HD
ENDBRANCH   3   7
BRANCH   4   9
ATOM      9  O   UNL     1       8.249   4.061  17.735  0.00  0.00    +0.000 OA
ATOM     10  H   UNL     1       9.031   4.166  17.162  0.00  0.00    +0.000 HD
ENDBRANCH   4   9
BRANCH   5  11
ATOM     11  O   UNL     1       7.132   5.343  19.988  0.00  0.00    +0.000 OA
ATOM     12  H   UNL     1       7.302   4.411  20.212  0.00  0.00    +0.000 HD
ENDBRANCH   5  11
BRANCH   1  13
ATOM     13  C   UNL     1       3.602   5.250  17.526  0.00  0.00    +0.000 C 
BRANCH  13  14
ATOM     14  C   UNL     1       2.690   5.307  18.758  0.00  0.00    +0.000 C 
BRANCH  14  16
ATOM     15  C   UNL     1       2.627   7.766  18.197  0.00  0.00    +0.000 C 
ATOM     16  C   UNL     1       2.496   6.724  19.299  0.00  0.00    +0.000 C 
ENDBRANCH  14  16
ENDBRANCH  13  14
ENDBRANCH   1  13
TORSDOF 6
ENDMDL
MODEL 5
REMARK VINA RESULT:      -5.5      2.593      3.459
REMARK  Name = 
REMARK  7 active torsions:
REMARK  status: ('A' for Active; 'I' for Inactive)
REMARK    1  A    between atoms: C_1  and  C_2
REMARK    2  A    between atoms: C_2  and  C_3
REMARK    3  A    between atoms: C_3  and  C_4
REMARK    4  A    between atoms: C_4  and  N_5
REMARK    5  A    between atoms: C_7  and  O_8
REMARK    6  A    between atoms: C_9  and  O_10
REMARK    7  A    between atoms: C_11  and  O_12
REMARK                            x       y       z     vdW  Elec       q    Type
REMARK                         _______ _______ _______ _____ _____    ______ ____
ROOT
ATOM      1  N   UNL     1       2.507   2.288  17.886  0.00  0.00    +0.000 NA
ATOM      2  C   UNL     1       2.867   3.665  17.491  0.00  0.00    +0.000 C 
ATOM      3  C   UNL     1       3.630   4.517  18.534  0.00  0.00    +0.000 C 
ATOM      4  C   UNL     1       4.759   3.737  19.229  0.00  0.00    +0.000 C 
ATOM      5  C   UNL     1       4.264   2.362  19.685  0.00  0.00    +0.000 C 
ATOM      6  C   UNL     1       3.660   1.599  18.496  0.00  0.00    +0.000 C 
ENDROOT
BRANCH   3   7
ATOM      7  O   UNL     1       4.187   5.673  17.889  0.00  0.00    +0.000 OA
ATOM      8  H   UNL     1       4.079   6.423  18.511  0.00  0.00    +0.000 HD
ENDBRANCH   3   7
BRANCH   4   9
ATOM      9  O   UNL     1       5.898   3.604  18.349  0.00  0.00    +0.000 OA
ATOM     10  H   UNL     1       5.591   3.678  17.426  0.00  0.00    +0.000 HD
ENDBRANCH   4   9
BRANCH   5  11
ATOM     11  O   UNL     1       5.328   1.605  20.260  0.00  0.00    +0.000 OA
ATOM     12  H   UNL     1       4.922   0.827  20.680  0.00  0.00    +0.000 HD
ENDBRANCH   5  11
BRANCH   1  13
ATOM     13  C   UNL     1       1.333   2.177  18.764  0.00  0.00    +0.000 C 
BRANCH  13  14
ATOM     14  C   UNL     1       0.669   3.494  19.184  0.00  0.00    +0.000 C 
BRANCH  14  16
ATOM     15  C   UNL     1       1.338   2.692  21.480  0.00  0.00    +0.000 C 
ATOM     16  C   UNL     1       0.992   3.900  20.622  0.00  0.00    +0.000 C 
ENDBRANCH  14  16
ENDBRANCH  13  14
ENDBRANCH   1  13
TORSDOF 6
ENDMDL
MODEL 6
REMARK VINA RESULT:      -5.4      3.438      4.941
REMARK  Name = 
REMARK  7 active torsions:
REMARK  status: ('A' for Active; 'I' for Inactive)
REMARK    1  A    between atoms: C_1  and  C_2
REMARK    2  A    between atoms: C_2  and  C_3
REMARK    3  A    between atoms: C_3  and  C_4
REMARK    4  A    between atoms: C_4  and  N_5
REMARK    5  A    between atoms: C_7  and  O_8
REMARK    6  A    between atoms: C_9  and  O_10
REMARK    7  A    between atoms: C_11  and  O_12
REMARK                            x       y       z     vdW  Elec       q    Type
REMARK                         _______ _______ _______ _____ _____    ______ ____
ROOT
ATOM      1  N   UNL     1       2.827   5.048  18.717  0.00  0.00    +0.000 NA
ATOM      2  C   UNL     1       4.027   4.238  19.013  0.00  0.00    +0.000 C 
ATOM      3  C   UNL     1       3.807   2.917  19.788  0.00  0.00    +0.000 C 
ATOM      4  C   UNL     1       2.608   2.110  19.263  0.00  0.00    +0.000 C 
ATOM      5  C   UNL     1       1.387   3.016  19.078  0.00  0.00    +0.000 C 
ATOM      6  C   UNL     1       1.747   4.204  18.171  0.00  0.00    +0.000 C 
ENDROOT
BRANCH   3   7
ATOM      7  O   UNL     1       4.991   2.108  19.697  0.00  0.00    +0.000 OA
ATOM      8  H   UNL     1       4.698   1.201  19.471  0.00  0.00    +0.000 HD
ENDBRANCH   3   7
BRANCH   4   9
ATOM      9  O   UNL     1       2.946   1.449  18.023  0.00  0.00    +0.000 OA
ATOM     10  H   UNL     1       3.918   1.414  17.941  0.00  0.00    +0.000 HD
ENDBRANCH   4   9
BRANCH   5  11
ATOM     11  O   UNL     1       0.297   2.288  18.516  0.00  0.00    +0.000 OA
ATOM     12  H   UNL     1      -0.194   1.900  19.263  0.00  0.00    +0.000 HD
ENDBRANCH   5  11
BRANCH   1  13
ATOM     13  C   UNL     1       2.321   5.848  19.842  0.00  0.00    +0.000 C 
BRANCH  13  14
ATOM     14  C   UNL     1       2.231   7.362  19.615  0.00  0.00    +0.000 C 
BRANCH  14  16
ATOM     15  C   UNL     1       1.941   9.100  17.810  0.00  0.00    +0.000 C 
ATOM     16  C   UNL     1       2.597   7.781  18.192  0.00  0.00    +0.000 C 
ENDBRANCH  14  16
ENDBRANCH  13  14
ENDBRANCH   1  13
TORSDOF 6
ENDMDL
MODEL 7
REMARK VINA RESULT:      -5.4      3.378      5.106
REMARK  Name = 
REMARK  7 active torsions:
REMARK  status: ('A' for Active; 'I' for Inactive)
REMARK    1  A    between atoms: C_1  and  C_2
REMARK    2  A    between atoms: C_2  and  C_3
REMARK    3  A    between atoms: C_3  and  C_4
REMARK    4  A    between atoms: C_4  and  N_5
REMARK    5  A    between atoms: C_7  and  O_8
REMARK    6  A    between atoms: C_9  and  O_10
REMARK    7  A    between atoms: C_11  and  O_12
REMARK                            x       y       z     vdW  Elec       q    Type
REMARK                         _______ _______ _______ _____ _____    ______ ____
ROOT
ATOM      1  N   UNL     1       3.115   4.496  17.671  0.00  0.00    +0.000 NA
ATOM      2  C   UNL     1       3.778   3.181  17.549  0.00  0.00    +0.000 C 
ATOM      3  C   UNL     1       3.741   2.260  18.792  0.00  0.00    +0.000 C 
ATOM      4  C   UNL     1       2.356   2.216  19.460  0.00  0.00    +0.000 C 
ATOM      5  C   UNL     1       1.792   3.630  19.628  0.00  0.00    +0.000 C 
ATOM      6  C   UNL     1       1.775   4.354  18.273  0.00  0.00    +0.000 C 
ENDROOT
BRANCH   3   7
ATOM      7  O   UNL     1       4.118   0.928  18.410  0.00  0.00    +0.000 OA
ATOM      8  H   UNL     1       4.385   0.968  17.468  0.00  0.00    +0.000 HD
ENDBRANCH   3   7
BRANCH   4   9
ATOM      9  O   UNL     1       1.449   1.393  18.692  0.00  0.00    +0.000 OA
ATOM     10  H   UNL     1       1.140   0.658  19.254  0.00  0.00    +0.000 HD
ENDBRANCH   4   9
BRANCH   5  11
ATOM     11  O   UNL     1       0.475   3.589  20.175  0.00  0.00    +0.000 OA
ATOM     12  H   UNL     1      -0.138   3.544  19.421  0.00  0.00    +0.000 HD
ENDBRANCH   5  11
BRANCH   1  13
ATOM     13  C   UNL     1       3.885   5.520  18.393  0.00  0.00    +0.000 C 
BRANCH  13  14
ATOM     14  C   UNL     1       5.374   5.626  18.042  0.00  0.00    +0.000 C 
BRANCH  14  16
ATOM     15  C   UNL     1       7.711   5.847  18.965  0.00  0.00    +0.000 C 
ATOM     16  C   UNL     1       6.294   5.364  19.235  0.00  0.00    +0.000 C 
ENDBRANCH  14  16
ENDBRANCH  13  14
ENDBRANCH   1  13
TORSDOF 6
ENDMDL
MODEL 8
REMARK VINA RESULT:      -5.4      3.409      4.979
REMARK  Name = 
REMARK  7 active torsions:
REMARK  status: ('A' for Active; 'I' for Inactive)
REMARK    1  A    between atoms: C_1  and  C_2
REMARK    2  A    between atoms: C_2  and  C_3
REMARK    3  A    between atoms: C_3  and  C_4
REMARK    4  A    between atoms: C_4  and  N_5
REMARK    5  A    between atoms: C_7  and  O_8
REMARK    6  A    between atoms: C_9  and  O_10
REMARK    7  A    between atoms: C_11  and  O_12
REMARK                            x       y       z     vdW  Elec       q    Type
REMARK                         _______ _______ _______ _____ _____    ______ ____
ROOT
ATOM      1  N   UNL     1       2.964   4.425  17.518  0.00  0.00    +0.000 NA
ATOM      2  C   UNL     1       3.668   3.128  17.460  0.00  0.00    +0.000 C 
ATOM      3  C   UNL     1       3.718   2.298  18.766  0.00  0.00    +0.000 C 
ATOM      4  C   UNL     1       2.365   2.257  19.497  0.00  0.00    +0.000 C 
ATOM      5  C   UNL     1       1.759   3.660  19.590  0.00  0.00    +0.000 C 
ATOM      6  C   UNL     1       1.658   4.283  18.189  0.00  0.00    +0.000 C 
ENDROOT
BRANCH   3   7
ATOM      7  O   UNL     1       4.126   0.955  18.462  0.00  0.00    +0.000 OA
ATOM      8  H   UNL     1       4.448   0.959  17.536  0.00  0.00    +0.000 HD
ENDBRANCH   3   7
BRANCH   4   9
ATOM      9  O   UNL     1       1.457   1.352  18.832  0.00  0.00    +0.000 OA
ATOM     10  H   UNL     1       1.793   1.175  17.933  0.00  0.00    +0.000 HD
ENDBRANCH   4   9
BRANCH   5  11
ATOM     11  O   UNL     1       0.470   3.616  20.198  0.00  0.00    +0.000 OA
ATOM     12  H   UNL     1       0.031   2.813  19.863  0.00  0.00    +0.000 HD
ENDBRANCH   5  11
BRANCH   1  13
ATOM     13  C   UNL     1       3.727   5.523  18.130  0.00  0.00    +0.000 C 
BRANCH  13  14
ATOM     14  C   UNL     1       5.128   5.780  17.559  0.00  0.00    +0.000 C 
BRANCH  14  16
ATOM     15  C   UNL     1       5.618   5.395  15.115  0.00  0.00    +0.000 C 
ATOM     16  C   UNL     1       5.104   6.381  16.154  0.00  0.00    +0.000 C 
ENDBRANCH  14  16
ENDBRANCH  13  14
ENDBRANCH   1  13
TORSDOF 6
ENDMDL
MODEL 9
REMARK VINA RESULT:      -5.4      3.368      4.698
REMARK  Name = 
REMARK  7 active torsions:
REMARK  status: ('A' for Active; 'I' for Inactive)
REMARK    1  A    between atoms: C_1  and  C_2
REMARK    2  A    between atoms: C_2  and  C_3
REMARK    3  A    between atoms: C_3  and  C_4
REMARK    4  A    between atoms: C_4  and  N_5
REMARK    5  A    between atoms: C_7  and  O_8
REMARK    6  A    between atoms: C_9  and  O_10
REMARK    7  A    between atoms: C_11  and  O_12
REMARK                            x       y       z     vdW  Elec       q    Type
REMARK                         _______ _______ _______ _____ _____    ______ ____
ROOT
ATOM      1  N   UNL     1       4.103   4.411  19.187  0.00  0.00    +0.000 NA
ATOM      2  C   UNL     1       2.762   4.708  18.643  0.00  0.00    +0.000 C 
ATOM      3  C   UNL     1       2.260   3.813  17.484  0.00  0.00    +0.000 C 
ATOM      4  C   UNL     1       2.533   2.318  17.726  0.00  0.00    +0.000 C 
ATOM      5  C   UNL     1       3.974   2.101  18.196  0.00  0.00    +0.000 C 
ATOM      6  C   UNL     1       4.259   2.965  19.435  0.00  0.00    +0.000 C 
ENDROOT
BRANCH   3   7
ATOM      7  O   UNL     1       0.848   4.008  17.307  0.00  0.00    +0.000 OA
ATOM      8  H   UNL     1       0.708   4.972  17.193  0.00  0.00    +0.000 HD
ENDBRANCH   3   7
BRANCH   4   9
ATOM      9  O   UNL     1       1.596   1.782  18.687  0.00  0.00    +0.000 OA
ATOM     10  H   UNL     1       0.906   2.450  18.859  0.00  0.00    +0.000 HD
ENDBRANCH   4   9
BRANCH   5  11
ATOM     11  O   UNL     1       4.208   0.727  18.496  0.00  0.00    +0.000 OA
ATOM     12  H   UNL     1       4.995   0.696  19.068  0.00  0.00    +0.000 HD
ENDBRANCH   5  11
BRANCH   1  13
ATOM     13  C   UNL     1       5.228   4.907  18.380  0.00  0.00    +0.000 C 
BRANCH  13  14
ATOM     14  C   UNL     1       4.988   6.206  17.601  0.00  0.00    +0.000 C 
BRANCH  14  16
ATOM     15  C   UNL     1       5.364   4.625  15.671  0.00  0.00    +0.000 C 
ATOM     16  C   UNL     1       5.301   6.081  16.110  0.00  0.00    +0.000 C 
ENDBRANCH  14  16
ENDBRANCH  13  14
ENDBRANCH   1  13
TORSDOF 6
ENDMDL
