MODEL 1
REMARK VINA RESULT:      -8.6      0.000      0.000
REMARK  Name = 
REMARK  3 active torsions:
REMARK  status: ('A' for Active; 'I' for Inactive)
REMARK    1  A    between atoms: C_5  and  C_6
REMARK    2  A    between atoms: N_17  and  C_18
REMARK    3  A    between atoms: C_18  and  C_19
REMARK                            x       y       z     vdW  Elec       q    Type
REMARK                         _______ _______ _______ _____ _____    ______ ____
ROOT
ATOM      1  O   UNL     1       5.250   7.001  15.891  0.00  0.00    +0.000 OA
ATOM      2  C   UNL     1       5.985   6.536  16.761  0.00  0.00    +0.000 C 
ATOM      3  C   UNL     1       6.946   7.342  17.450  0.00  0.00    +0.000 A 
ATOM      4  C   UNL     1       7.236   8.685  17.347  0.00  0.00    +0.000 A 
ATOM      5  C   UNL     1       8.278   8.936  18.285  0.00  0.00    +0.000 A 
ATOM      6  N   UNL     1       8.614   7.799  18.917  0.00  0.00    +0.000 NA
ATOM      7  N   UNL     1       7.796   6.873  18.393  0.00  0.00    +0.000 N 
ATOM      8  C   UNL     1       7.843   5.513  18.853  0.00  0.00    +0.000 C 
ATOM      9  C   UNL     1       6.869   4.596  18.112  0.00  0.00    +0.000 C 
ATOM     10  N   UNL     1       5.956   5.196  17.133  0.00  0.00    +0.000 N 
ENDROOT
BRANCH   5  11
ATOM     11  C   UNL     1       8.946  10.208  18.580  0.00  0.00    +0.000 A 
ATOM     12  C   UNL     1       8.845  11.301  17.705  0.00  0.00    +0.000 A 
ATOM     13  C   UNL     1       9.503  12.503  17.983  0.00  0.00    +0.000 A 
ATOM     14  C   UNL     1      10.266  12.624  19.142  0.00  0.00    +0.000 A 
ATOM     15 CL   UNL     1      11.090  14.097  19.472  0.00  0.00    +0.000 Cl
ATOM     16  C   UNL     1      10.369  11.558  20.029  0.00  0.00    +0.000 A 
ATOM     17  C   UNL     1       9.711  10.356  19.749  0.00  0.00    +0.000 A 
ENDBRANCH   5  11
BRANCH  10  18
ATOM     18  C   UNL     1       5.058   4.303  16.410  0.00  0.00    +0.000 C 
BRANCH  18  19
ATOM     19  C   UNL     1       3.867   3.834  17.211  0.00  0.00    +0.000 A 
ATOM     20  C   UNL     1       2.822   4.719  17.519  0.00  0.00    +0.000 A 
ATOM     21  C   UNL     1       1.668   4.263  18.162  0.00  0.00    +0.000 A 
ATOM     22  C   UNL     1       1.550   2.920  18.512  0.00  0.00    +0.000 A 
ATOM     23  C   UNL     1       2.592   2.037  18.242  0.00  0.00    +0.000 A 
ATOM     24  C   UNL     1       3.749   2.492  17.602  0.00  0.00    +0.000 A 
ENDBRANCH  18  19
ENDBRANCH  10  18
TORSDOF 3
ENDMDL
MODEL 2
REMARK VINA RESULT:      -8.5      0.123      1.397
REMARK  Name = 
REMARK  3 active torsions:
REMARK  status: ('A' for Active; 'I' for Inactive)
REMARK    1  A    between atoms: C_5  and  C_6
REMARK    2  A    between atoms: N_17  and  C_18
REMARK    3  A    between atoms: C_18  and  C_19
REMARK                            x       y       z     vdW  Elec       q    Type
REMARK                         _______ _______ _______ _____ _____    ______ ____
ROOT
ATOM      1  O   UNL     1       5.243   7.007  15.880  0.00  0.00    +0.000 OA
ATOM      2  C   UNL     1       5.971   6.525  16.748  0.00  0.00    +0.000 C 
ATOM      3  C   UNL     1       6.935   7.314  17.450  0.00  0.00    +0.000 A 
ATOM      4  C   UNL     1       7.239   8.656  17.364  0.00  0.00    +0.000 A 
ATOM      5  C   UNL     1       8.279   8.887  18.309  0.00  0.00    +0.000 A 
ATOM      6  N   UNL     1       8.602   7.739  18.929  0.00  0.00    +0.000 NA
ATOM      7  N   UNL     1       7.778   6.827  18.391  0.00  0.00    +0.000 N 
ATOM      8  C   UNL     1       7.810   5.461  18.835  0.00  0.00    +0.000 C 
ATOM      9  C   UNL     1       6.832   4.562  18.079  0.00  0.00    +0.000 C 
ATOM     10  N   UNL     1       5.928   5.181  17.103  0.00  0.00    +0.000 N 
ENDROOT
BRANCH   5  11
ATOM     11  C   UNL     1       8.957  10.149  18.621  0.00  0.00    +0.000 A 
ATOM     12  C   UNL     1       9.641  10.325  19.834  0.00  0.00    +0.000 A 
ATOM     13  C   UNL     1      10.266  11.539  20.133  0.00  0.00    +0.000 A 
ATOM     14  C   UNL     1      10.216  12.589  19.219  0.00  0.00    +0.000 A 
ATOM     15 CL   UNL     1      10.969  14.087  19.598  0.00  0.00    +0.000 Cl
ATOM     16  C   UNL     1       9.555  12.432  18.006  0.00  0.00    +0.000 A 
ATOM     17  C   UNL     1       8.929  11.217  17.709  0.00  0.00    +0.000 A 
ENDBRANCH   5  11
BRANCH  10  18
ATOM     18  C   UNL     1       5.025   4.305  16.366  0.00  0.00    +0.000 C 
BRANCH  18  19
ATOM     19  C   UNL     1       3.828   3.835  17.158  0.00  0.00    +0.000 A 
ATOM     20  C   UNL     1       3.730   2.498  17.576  0.00  0.00    +0.000 A 
ATOM     21  C   UNL     1       2.683   2.085  18.403  0.00  0.00    +0.000 A 
ATOM     22  C   UNL     1       1.717   3.001  18.814  0.00  0.00    +0.000 A 
ATOM     23  C   UNL     1       1.784   4.322  18.382  0.00  0.00    +0.000 A 
ATOM     24  C   UNL     1       2.829   4.737  17.551  0.00  0.00    +0.000 A 
ENDBRANCH  18  19
ENDBRANCH  10  18
TORSDOF 3
ENDMDL
MODEL 3
REMARK VINA RESULT:      -7.9      4.876      6.873
REMARK  Name = 
REMARK  3 active torsions:
REMARK  status: ('A' for Active; 'I' for Inactive)
REMARK    1  A    between atoms: C_5  and  C_6
REMARK    2  A    between atoms: N_17  and  C_18
REMARK    3  A    between atoms: C_18  and  C_19
REMARK                            x       y       z     vdW  Elec       q    Type
REMARK                         _______ _______ _______ _____ _____    ______ ____
ROOT
ATOM      1  O   UNL     1       6.188   7.052  16.386  0.00  0.00    +0.000 OA
ATOM      2  C   UNL     1       5.354   6.233  16.771  0.00  0.00    +0.000 C 
ATOM      3  C   UNL     1       4.152   6.633  17.434  0.00  0.00    +0.000 A 
ATOM      4  C   UNL     1       3.667   7.885  17.748  0.00  0.00    +0.000 A 
ATOM      5  C   UNL     1       2.419   7.674  18.399  0.00  0.00    +0.000 A 
ATOM      6  N   UNL     1       2.163   6.357  18.490  0.00  0.00    +0.000 NA
ATOM      7  N   UNL     1       3.217   5.772  17.901  0.00  0.00    +0.000 N 
ATOM      8  C   UNL     1       3.285   4.343  17.780  0.00  0.00    +0.000 C 
ATOM      9  C   UNL     1       4.577   3.858  17.122  0.00  0.00    +0.000 C 
ATOM     10  N   UNL     1       5.516   4.862  16.609  0.00  0.00    +0.000 N 
ENDROOT
BRANCH   5  11
ATOM     11  C   UNL     1       1.490   8.678  18.928  0.00  0.00    +0.000 A 
ATOM     12  C   UNL     1       1.194   8.743  20.299  0.00  0.00    +0.000 A 
ATOM     13  C   UNL     1       0.291   9.690  20.791  0.00  0.00    +0.000 A 
ATOM     14  C   UNL     1      -0.323  10.583  19.916  0.00  0.00    +0.000 A 
ATOM     15 CL   UNL     1      -1.449  11.734  20.522  0.00  0.00    +0.000 Cl
ATOM     16  C   UNL     1      -0.035  10.545  18.556  0.00  0.00    +0.000 A 
ATOM     17  C   UNL     1       0.869   9.597  18.065  0.00  0.00    +0.000 A 
ENDBRANCH   5  11
BRANCH  10  18
ATOM     18  C   UNL     1       6.760   4.383  16.015  0.00  0.00    +0.000 C 
BRANCH  18  19
ATOM     19  C   UNL     1       6.769   4.382  14.504  0.00  0.00    +0.000 A 
ATOM     20  C   UNL     1       7.654   5.211  13.797  0.00  0.00    +0.000 A 
ATOM     21  C   UNL     1       7.745   5.131  12.405  0.00  0.00    +0.000 A 
ATOM     22  C   UNL     1       6.947   4.229  11.704  0.00  0.00    +0.000 A 
ATOM     23  C   UNL     1       6.042   3.424  12.391  0.00  0.00    +0.000 A 
ATOM     24  C   UNL     1       5.946   3.505  13.783  0.00  0.00    +0.000 A 
ENDBRANCH  18  19
ENDBRANCH  10  18
TORSDOF 3
ENDMDL
MODEL 4
REMARK VINA RESULT:      -7.8      5.912      7.743
REMARK  Name = 
REMARK  3 active torsions:
REMARK  status: ('A' for Active; 'I' for Inactive)
REMARK    1  A    between atoms: C_5  and  C_6
REMARK    2  A    between atoms: N_17  and  C_18
REMARK    3  A    between atoms: C_18  and  C_19
REMARK                            x       y       z     vdW  Elec       q    Type
REMARK                         _______ _______ _______ _____ _____    ______ ____
ROOT
ATOM      1  O   UNL     1       2.312   5.072  20.974  0.00  0.00    +0.000 OA
ATOM      2  C   UNL     1       2.471   5.911  20.087  0.00  0.00    +0.000 C 
ATOM      3  C   UNL     1       1.849   7.197  20.142  0.00  0.00    +0.000 A 
ATOM      4  C   UNL     1       1.035   7.766  21.098  0.00  0.00    +0.000 A 
ATOM      5  C   UNL     1       0.722   9.072  20.624  0.00  0.00    +0.000 A 
ATOM      6  N   UNL     1       1.305   9.282  19.431  0.00  0.00    +0.000 NA
ATOM      7  N   UNL     1       1.969   8.143  19.181  0.00  0.00    +0.000 N 
ATOM      8  C   UNL     1       2.751   8.002  17.985  0.00  0.00    +0.000 C 
ATOM      9  C   UNL     1       3.399   6.623  17.851  0.00  0.00    +0.000 C 
ATOM     10  N   UNL     1       3.250   5.674  18.959  0.00  0.00    +0.000 N 
ENDROOT
BRANCH   5  11
ATOM     11  C   UNL     1      -0.106  10.097  21.268  0.00  0.00    +0.000 A 
ATOM     12  C   UNL     1      -0.475   9.989  22.618  0.00  0.00    +0.000 A 
ATOM     13  C   UNL     1      -1.283  10.959  23.218  0.00  0.00    +0.000 A 
ATOM     14  C   UNL     1      -1.726  12.050  22.474  0.00  0.00    +0.000 A 
ATOM     15 CL   UNL     1      -2.735  13.232  23.209  0.00  0.00    +0.000 Cl
ATOM     16  C   UNL     1      -1.362  12.183  21.138  0.00  0.00    +0.000 A 
ATOM     17  C   UNL     1      -0.554  11.211  20.540  0.00  0.00    +0.000 A 
ENDBRANCH   5  11
BRANCH  10  18
ATOM     18  C   UNL     1       3.844   4.351  18.802  0.00  0.00    +0.000 C 
BRANCH  18  19
ATOM     19  C   UNL     1       5.003   4.300  17.834  0.00  0.00    +0.000 A 
ATOM     20  C   UNL     1       4.794   3.954  16.490  0.00  0.00    +0.000 A 
ATOM     21  C   UNL     1       5.842   4.014  15.568  0.00  0.00    +0.000 A 
ATOM     22  C   UNL     1       7.112   4.412  15.980  0.00  0.00    +0.000 A 
ATOM     23  C   UNL     1       7.340   4.727  17.317  0.00  0.00    +0.000 A 
ATOM     24  C   UNL     1       6.294   4.664  18.242  0.00  0.00    +0.000 A 
ENDBRANCH  18  19
ENDBRANCH  10  18
TORSDOF 3
ENDMDL
MODEL 5
REMARK VINA RESULT:      -7.6      5.983      7.722
REMARK  Name = 
REMARK  3 active torsions:
REMARK  status: ('A' for Active; 'I' for Inactive)
REMARK    1  A    between atoms: C_5  and  C_6
REMARK    2  A    between atoms: N_17  and  C_18
REMARK    3  A    between atoms: C_18  and  C_19
REMARK                            x       y       z     vdW  Elec       q    Type
REMARK                         _______ _______ _______ _____ _____    ______ ____
ROOT
ATOM      1  O   UNL     1       2.305   5.239  20.914  0.00  0.00    +0.000 OA
ATOM      2  C   UNL     1       2.450   6.086  20.033  0.00  0.00    +0.000 C 
ATOM      3  C   UNL     1       1.808   7.363  20.099  0.00  0.00    +0.000 A 
ATOM      4  C   UNL     1       0.988   7.913  21.060  0.00  0.00    +0.000 A 
ATOM      5  C   UNL     1       0.654   9.217  20.596  0.00  0.00    +0.000 A 
ATOM      6  N   UNL     1       1.232   9.444  19.404  0.00  0.00    +0.000 NA
ATOM      7  N   UNL     1       1.912   8.317  19.144  0.00  0.00    +0.000 N 
ATOM      8  C   UNL     1       2.694   8.196  17.945  0.00  0.00    +0.000 C 
ATOM      9  C   UNL     1       3.362   6.829  17.800  0.00  0.00    +0.000 C 
ATOM     10  N   UNL     1       3.229   5.869  18.902  0.00  0.00    +0.000 N 
ENDROOT
BRANCH   5  11
ATOM     11  C   UNL     1      -0.188  10.225  21.249  0.00  0.00    +0.000 A 
ATOM     12  C   UNL     1      -0.641  11.355  20.551  0.00  0.00    +0.000 A 
ATOM     13  C   UNL     1      -1.425  12.322  21.187  0.00  0.00    +0.000 A 
ATOM     14  C   UNL     1      -1.766  12.165  22.529  0.00  0.00    +0.000 A 
ATOM     15 CL   UNL     1      -2.715  13.365  23.314  0.00  0.00    +0.000 Cl
ATOM     16  C   UNL     1      -1.339  11.046  23.236  0.00  0.00    +0.000 A 
ATOM     17  C   UNL     1      -0.554  10.080  22.598  0.00  0.00    +0.000 A 
ENDBRANCH   5  11
BRANCH  10  18
ATOM     18  C   UNL     1       3.843   4.556  18.734  0.00  0.00    +0.000 C 
BRANCH  18  19
ATOM     19  C   UNL     1       4.980   4.523  17.739  0.00  0.00    +0.000 A 
ATOM     20  C   UNL     1       6.289   4.830  18.143  0.00  0.00    +0.000 A 
ATOM     21  C   UNL     1       7.358   4.691  17.255  0.00  0.00    +0.000 A 
ATOM     22  C   UNL     1       7.131   4.253  15.952  0.00  0.00    +0.000 A 
ATOM     23  C   UNL     1       5.834   3.975  15.529  0.00  0.00    +0.000 A 
ATOM     24  C   UNL     1       4.762   4.117  16.415  0.00  0.00    +0.000 A 
ENDBRANCH  18  19
ENDBRANCH  10  18
TORSDOF 3
ENDMDL
MODEL 6
REMARK VINA RESULT:      -7.6      6.054      7.991
REMARK  Name = 
REMARK  3 active torsions:
REMARK  status: ('A' for Active; 'I' for Inactive)
REMARK    1  A    between atoms: C_5  and  C_6
REMARK    2  A    between atoms: N_17  and  C_18
REMARK    3  A    between atoms: C_18  and  C_19
REMARK                            x       y       z     vdW  Elec       q    Type
REMARK                         _______ _______ _______ _____ _____    ______ ____
ROOT
ATOM      1  O   UNL     1       2.973   8.262  17.361  0.00  0.00    +0.000 OA
ATOM      2  C   UNL     1       2.659   7.596  18.346  0.00  0.00    +0.000 C 
ATOM      3  C   UNL     1       1.810   8.117  19.373  0.00  0.00    +0.000 A 
ATOM      4  C   UNL     1       1.183   9.339  19.491  0.00  0.00    +0.000 A 
ATOM      5  C   UNL     1       0.461   9.295  20.717  0.00  0.00    +0.000 A 
ATOM      6  N   UNL     1       0.651   8.110  21.323  0.00  0.00    +0.000 NA
ATOM      7  N   UNL     1       1.458   7.436  20.488  0.00  0.00    +0.000 N 
ATOM      8  C   UNL     1       1.864   6.092  20.791  0.00  0.00    +0.000 C 
ATOM      9  C   UNL     1       2.815   5.504  19.750  0.00  0.00    +0.000 C 
ATOM     10  N   UNL     1       3.111   6.297  18.551  0.00  0.00    +0.000 N 
ENDROOT
BRANCH   5  11
ATOM     11  C   UNL     1      -0.383  10.337  21.311  0.00  0.00    +0.000 A 
ATOM     12  C   UNL     1      -0.714  10.313  22.675  0.00  0.00    +0.000 A 
ATOM     13  C   UNL     1      -1.537  11.299  23.229  0.00  0.00    +0.000 A 
ATOM     14  C   UNL     1      -2.034  12.321  22.423  0.00  0.00    +0.000 A 
ATOM     15 CL   UNL     1      -3.061  13.521  23.102  0.00  0.00    +0.000 Cl
ATOM     16  C   UNL     1      -1.707  12.371  21.072  0.00  0.00    +0.000 A 
ATOM     17  C   UNL     1      -0.885  11.384  20.520  0.00  0.00    +0.000 A 
ENDBRANCH   5  11
BRANCH  10  18
ATOM     18  C   UNL     1       4.048   5.736  17.584  0.00  0.00    +0.000 C 
BRANCH  18  19
ATOM     19  C   UNL     1       5.501   6.008  17.893  0.00  0.00    +0.000 A 
ATOM     20  C   UNL     1       6.216   6.972  17.165  0.00  0.00    +0.000 A 
ATOM     21  C   UNL     1       7.525   7.306  17.520  0.00  0.00    +0.000 A 
ATOM     22  C   UNL     1       8.137   6.675  18.601  0.00  0.00    +0.000 A 
ATOM     23  C   UNL     1       7.451   5.694  19.312  0.00  0.00    +0.000 A 
ATOM     24  C   UNL     1       6.142   5.355  18.955  0.00  0.00    +0.000 A 
ENDBRANCH  18  19
ENDBRANCH  10  18
TORSDOF 3
ENDMDL
MODEL 7
REMARK VINA RESULT:      -7.6      6.121      7.669
REMARK  Name = 
REMARK  3 active torsions:
REMARK  status: ('A' for Active; 'I' for Inactive)
REMARK    1  A    between atoms: C_5  and  C_6
REMARK    2  A    between atoms: N_17  and  C_18
REMARK    3  A    between atoms: C_18  and  C_19
REMARK                            x       y       z     vdW  Elec       q    Type
REMARK                         _______ _______ _______ _____ _____    ______ ____
ROOT
ATOM      1  O   UNL     1       2.241   5.464  20.858  0.00  0.00    +0.000 OA
ATOM      2  C   UNL     1       2.338   6.317  19.977  0.00  0.00    +0.000 C 
ATOM      3  C   UNL     1       1.779   7.625  20.125  0.00  0.00    +0.000 A 
ATOM      4  C   UNL     1       1.097   8.202  21.175  0.00  0.00    +0.000 A 
ATOM      5  C   UNL     1       0.789   9.529  20.764  0.00  0.00    +0.000 A 
ATOM      6  N   UNL     1       1.248   9.746  19.519  0.00  0.00    +0.000 NA
ATOM      7  N   UNL     1       1.834   8.588  19.176  0.00  0.00    +0.000 N 
ATOM      8  C   UNL     1       2.476   8.446  17.899  0.00  0.00    +0.000 C 
ATOM      9  C   UNL     1       3.048   7.048  17.668  0.00  0.00    +0.000 C 
ATOM     10  N   UNL     1       2.980   6.078  18.767  0.00  0.00    +0.000 N 
ENDROOT
BRANCH   5  11
ATOM     11  C   UNL     1       0.078  10.570  21.515  0.00  0.00    +0.000 A 
ATOM     12  C   UNL     1      -0.802  10.239  22.557  0.00  0.00    +0.000 A 
ATOM     13  C   UNL     1      -1.492  11.237  23.253  0.00  0.00    +0.000 A 
ATOM     14  C   UNL     1      -1.305  12.575  22.916  0.00  0.00    +0.000 A 
ATOM     15 CL   UNL     1      -2.169  13.798  23.760  0.00  0.00    +0.000 Cl
ATOM     16  C   UNL     1      -0.427  12.925  21.895  0.00  0.00    +0.000 A 
ATOM     17  C   UNL     1       0.261  11.926  21.199  0.00  0.00    +0.000 A 
ENDBRANCH   5  11
BRANCH  10  18
ATOM     18  C   UNL     1       3.499   4.737  18.519  0.00  0.00    +0.000 C 
BRANCH  18  19
ATOM     19  C   UNL     1       4.835   4.706  17.814  0.00  0.00    +0.000 A 
ATOM     20  C   UNL     1       6.003   5.099  18.485  0.00  0.00    +0.000 A 
ATOM     21  C   UNL     1       7.253   4.965  17.875  0.00  0.00    +0.000 A 
ATOM     22  C   UNL     1       7.348   4.447  16.585  0.00  0.00    +0.000 A 
ATOM     23  C   UNL     1       6.194   4.084  15.896  0.00  0.00    +0.000 A 
ATOM     24  C   UNL     1       4.942   4.220  16.503  0.00  0.00    +0.000 A 
ENDBRANCH  18  19
ENDBRANCH  10  18
TORSDOF 3
ENDMDL
MODEL 8
REMARK VINA RESULT:      -7.6      4.826      6.788
REMARK  Name = 
REMARK  3 active torsions:
REMARK  status: ('A' for Active; 'I' for Inactive)
REMARK    1  A    between atoms: C_5  and  C_6
REMARK    2  A    between atoms: N_17  and  C_18
REMARK    3  A    between atoms: C_18  and  C_19
REMARK                            x       y       z     vdW  Elec       q    Type
REMARK                         _______ _______ _______ _____ _____    ______ ____
ROOT
ATOM      1  O   UNL     1       6.234   7.185  16.295  0.00  0.00    +0.000 OA
ATOM      2  C   UNL     1       5.466   6.338  16.751  0.00  0.00    +0.000 C 
ATOM      3  C   UNL     1       4.256   6.699  17.425  0.00  0.00    +0.000 A 
ATOM      4  C   UNL     1       3.698   7.933  17.678  0.00  0.00    +0.000 A 
ATOM      5  C   UNL     1       2.483   7.680  18.376  0.00  0.00    +0.000 A 
ATOM      6  N   UNL     1       2.317   6.358  18.552  0.00  0.00    +0.000 NA
ATOM      7  N   UNL     1       3.394   5.808  17.968  0.00  0.00    +0.000 N 
ATOM      8  C   UNL     1       3.555   4.381  17.929  0.00  0.00    +0.000 C 
ATOM      9  C   UNL     1       4.859   3.943  17.264  0.00  0.00    +0.000 C 
ATOM     10  N   UNL     1       5.716   4.973  16.666  0.00  0.00    +0.000 N 
ENDROOT
BRANCH   5  11
ATOM     11  C   UNL     1       1.502   8.652  18.871  0.00  0.00    +0.000 A 
ATOM     12  C   UNL     1       0.854   9.538  17.998  0.00  0.00    +0.000 A 
ATOM     13  C   UNL     1      -0.063  10.476  18.481  0.00  0.00    +0.000 A 
ATOM     14  C   UNL     1      -0.344  10.533  19.844  0.00  0.00    +0.000 A 
ATOM     15 CL   UNL     1      -1.459  11.700  20.439  0.00  0.00    +0.000 Cl
ATOM     16  C   UNL     1       0.276   9.654  20.726  0.00  0.00    +0.000 A 
ATOM     17  C   UNL     1       1.194   8.718  20.241  0.00  0.00    +0.000 A 
ENDBRANCH   5  11
BRANCH  10  18
ATOM     18  C   UNL     1       6.974   4.542  16.066  0.00  0.00    +0.000 C 
BRANCH  18  19
ATOM     19  C   UNL     1       6.928   4.392  14.563  0.00  0.00    +0.000 A 
ATOM     20  C   UNL     1       6.003   3.525  13.962  0.00  0.00    +0.000 A 
ATOM     21  C   UNL     1       5.881   3.468  12.571  0.00  0.00    +0.000 A 
ATOM     22  C   UNL     1       6.688   4.269  11.766  0.00  0.00    +0.000 A 
ATOM     23  C   UNL     1       7.633   5.110  12.349  0.00  0.00    +0.000 A 
ATOM     24  C   UNL     1       7.759   5.166  13.741  0.00  0.00    +0.000 A 
ENDBRANCH  18  19
ENDBRANCH  10  18
TORSDOF 3
ENDMDL
MODEL 9
REMARK VINA RESULT:      -7.6      6.144      7.943
REMARK  Name = 
REMARK  3 active torsions:
REMARK  status: ('A' for Active; 'I' for Inactive)
REMARK    1  A    between atoms: C_5  and  C_6
REMARK    2  A    between atoms: N_17  and  C_18
REMARK    3  A    between atoms: C_18  and  C_19
REMARK                            x       y       z     vdW  Elec       q    Type
REMARK                         _______ _______ _______ _____ _____    ______ ____
ROOT
ATOM      1  O   UNL     1       2.837   8.409  17.277  0.00  0.00    +0.000 OA
ATOM      2  C   UNL     1       2.550   7.760  18.282  0.00  0.00    +0.000 C 
ATOM      3  C   UNL     1       1.722   8.296  19.318  0.00  0.00    +0.000 A 
ATOM      4  C   UNL     1       1.089   9.516  19.427  0.00  0.00    +0.000 A 
ATOM      5  C   UNL     1       0.396   9.491  20.671  0.00  0.00    +0.000 A 
ATOM      6  N   UNL     1       0.609   8.319  21.294  0.00  0.00    +0.000 NA
ATOM      7  N   UNL     1       1.401   7.635  20.455  0.00  0.00    +0.000 N 
ATOM      8  C   UNL     1       1.824   6.300  20.774  0.00  0.00    +0.000 C 
ATOM      9  C   UNL     1       2.754   5.697  19.722  0.00  0.00    +0.000 C 
ATOM     10  N   UNL     1       3.017   6.468  18.501  0.00  0.00    +0.000 N 
ENDROOT
BRANCH   5  11
ATOM     11  C   UNL     1      -0.441  10.539  21.264  0.00  0.00    +0.000 A 
ATOM     12  C   UNL     1      -0.948  11.591  20.485  0.00  0.00    +0.000 A 
ATOM     13  C   UNL     1      -1.727  12.598  21.064  0.00  0.00    +0.000 A 
ATOM     14  C   UNL     1      -2.009  12.559  22.427  0.00  0.00    +0.000 A 
ATOM     15 CL   UNL     1      -2.952  13.809  23.139  0.00  0.00    +0.000 Cl
ATOM     16  C   UNL     1      -1.528  11.518  23.215  0.00  0.00    +0.000 A 
ATOM     17  C   UNL     1      -0.748  10.513  22.635  0.00  0.00    +0.000 A 
ENDBRANCH   5  11
BRANCH  10  18
ATOM     18  C   UNL     1       3.934   5.895  17.523  0.00  0.00    +0.000 C 
BRANCH  18  19
ATOM     19  C   UNL     1       5.396   6.098  17.846  0.00  0.00    +0.000 A 
ATOM     20  C   UNL     1       6.150   7.063  17.159  0.00  0.00    +0.000 A 
ATOM     21  C   UNL     1       7.470   7.331  17.530  0.00  0.00    +0.000 A 
ATOM     22  C   UNL     1       8.053   6.633  18.585  0.00  0.00    +0.000 A 
ATOM     23  C   UNL     1       7.328   5.651  19.254  0.00  0.00    +0.000 A 
ATOM     24  C   UNL     1       6.008   5.378  18.881  0.00  0.00    +0.000 A 
ENDBRANCH  18  19
ENDBRANCH  10  18
TORSDOF 3
ENDMDL
