MODEL 1
REMARK VINA RESULT:      -7.0      0.000      0.000
REMARK  Name = 
REMARK  4 active torsions:
REMARK  status: ('A' for Active; 'I' for Inactive)
REMARK    1  A    between atoms: N_1  and  C_2
REMARK    2  A    between atoms: N_10  and  C_11
REMARK    3  A    between atoms: C_11  and  C_12
REMARK    4  A    between atoms: C_12  and  C_14
REMARK                            x       y       z     vdW  Elec       q    Type
REMARK                         _______ _______ _______ _____ _____    ______ ____
ROOT
ATOM      1  C   UNL     1       7.083   5.030  14.797  0.00  0.00    +0.000 A 
ATOM      2  N   UNL     1       6.445   3.885  14.463  0.00  0.00    +0.000 NA
ATOM      3  C   UNL     1       5.542   3.377  15.332  0.00  0.00    +0.000 A 
ATOM      4  N   UNL     1       5.158   3.871  16.528  0.00  0.00    +0.000 NA
ATOM      5  C   UNL     1       5.801   5.019  16.796  0.00  0.00    +0.000 A 
ATOM      6  C   UNL     1       6.754   5.651  16.013  0.00  0.00    +0.000 A 
ATOM      7  N   UNL     1       7.201   6.807  16.623  0.00  0.00    +0.000 NA
ATOM      8  C   UNL     1       6.536   6.867  17.757  0.00  0.00    +0.000 A 
ATOM      9  N   UNL     1       5.679   5.809  17.906  0.00  0.00    +0.000 N 
ENDROOT
BRANCH   1  10
ATOM     10  N   UNL     1       8.023   5.539  13.910  0.00  0.00    +0.000 N 
ATOM     11  H   UNL     1       7.601   6.151  13.224  0.00  0.00    +0.000 HD
ATOM     12  H   UNL     1       8.869   5.860  14.369  0.00  0.00    +0.000 HD
ENDBRANCH   1  10
BRANCH   9  13
ATOM     13  C   UNL     1       4.891   5.497  19.085  0.00  0.00    +0.000 C 
BRANCH  13  14
ATOM     14  C   UNL     1       3.432   5.886  18.969  0.00  0.00    +0.000 C 
ATOM     15  O   UNL     1       3.042   7.043  18.828  0.00  0.00    +0.000 OA
BRANCH  14  16
ATOM     16  C   UNL     1       2.424   4.802  19.100  0.00  0.00    +0.000 A 
ATOM     17  C   UNL     1       1.959   4.436  20.365  0.00  0.00    +0.000 A 
ATOM     18  C   UNL     1       1.081   3.362  20.491  0.00  0.00    +0.000 A 
ATOM     19  C   UNL     1       0.684   2.698  19.341  0.00  0.00    +0.000 A 
ATOM     20  N   UNL     1       1.089   3.047  18.100  0.00  0.00    +0.000 NA
ATOM     21  C   UNL     1       1.943   4.094  18.005  0.00  0.00    +0.000 A 
ENDBRANCH  14  16
ENDBRANCH  13  14
ENDBRANCH   9  13
TORSDOF 4
ENDMDL
MODEL 2
REMARK VINA RESULT:      -7.0      2.638      6.257
REMARK  Name = 
REMARK  4 active torsions:
REMARK  status: ('A' for Active; 'I' for Inactive)
REMARK    1  A    between atoms: N_1  and  C_2
REMARK    2  A    between atoms: N_10  and  C_11
REMARK    3  A    between atoms: C_11  and  C_12
REMARK    4  A    between atoms: C_12  and  C_14
REMARK                            x       y       z     vdW  Elec       q    Type
REMARK                         _______ _______ _______ _____ _____    ______ ____
ROOT
ATOM      1  C   UNL     1       2.288   3.653  20.923  0.00  0.00    +0.000 A 
ATOM      2  N   UNL     1       1.934   4.947  21.088  0.00  0.00    +0.000 NA
ATOM      3  C   UNL     1       2.158   5.808  20.069  0.00  0.00    +0.000 A 
ATOM      4  N   UNL     1       2.693   5.553  18.857  0.00  0.00    +0.000 NA
ATOM      5  C   UNL     1       3.001   4.251  18.738  0.00  0.00    +0.000 A 
ATOM      6  C   UNL     1       2.841   3.259  19.693  0.00  0.00    +0.000 A 
ATOM      7  N   UNL     1       3.282   2.041  19.213  0.00  0.00    +0.000 NA
ATOM      8  C   UNL     1       3.707   2.294  17.994  0.00  0.00    +0.000 A 
ATOM      9  N   UNL     1       3.558   3.616  17.663  0.00  0.00    +0.000 N 
ENDROOT
BRANCH   1  10
ATOM     10  N   UNL     1       2.073   2.775  21.978  0.00  0.00    +0.000 N 
ATOM     11  H   UNL     1       2.939   2.381  22.323  0.00  0.00    +0.000 HD
ATOM     12  H   UNL     1       1.413   3.129  22.662  0.00  0.00    +0.000 HD
ENDBRANCH   1  10
BRANCH   9  13
ATOM     13  C   UNL     1       4.035   4.260  16.453  0.00  0.00    +0.000 C 
BRANCH  13  14
ATOM     14  C   UNL     1       5.538   4.206  16.279  0.00  0.00    +0.000 C 
ATOM     15  O   UNL     1       6.109   3.451  15.496  0.00  0.00    +0.000 OA
BRANCH  14  16
ATOM     16  C   UNL     1       6.359   5.078  17.160  0.00  0.00    +0.000 A 
ATOM     17  C   UNL     1       6.607   6.402  16.790  0.00  0.00    +0.000 A 
ATOM     18  C   UNL     1       7.448   7.189  17.573  0.00  0.00    +0.000 A 
ATOM     19  C   UNL     1       8.003   6.627  18.712  0.00  0.00    +0.000 A 
ATOM     20  N   UNL     1       7.758   5.361  19.115  0.00  0.00    +0.000 NA
ATOM     21  C   UNL     1       6.937   4.617  18.337  0.00  0.00    +0.000 A 
ENDBRANCH  14  16
ENDBRANCH  13  14
ENDBRANCH   9  13
TORSDOF 4
ENDMDL
MODEL 3
REMARK VINA RESULT:      -7.0      2.119      3.123
REMARK  Name = 
REMARK  4 active torsions:
REMARK  status: ('A' for Active; 'I' for Inactive)
REMARK    1  A    between atoms: N_1  and  C_2
REMARK    2  A    between atoms: N_10  and  C_11
REMARK    3  A    between atoms: C_11  and  C_12
REMARK    4  A    between atoms: C_12  and  C_14
REMARK                            x       y       z     vdW  Elec       q    Type
REMARK                         _______ _______ _______ _____ _____    ______ ____
ROOT
ATOM      1  C   UNL     1       7.520   7.096  17.707  0.00  0.00    +0.000 A 
ATOM      2  N   UNL     1       8.042   6.675  18.882  0.00  0.00    +0.000 NA
ATOM      3  C   UNL     1       7.584   5.517  19.408  0.00  0.00    +0.000 A 
ATOM      4  N   UNL     1       6.653   4.678  18.908  0.00  0.00    +0.000 NA
ATOM      5  C   UNL     1       6.189   5.129  17.732  0.00  0.00    +0.000 A 
ATOM      6  C   UNL     1       6.552   6.296  17.077  0.00  0.00    +0.000 A 
ATOM      7  N   UNL     1       5.852   6.432  15.894  0.00  0.00    +0.000 NA
ATOM      8  C   UNL     1       5.075   5.372  15.839  0.00  0.00    +0.000 A 
ATOM      9  N   UNL     1       5.243   4.556  16.928  0.00  0.00    +0.000 N 
ENDROOT
BRANCH   1  10
ATOM     10  N   UNL     1       7.980   8.295  17.177  0.00  0.00    +0.000 N 
ATOM     11  H   UNL     1       7.576   9.094  17.647  0.00  0.00    +0.000 HD
ATOM     12  H   UNL     1       8.981   8.300  17.017  0.00  0.00    +0.000 HD
ENDBRANCH   1  10
BRANCH   9  13
ATOM     13  C   UNL     1       4.462   3.375  17.249  0.00  0.00    +0.000 C 
BRANCH  13  14
ATOM     14  C   UNL     1       2.992   3.655  17.477  0.00  0.00    +0.000 C 
ATOM     15  O   UNL     1       2.096   3.257  16.735  0.00  0.00    +0.000 OA
BRANCH  14  16
ATOM     16  C   UNL     1       2.632   4.516  18.634  0.00  0.00    +0.000 A 
ATOM     17  C   UNL     1       2.227   3.929  19.836  0.00  0.00    +0.000 A 
ATOM     18  C   UNL     1       1.807   4.739  20.889  0.00  0.00    +0.000 A 
ATOM     19  C   UNL     1       1.820   6.112  20.709  0.00  0.00    +0.000 A 
ATOM     20  N   UNL     1       2.237   6.712  19.571  0.00  0.00    +0.000 NA
ATOM     21  C   UNL     1       2.640   5.904  18.563  0.00  0.00    +0.000 A 
ENDBRANCH  14  16
ENDBRANCH  13  14
ENDBRANCH   9  13
TORSDOF 4
ENDMDL
MODEL 4
REMARK VINA RESULT:      -6.9      2.068      3.000
REMARK  Name = 
REMARK  4 active torsions:
REMARK  status: ('A' for Active; 'I' for Inactive)
REMARK    1  A    between atoms: N_1  and  C_2
REMARK    2  A    between atoms: N_10  and  C_11
REMARK    3  A    between atoms: C_11  and  C_12
REMARK    4  A    between atoms: C_12  and  C_14
REMARK                            x       y       z     vdW  Elec       q    Type
REMARK                         _______ _______ _______ _____ _____    ______ ____
ROOT
ATOM      1  C   UNL     1       7.374   7.033  17.714  0.00  0.00    +0.000 A 
ATOM      2  N   UNL     1       7.964   6.625  18.860  0.00  0.00    +0.000 NA
ATOM      3  C   UNL     1       7.581   5.444  19.393  0.00  0.00    +0.000 A 
ATOM      4  N   UNL     1       6.667   4.569  18.925  0.00  0.00    +0.000 NA
ATOM      5  C   UNL     1       6.134   5.009  17.774  0.00  0.00    +0.000 A 
ATOM      6  C   UNL     1       6.416   6.196  17.118  0.00  0.00    +0.000 A 
ATOM      7  N   UNL     1       5.660   6.312  15.967  0.00  0.00    +0.000 NA
ATOM      8  C   UNL     1       4.929   5.218  15.934  0.00  0.00    +0.000 A 
ATOM      9  N   UNL     1       5.180   4.401  17.005  0.00  0.00    +0.000 N 
ENDROOT
BRANCH   1  10
ATOM     10  N   UNL     1       7.757   8.257  17.178  0.00  0.00    +0.000 N 
ATOM     11  H   UNL     1       7.518   9.027  17.788  0.00  0.00    +0.000 HD
ATOM     12  H   UNL     1       8.691   8.242  16.783  0.00  0.00    +0.000 HD
ENDBRANCH   1  10
BRANCH   9  13
ATOM     13  C   UNL     1       4.466   3.184  17.347  0.00  0.00    +0.000 C 
BRANCH  13  14
ATOM     14  C   UNL     1       2.991   3.392  17.617  0.00  0.00    +0.000 C 
ATOM     15  O   UNL     1       2.178   3.720  16.756  0.00  0.00    +0.000 OA
BRANCH  14  16
ATOM     16  C   UNL     1       2.527   3.251  19.022  0.00  0.00    +0.000 A 
ATOM     17  C   UNL     1       3.428   2.853  20.013  0.00  0.00    +0.000 A 
ATOM     18  C   UNL     1       2.971   2.637  21.311  0.00  0.00    +0.000 A 
ATOM     19  C   UNL     1       1.627   2.841  21.578  0.00  0.00    +0.000 A 
ATOM     20  N   UNL     1       0.736   3.257  20.650  0.00  0.00    +0.000 NA
ATOM     21  C   UNL     1       1.205   3.460  19.396  0.00  0.00    +0.000 A 
ENDBRANCH  14  16
ENDBRANCH  13  14
ENDBRANCH   9  13
TORSDOF 4
ENDMDL
MODEL 5
REMARK VINA RESULT:      -6.9      2.449      6.250
REMARK  Name = 
REMARK  4 active torsions:
REMARK  status: ('A' for Active; 'I' for Inactive)
REMARK    1  A    between atoms: N_1  and  C_2
REMARK    2  A    between atoms: N_10  and  C_11
REMARK    3  A    between atoms: C_11  and  C_12
REMARK    4  A    between atoms: C_12  and  C_14
REMARK                            x       y       z     vdW  Elec       q    Type
REMARK                         _______ _______ _______ _____ _____    ______ ____
ROOT
ATOM      1  C   UNL     1       2.364   3.499  20.945  0.00  0.00    +0.000 A 
ATOM      2  N   UNL     1       2.017   4.785  21.180  0.00  0.00    +0.000 NA
ATOM      3  C   UNL     1       2.234   5.695  20.205  0.00  0.00    +0.000 A 
ATOM      4  N   UNL     1       2.757   5.501  18.976  0.00  0.00    +0.000 NA
ATOM      5  C   UNL     1       3.058   4.206  18.787  0.00  0.00    +0.000 A 
ATOM      6  C   UNL     1       2.904   3.167  19.691  0.00  0.00    +0.000 A 
ATOM      7  N   UNL     1       3.336   1.974  19.145  0.00  0.00    +0.000 NA
ATOM      8  C   UNL     1       3.750   2.288  17.937  0.00  0.00    +0.000 A 
ATOM      9  N   UNL     1       3.603   3.625  17.676  0.00  0.00    +0.000 N 
ENDROOT
BRANCH   1  10
ATOM     10  N   UNL     1       2.157   2.568  21.956  0.00  0.00    +0.000 N 
ATOM     11  H   UNL     1       2.416   1.635  21.668  0.00  0.00    +0.000 HD
ATOM     12  H   UNL     1       2.481   2.888  22.863  0.00  0.00    +0.000 HD
ENDBRANCH   1  10
BRANCH   9  13
ATOM     13  C   UNL     1       4.070   4.330  16.495  0.00  0.00    +0.000 C 
BRANCH  13  14
ATOM     14  C   UNL     1       5.562   4.215  16.262  0.00  0.00    +0.000 C 
ATOM     15  O   UNL     1       6.080   3.353  15.555  0.00  0.00    +0.000 OA
BRANCH  14  16
ATOM     16  C   UNL     1       6.441   5.168  16.988  0.00  0.00    +0.000 A 
ATOM     17  C   UNL     1       7.023   4.790  18.201  0.00  0.00    +0.000 A 
ATOM     18  C   UNL     1       7.775   5.715  18.922  0.00  0.00    +0.000 A 
ATOM     19  C   UNL     1       7.933   6.987  18.395  0.00  0.00    +0.000 A 
ATOM     20  N   UNL     1       7.412   7.375  17.210  0.00  0.00    +0.000 NA
ATOM     21  C   UNL     1       6.685   6.457  16.529  0.00  0.00    +0.000 A 
ENDBRANCH  14  16
ENDBRANCH  13  14
ENDBRANCH   9  13
TORSDOF 4
ENDMDL
MODEL 6
REMARK VINA RESULT:      -6.9      0.810      1.178
REMARK  Name = 
REMARK  4 active torsions:
REMARK  status: ('A' for Active; 'I' for Inactive)
REMARK    1  A    between atoms: N_1  and  C_2
REMARK    2  A    between atoms: N_10  and  C_11
REMARK    3  A    between atoms: C_11  and  C_12
REMARK    4  A    between atoms: C_12  and  C_14
REMARK                            x       y       z     vdW  Elec       q    Type
REMARK                         _______ _______ _______ _____ _____    ______ ____
ROOT
ATOM      1  C   UNL     1       7.132   4.998  14.733  0.00  0.00    +0.000 A 
ATOM      2  N   UNL     1       6.398   3.921  14.373  0.00  0.00    +0.000 NA
ATOM      3  C   UNL     1       5.507   3.426  15.261  0.00  0.00    +0.000 A 
ATOM      4  N   UNL     1       5.220   3.875  16.501  0.00  0.00    +0.000 NA
ATOM      5  C   UNL     1       5.956   4.959  16.796  0.00  0.00    +0.000 A 
ATOM      6  C   UNL     1       6.911   5.568  15.998  0.00  0.00    +0.000 A 
ATOM      7  N   UNL     1       7.471   6.653  16.644  0.00  0.00    +0.000 NA
ATOM      8  C   UNL     1       6.870   6.694  17.815  0.00  0.00    +0.000 A 
ATOM      9  N   UNL     1       5.948   5.689  17.952  0.00  0.00    +0.000 N 
ENDROOT
BRANCH   1  10
ATOM     10  N   UNL     1       8.061   5.492  13.825  0.00  0.00    +0.000 N 
ATOM     11  H   UNL     1       7.961   5.065  12.914  0.00  0.00    +0.000 HD
ATOM     12  H   UNL     1       8.155   6.501  13.864  0.00  0.00    +0.000 HD
ENDBRANCH   1  10
BRANCH   9  13
ATOM     13  C   UNL     1       5.200   5.364  19.153  0.00  0.00    +0.000 C 
BRANCH  13  14
ATOM     14  C   UNL     1       3.728   5.709  19.073  0.00  0.00    +0.000 C 
ATOM     15  O   UNL     1       3.302   6.819  18.760  0.00  0.00    +0.000 OA
BRANCH  14  16
ATOM     16  C   UNL     1       2.757   4.653  19.459  0.00  0.00    +0.000 A 
ATOM     17  C   UNL     1       2.116   3.904  18.469  0.00  0.00    +0.000 A 
ATOM     18  C   UNL     1       1.142   2.975  18.831  0.00  0.00    +0.000 A 
ATOM     19  C   UNL     1       0.853   2.816  20.176  0.00  0.00    +0.000 A 
ATOM     20  N   UNL     1       1.477   3.501  21.161  0.00  0.00    +0.000 NA
ATOM     21  C   UNL     1       2.419   4.397  20.783  0.00  0.00    +0.000 A 
ENDBRANCH  14  16
ENDBRANCH  13  14
ENDBRANCH   9  13
TORSDOF 4
ENDMDL
MODEL 7
REMARK VINA RESULT:      -6.9      1.843      2.766
REMARK  Name = 
REMARK  4 active torsions:
REMARK  status: ('A' for Active; 'I' for Inactive)
REMARK    1  A    between atoms: N_1  and  C_2
REMARK    2  A    between atoms: N_10  and  C_11
REMARK    3  A    between atoms: C_11  and  C_12
REMARK    4  A    between atoms: C_12  and  C_14
REMARK                            x       y       z     vdW  Elec       q    Type
REMARK                         _______ _______ _______ _____ _____    ______ ____
ROOT
ATOM      1  C   UNL     1       6.821   6.900  16.968  0.00  0.00    +0.000 A 
ATOM      2  N   UNL     1       7.692   6.094  16.320  0.00  0.00    +0.000 NA
ATOM      3  C   UNL     1       7.275   4.863  15.951  0.00  0.00    +0.000 A 
ATOM      4  N   UNL     1       6.062   4.299  16.131  0.00  0.00    +0.000 NA
ATOM      5  C   UNL     1       5.230   5.149  16.753  0.00  0.00    +0.000 A 
ATOM      6  C   UNL     1       5.517   6.430  17.199  0.00  0.00    +0.000 A 
ATOM      7  N   UNL     1       4.412   6.997  17.804  0.00  0.00    +0.000 NA
ATOM      8  C   UNL     1       3.478   6.073  17.733  0.00  0.00    +0.000 A 
ATOM      9  N   UNL     1       3.926   4.939  17.107  0.00  0.00    +0.000 N 
ENDROOT
BRANCH   1  10
ATOM     10  N   UNL     1       7.258   8.158  17.362  0.00  0.00    +0.000 N 
ATOM     11  H   UNL     1       6.903   8.887  16.758  0.00  0.00    +0.000 HD
ATOM     12  H   UNL     1       7.195   8.305  18.364  0.00  0.00    +0.000 HD
ENDBRANCH   1  10
BRANCH   9  13
ATOM     13  C   UNL     1       3.203   3.687  16.970  0.00  0.00    +0.000 C 
BRANCH  13  14
ATOM     14  C   UNL     1       1.948   3.607  17.814  0.00  0.00    +0.000 C 
ATOM     15  O   UNL     1       0.830   3.918  17.408  0.00  0.00    +0.000 OA
BRANCH  14  16
ATOM     16  C   UNL     1       2.104   3.189  19.231  0.00  0.00    +0.000 A 
ATOM     17  C   UNL     1       1.004   3.229  20.091  0.00  0.00    +0.000 A 
ATOM     18  C   UNL     1       1.173   2.920  21.439  0.00  0.00    +0.000 A 
ATOM     19  C   UNL     1       2.438   2.566  21.879  0.00  0.00    +0.000 A 
ATOM     20  N   UNL     1       3.516   2.486  21.068  0.00  0.00    +0.000 NA
ATOM     21  C   UNL     1       3.325   2.791  19.762  0.00  0.00    +0.000 A 
ENDBRANCH  14  16
ENDBRANCH  13  14
ENDBRANCH   9  13
TORSDOF 4
ENDMDL
MODEL 8
REMARK VINA RESULT:      -6.9      1.932      3.035
REMARK  Name = 
REMARK  4 active torsions:
REMARK  status: ('A' for Active; 'I' for Inactive)
REMARK    1  A    between atoms: N_1  and  C_2
REMARK    2  A    between atoms: N_10  and  C_11
REMARK    3  A    between atoms: C_11  and  C_12
REMARK    4  A    between atoms: C_12  and  C_14
REMARK                            x       y       z     vdW  Elec       q    Type
REMARK                         _______ _______ _______ _____ _____    ______ ____
ROOT
ATOM      1  C   UNL     1       7.312   6.596  17.490  0.00  0.00    +0.000 A 
ATOM      2  N   UNL     1       7.592   6.407  18.799  0.00  0.00    +0.000 NA
ATOM      3  C   UNL     1       7.006   5.370  19.437  0.00  0.00    +0.000 A 
ATOM      4  N   UNL     1       6.156   4.449  18.937  0.00  0.00    +0.000 NA
ATOM      5  C   UNL     1       5.934   4.667  17.631  0.00  0.00    +0.000 A 
ATOM      6  C   UNL     1       6.451   5.688  16.850  0.00  0.00    +0.000 A 
ATOM      7  N   UNL     1       5.988   5.595  15.552  0.00  0.00    +0.000 NA
ATOM      8  C   UNL     1       5.200   4.542  15.551  0.00  0.00    +0.000 A 
ATOM      9  N   UNL     1       5.135   3.949  16.785  0.00  0.00    +0.000 N 
ENDROOT
BRANCH   1  10
ATOM     10  N   UNL     1       7.903   7.673  16.841  0.00  0.00    +0.000 N 
ATOM     11  H   UNL     1       7.559   7.778  15.896  0.00  0.00    +0.000 HD
ATOM     12  H   UNL     1       7.953   8.505  17.418  0.00  0.00    +0.000 HD
ENDBRANCH   1  10
BRANCH   9  13
ATOM     13  C   UNL     1       4.268   2.849  17.168  0.00  0.00    +0.000 C 
BRANCH  13  14
ATOM     14  C   UNL     1       2.862   3.274  17.533  0.00  0.00    +0.000 C 
ATOM     15  O   UNL     1       1.980   3.503  16.707  0.00  0.00    +0.000 OA
BRANCH  14  16
ATOM     16  C   UNL     1       2.564   3.485  18.974  0.00  0.00    +0.000 A 
ATOM     17  C   UNL     1       2.126   4.736  19.416  0.00  0.00    +0.000 A 
ATOM     18  C   UNL     1       1.932   4.954  20.779  0.00  0.00    +0.000 A 
ATOM     19  C   UNL     1       2.169   3.906  21.653  0.00  0.00    +0.000 A 
ATOM     20  N   UNL     1       2.562   2.675  21.255  0.00  0.00    +0.000 NA
ATOM     21  C   UNL     1       2.743   2.489  19.926  0.00  0.00    +0.000 A 
ENDBRANCH  14  16
ENDBRANCH  13  14
ENDBRANCH   9  13
TORSDOF 4
ENDMDL
MODEL 9
REMARK VINA RESULT:      -6.8      2.112      3.336
REMARK  Name = 
REMARK  4 active torsions:
REMARK  status: ('A' for Active; 'I' for Inactive)
REMARK    1  A    between atoms: N_1  and  C_2
REMARK    2  A    between atoms: N_10  and  C_11
REMARK    3  A    between atoms: C_11  and  C_12
REMARK    4  A    between atoms: C_12  and  C_14
REMARK                            x       y       z     vdW  Elec       q    Type
REMARK                         _______ _______ _______ _____ _____    ______ ____
ROOT
ATOM      1  C   UNL     1       7.062   5.204  16.645  0.00  0.00    +0.000 A 
ATOM      2  N   UNL     1       7.795   5.809  17.607  0.00  0.00    +0.000 NA
ATOM      3  C   UNL     1       7.368   5.725  18.886  0.00  0.00    +0.000 A 
ATOM      4  N   UNL     1       6.280   5.089  19.368  0.00  0.00    +0.000 NA
ATOM      5  C   UNL     1       5.605   4.484  18.377  0.00  0.00    +0.000 A 
ATOM      6  C   UNL     1       5.912   4.492  17.025  0.00  0.00    +0.000 A 
ATOM      7  N   UNL     1       4.980   3.769  16.306  0.00  0.00    +0.000 NA
ATOM      8  C   UNL     1       4.121   3.340  17.207  0.00  0.00    +0.000 A 
ATOM      9  N   UNL     1       4.458   3.747  18.471  0.00  0.00    +0.000 N 
ENDROOT
BRANCH   1  10
ATOM     10  N   UNL     1       7.494   5.308  15.328  0.00  0.00    +0.000 N 
ATOM     11  H   UNL     1       6.900   4.789  14.695  0.00  0.00    +0.000 HD
ATOM     12  H   UNL     1       7.746   6.255  15.067  0.00  0.00    +0.000 HD
ENDBRANCH   1  10
BRANCH   9  13
ATOM     13  C   UNL     1       3.668   3.559  19.675  0.00  0.00    +0.000 C 
BRANCH  13  14
ATOM     14  C   UNL     1       2.279   4.155  19.598  0.00  0.00    +0.000 C 
ATOM     15  O   UNL     1       1.254   3.487  19.476  0.00  0.00    +0.000 OA
BRANCH  14  16
ATOM     16  C   UNL     1       2.170   5.637  19.607  0.00  0.00    +0.000 A 
ATOM     17  C   UNL     1       1.689   6.291  20.745  0.00  0.00    +0.000 A 
ATOM     18  C   UNL     1       1.506   7.672  20.719  0.00  0.00    +0.000 A 
ATOM     19  C   UNL     1       1.824   8.356  19.557  0.00  0.00    +0.000 A 
ATOM     20  N   UNL     1       2.321   7.759  18.450  0.00  0.00    +0.000 NA
ATOM     21  C   UNL     1       2.490   6.416  18.501  0.00  0.00    +0.000 A 
ENDBRANCH  14  16
ENDBRANCH  13  14
ENDBRANCH   9  13
TORSDOF 4
ENDMDL
