MODEL 1
REMARK VINA RESULT:      -7.3      0.000      0.000
REMARK  Name = 
REMARK  6 active torsions:
REMARK  status: ('A' for Active; 'I' for Inactive)
REMARK    1  A    between atoms: C_2  and  C_3
REMARK    2  A    between atoms: C_3  and  C_4
REMARK    3  A    between atoms: C_4  and  N_5
REMARK    4  A    between atoms: N_5  and  S_6
REMARK    5  A    between atoms: S_6  and  C_9
REMARK    6  A    between atoms: N_14  and  C_15
REMARK                            x       y       z     vdW  Elec       q    Type
REMARK                         _______ _______ _______ _____ _____    ______ ____
ROOT
ATOM      1  C   UNL     1       7.146   5.908  18.266  0.00  0.00    +0.000 C 
ENDROOT
BRANCH   1   3
ATOM      2  O   UNL     1       8.137   4.181  16.932  0.00  0.00    +0.000 OA
ATOM      3  C   UNL     1       7.399   5.160  16.971  0.00  0.00    +0.000 C 
ATOM      4  N   UNL     1       6.782   5.712  15.863  0.00  0.00    +0.000 N 
ATOM      5  H   UNL     1       6.438   6.663  15.909  0.00  0.00    +0.000 HD
BRANCH   4   6
ATOM      6  C   UNL     1       6.715   5.092  14.589  0.00  0.00    +0.000 A 
ATOM      7  C   UNL     1       7.669   5.302  13.586  0.00  0.00    +0.000 A 
ATOM      8  C   UNL     1       7.574   4.643  12.358  0.00  0.00    +0.000 A 
ATOM      9  C   UNL     1       6.525   3.760  12.118  0.00  0.00    +0.000 A 
ATOM     10  C   UNL     1       5.567   3.538  13.106  0.00  0.00    +0.000 A 
ATOM     11  C   UNL     1       5.671   4.198  14.331  0.00  0.00    +0.000 A 
ATOM     12  F   UNL     1       4.738   3.974  15.270  0.00  0.00    +0.000 F 
ENDBRANCH   4   6
ENDBRANCH   1   3
BRANCH   1  13
ATOM     13  C   UNL     1       6.335   5.065  19.254  0.00  0.00    +0.000 C 
BRANCH  13  14
ATOM     14  N   UNL     1       5.792   3.855  18.623  0.00  0.00    +0.000 NA
ATOM     15  H   UNL     1       6.412   3.056  18.516  0.00  0.00    +0.000 HD
BRANCH  14  16
ATOM     16  S   UNL     1       4.234   3.375  19.014  0.00  0.00    +0.000 S 
ATOM     17  O   UNL     1       3.648   2.797  17.827  0.00  0.00    +0.000 OA
ATOM     18  O   UNL     1       4.326   2.624  20.250  0.00  0.00    +0.000 OA
BRANCH  16  19
ATOM     19  C   UNL     1       3.252   4.799  19.429  0.00  0.00    +0.000 A 
ATOM     20  C   UNL     1       3.164   6.050  18.847  0.00  0.00    +0.000 A 
ATOM     21  C   UNL     1       2.273   6.916  19.542  0.00  0.00    +0.000 A 
ATOM     22  C   UNL     1       1.699   6.293  20.628  0.00  0.00    +0.000 A 
ATOM     23  S   UNL     1       2.221   4.667  20.788  0.00  0.00    +0.000 S 
ENDBRANCH  16  19
ENDBRANCH  14  16
ENDBRANCH  13  14
ENDBRANCH   1  13
TORSDOF 6
ENDMDL
MODEL 2
REMARK VINA RESULT:      -7.2      1.689      2.084
REMARK  Name = 
REMARK  6 active torsions:
REMARK  status: ('A' for Active; 'I' for Inactive)
REMARK    1  A    between atoms: C_2  and  C_3
REMARK    2  A    between atoms: C_3  and  C_4
REMARK    3  A    between atoms: C_4  and  N_5
REMARK    4  A    between atoms: N_5  and  S_6
REMARK    5  A    between atoms: S_6  and  C_9
REMARK    6  A    between atoms: N_14  and  C_15
REMARK                            x       y       z     vdW  Elec       q    Type
REMARK                         _______ _______ _______ _____ _____    ______ ____
ROOT
ATOM      1  C   UNL     1       7.388   6.036  18.315  0.00  0.00    +0.000 C 
ENDROOT
BRANCH   1   3
ATOM      2  O   UNL     1       8.109   4.123  17.064  0.00  0.00    +0.000 OA
ATOM      3  C   UNL     1       7.521   5.199  17.056  0.00  0.00    +0.000 C 
ATOM      4  N   UNL     1       6.985   5.784  15.923  0.00  0.00    +0.000 N 
ATOM      5  H   UNL     1       6.783   6.776  15.924  0.00  0.00    +0.000 HD
BRANCH   4   6
ATOM      6  C   UNL     1       6.821   5.121  14.680  0.00  0.00    +0.000 A 
ATOM      7  C   UNL     1       7.707   5.278  13.607  0.00  0.00    +0.000 A 
ATOM      8  C   UNL     1       7.517   4.579  12.413  0.00  0.00    +0.000 A 
ATOM      9  C   UNL     1       6.439   3.709  12.276  0.00  0.00    +0.000 A 
ATOM     10  C   UNL     1       5.548   3.539  13.334  0.00  0.00    +0.000 A 
ATOM     11  C   UNL     1       5.746   4.239  14.525  0.00  0.00    +0.000 A 
ATOM     12  F   UNL     1       4.877   4.065  15.533  0.00  0.00    +0.000 F 
ENDBRANCH   4   6
ENDBRANCH   1   3
BRANCH   1  13
ATOM     13  C   UNL     1       6.375   5.428  19.290  0.00  0.00    +0.000 C 
BRANCH  13  14
ATOM     14  N   UNL     1       5.288   4.735  18.587  0.00  0.00    +0.000 NA
ATOM     15  H   UNL     1       5.264   3.718  18.634  0.00  0.00    +0.000 HD
BRANCH  14  16
ATOM     16  S   UNL     1       3.746   5.389  18.647  0.00  0.00    +0.000 S 
ATOM     17  O   UNL     1       3.695   6.273  19.787  0.00  0.00    +0.000 OA
ATOM     18  O   UNL     1       3.441   5.863  17.312  0.00  0.00    +0.000 OA
BRANCH  16  19
ATOM     19  C   UNL     1       2.557   4.099  18.945  0.00  0.00    +0.000 A 
ATOM     20  C   UNL     1       1.752   3.381  18.081  0.00  0.00    +0.000 A 
ATOM     21  C   UNL     1       0.902   2.463  18.761  0.00  0.00    +0.000 A 
ATOM     22  C   UNL     1       1.095   2.501  20.124  0.00  0.00    +0.000 A 
ATOM     23  S   UNL     1       2.310   3.626  20.570  0.00  0.00    +0.000 S 
ENDBRANCH  16  19
ENDBRANCH  14  16
ENDBRANCH  13  14
ENDBRANCH   1  13
TORSDOF 6
ENDMDL
MODEL 3
REMARK VINA RESULT:      -7.1      2.748      6.503
REMARK  Name = 
REMARK  6 active torsions:
REMARK  status: ('A' for Active; 'I' for Inactive)
REMARK    1  A    between atoms: C_2  and  C_3
REMARK    2  A    between atoms: C_3  and  C_4
REMARK    3  A    between atoms: C_4  and  N_5
REMARK    4  A    between atoms: N_5  and  S_6
REMARK    5  A    between atoms: S_6  and  C_9
REMARK    6  A    between atoms: N_14  and  C_15
REMARK                            x       y       z     vdW  Elec       q    Type
REMARK                         _______ _______ _______ _____ _____    ______ ____
ROOT
ATOM      1  C   UNL     1       6.508   5.605  18.928  0.00  0.00    +0.000 C 
ENDROOT
BRANCH   1   3
ATOM      2  O   UNL     1       4.241   6.234  19.386  0.00  0.00    +0.000 OA
ATOM      3  C   UNL     1       5.044   5.324  19.213  0.00  0.00    +0.000 C 
ATOM      4  N   UNL     1       4.731   3.981  19.316  0.00  0.00    +0.000 N 
ATOM      5  H   UNL     1       5.474   3.307  19.453  0.00  0.00    +0.000 HD
BRANCH   4   6
ATOM      6  C   UNL     1       3.411   3.468  19.389  0.00  0.00    +0.000 A 
ATOM      7  C   UNL     1       2.772   3.170  20.599  0.00  0.00    +0.000 A 
ATOM      8  C   UNL     1       1.459   2.695  20.617  0.00  0.00    +0.000 A 
ATOM      9  C   UNL     1       0.763   2.516  19.425  0.00  0.00    +0.000 A 
ATOM     10  C   UNL     1       1.383   2.810  18.211  0.00  0.00    +0.000 A 
ATOM     11  C   UNL     1       2.694   3.287  18.201  0.00  0.00    +0.000 A 
ATOM     12  F   UNL     1       3.276   3.562  17.023  0.00  0.00    +0.000 F 
ENDBRANCH   4   6
ENDBRANCH   1   3
BRANCH   1  13
ATOM     13  C   UNL     1       7.147   4.482  18.106  0.00  0.00    +0.000 C 
BRANCH  13  14
ATOM     14  N   UNL     1       6.386   4.199  16.883  0.00  0.00    +0.000 NA
ATOM     15  H   UNL     1       5.486   3.733  16.980  0.00  0.00    +0.000 HD
BRANCH  14  16
ATOM     16  S   UNL     1       6.350   5.359  15.673  0.00  0.00    +0.000 S 
ATOM     17  O   UNL     1       5.091   6.058  15.781  0.00  0.00    +0.000 OA
ATOM     18  O   UNL     1       7.612   6.067  15.735  0.00  0.00    +0.000 OA
BRANCH  16  19
ATOM     19  C   UNL     1       6.361   4.566  14.080  0.00  0.00    +0.000 A 
ATOM     20  C   UNL     1       5.486   3.666  13.501  0.00  0.00    +0.000 A 
ATOM     21  C   UNL     1       5.908   3.246  12.208  0.00  0.00    +0.000 A 
ATOM     22  C   UNL     1       7.089   3.850  11.836  0.00  0.00    +0.000 A 
ATOM     23  S   UNL     1       7.665   4.931  13.035  0.00  0.00    +0.000 S 
ENDBRANCH  16  19
ENDBRANCH  14  16
ENDBRANCH  13  14
ENDBRANCH   1  13
TORSDOF 6
ENDMDL
MODEL 4
REMARK VINA RESULT:      -7.0      1.245      1.460
REMARK  Name = 
REMARK  6 active torsions:
REMARK  status: ('A' for Active; 'I' for Inactive)
REMARK    1  A    between atoms: C_2  and  C_3
REMARK    2  A    between atoms: C_3  and  C_4
REMARK    3  A    between atoms: C_4  and  N_5
REMARK    4  A    between atoms: N_5  and  S_6
REMARK    5  A    between atoms: S_6  and  C_9
REMARK    6  A    between atoms: N_14  and  C_15
REMARK                            x       y       z     vdW  Elec       q    Type
REMARK                         _______ _______ _______ _____ _____    ______ ____
ROOT
ATOM      1  C   UNL     1       6.682   5.657  18.426  0.00  0.00    +0.000 C 
ENDROOT
BRANCH   1   3
ATOM      2  O   UNL     1       8.069   4.256  17.063  0.00  0.00    +0.000 OA
ATOM      3  C   UNL     1       7.162   5.080  17.107  0.00  0.00    +0.000 C 
ATOM      4  N   UNL     1       6.536   5.607  15.992  0.00  0.00    +0.000 N 
ATOM      5  H   UNL     1       6.019   6.473  16.077  0.00  0.00    +0.000 HD
BRANCH   4   6
ATOM      6  C   UNL     1       6.677   5.097  14.677  0.00  0.00    +0.000 A 
ATOM      7  C   UNL     1       7.676   5.524  13.795  0.00  0.00    +0.000 A 
ATOM      8  C   UNL     1       7.792   4.968  12.519  0.00  0.00    +0.000 A 
ATOM      9  C   UNL     1       6.911   3.971  12.108  0.00  0.00    +0.000 A 
ATOM     10  C   UNL     1       5.910   3.533  12.974  0.00  0.00    +0.000 A 
ATOM     11  C   UNL     1       5.804   4.092  14.248  0.00  0.00    +0.000 A 
ATOM     12  F   UNL     1       4.833   3.658  15.068  0.00  0.00    +0.000 F 
ENDBRANCH   4   6
ENDBRANCH   1   3
BRANCH   1  13
ATOM     13  C   UNL     1       5.681   4.725  19.117  0.00  0.00    +0.000 C 
BRANCH  13  14
ATOM     14  N   UNL     1       5.363   3.555  18.289  0.00  0.00    +0.000 NA
ATOM     15  H   UNL     1       6.115   3.141  17.742  0.00  0.00    +0.000 HD
BRANCH  14  16
ATOM     16  S   UNL     1       4.342   2.382  18.915  0.00  0.00    +0.000 S 
ATOM     17  O   UNL     1       3.737   1.694  17.798  0.00  0.00    +0.000 OA
ATOM     18  O   UNL     1       5.098   1.664  19.921  0.00  0.00    +0.000 OA
BRANCH  16  19
ATOM     19  C   UNL     1       3.019   3.155  19.817  0.00  0.00    +0.000 A 
ATOM     20  C   UNL     1       2.627   3.046  21.139  0.00  0.00    +0.000 A 
ATOM     21  C   UNL     1       1.468   3.819  21.432  0.00  0.00    +0.000 A 
ATOM     22  C   UNL     1       1.018   4.504  20.326  0.00  0.00    +0.000 A 
ATOM     23  S   UNL     1       2.006   4.228  18.952  0.00  0.00    +0.000 S 
ENDBRANCH  16  19
ENDBRANCH  14  16
ENDBRANCH  13  14
ENDBRANCH   1  13
TORSDOF 6
ENDMDL
MODEL 5
REMARK VINA RESULT:      -6.9      1.957      2.534
REMARK  Name = 
REMARK  6 active torsions:
REMARK  status: ('A' for Active; 'I' for Inactive)
REMARK    1  A    between atoms: C_2  and  C_3
REMARK    2  A    between atoms: C_3  and  C_4
REMARK    3  A    between atoms: C_4  and  N_5
REMARK    4  A    between atoms: N_5  and  S_6
REMARK    5  A    between atoms: S_6  and  C_9
REMARK    6  A    between atoms: N_14  and  C_15
REMARK                            x       y       z     vdW  Elec       q    Type
REMARK                         _______ _______ _______ _____ _____    ______ ____
ROOT
ATOM      1  C   UNL     1       6.928   6.520  17.312  0.00  0.00    +0.000 C 
ENDROOT
BRANCH   1   3
ATOM      2  O   UNL     1       7.816   4.452  16.490  0.00  0.00    +0.000 OA
ATOM      3  C   UNL     1       7.159   5.459  16.253  0.00  0.00    +0.000 C 
ATOM      4  N   UNL     1       6.623   5.763  15.014  0.00  0.00    +0.000 N 
ATOM      5  H   UNL     1       6.355   6.718  14.811  0.00  0.00    +0.000 HD
BRANCH   4   6
ATOM      6  C   UNL     1       6.544   4.854  13.929  0.00  0.00    +0.000 A 
ATOM      7  C   UNL     1       5.503   3.930  13.781  0.00  0.00    +0.000 A 
ATOM      8  C   UNL     1       5.455   3.076  12.676  0.00  0.00    +0.000 A 
ATOM      9  C   UNL     1       6.447   3.137  11.701  0.00  0.00    +0.000 A 
ATOM     10  C   UNL     1       7.491   4.053  11.832  0.00  0.00    +0.000 A 
ATOM     11  C   UNL     1       7.529   4.905  12.937  0.00  0.00    +0.000 A 
ATOM     12  F   UNL     1       8.542   5.778  13.048  0.00  0.00    +0.000 F 
ENDBRANCH   4   6
ENDBRANCH   1   3
BRANCH   1  13
ATOM     13  C   UNL     1       5.434   6.734  17.578  0.00  0.00    +0.000 C 
BRANCH  13  14
ATOM     14  N   UNL     1       4.686   5.472  17.543  0.00  0.00    +0.000 NA
ATOM     15  H   UNL     1       4.808   4.870  16.731  0.00  0.00    +0.000 HD
BRANCH  14  16
ATOM     16  S   UNL     1       4.551   4.578  18.954  0.00  0.00    +0.000 S 
ATOM     17  O   UNL     1       5.508   3.499  18.877  0.00  0.00    +0.000 OA
ATOM     18  O   UNL     1       4.570   5.524  20.051  0.00  0.00    +0.000 OA
BRANCH  16  19
ATOM     19  C   UNL     1       2.940   3.829  19.039  0.00  0.00    +0.000 A 
ATOM     20  C   UNL     1       1.817   4.156  19.778  0.00  0.00    +0.000 A 
ATOM     21  C   UNL     1       0.742   3.246  19.572  0.00  0.00    +0.000 A 
ATOM     22  C   UNL     1       1.075   2.258  18.673  0.00  0.00    +0.000 A 
ATOM     23  S   UNL     1       2.668   2.447  18.069  0.00  0.00    +0.000 S 
ENDBRANCH  16  19
ENDBRANCH  14  16
ENDBRANCH  13  14
ENDBRANCH   1  13
TORSDOF 6
ENDMDL
MODEL 6
REMARK VINA RESULT:      -6.9      1.454      1.751
REMARK  Name = 
REMARK  6 active torsions:
REMARK  status: ('A' for Active; 'I' for Inactive)
REMARK    1  A    between atoms: C_2  and  C_3
REMARK    2  A    between atoms: C_3  and  C_4
REMARK    3  A    between atoms: C_4  and  N_5
REMARK    4  A    between atoms: N_5  and  S_6
REMARK    5  A    between atoms: S_6  and  C_9
REMARK    6  A    between atoms: N_14  and  C_15
REMARK                            x       y       z     vdW  Elec       q    Type
REMARK                         _______ _______ _______ _____ _____    ______ ____
ROOT
ATOM      1  C   UNL     1       7.087   6.243  18.033  0.00  0.00    +0.000 C 
ENDROOT
BRANCH   1   3
ATOM      2  O   UNL     1       7.994   4.339  16.895  0.00  0.00    +0.000 OA
ATOM      3  C   UNL     1       7.325   5.364  16.819  0.00  0.00    +0.000 C 
ATOM      4  N   UNL     1       6.782   5.853  15.645  0.00  0.00    +0.000 N 
ATOM      5  H   UNL     1       6.503   6.825  15.594  0.00  0.00    +0.000 HD
BRANCH   4   6
ATOM      6  C   UNL     1       6.709   5.124  14.431  0.00  0.00    +0.000 A 
ATOM      7  C   UNL     1       7.662   5.242  13.411  0.00  0.00    +0.000 A 
ATOM      8  C   UNL     1       7.562   4.479  12.246  0.00  0.00    +0.000 A 
ATOM      9  C   UNL     1       6.508   3.583  12.085  0.00  0.00    +0.000 A 
ATOM     10  C   UNL     1       5.551   3.452  13.090  0.00  0.00    +0.000 A 
ATOM     11  C   UNL     1       5.661   4.216  14.253  0.00  0.00    +0.000 A 
ATOM     12  F   UNL     1       4.729   4.078  15.210  0.00  0.00    +0.000 F 
ENDBRANCH   4   6
ENDBRANCH   1   3
BRANCH   1  13
ATOM     13  C   UNL     1       6.747   5.410  19.273  0.00  0.00    +0.000 C 
BRANCH  13  14
ATOM     14  N   UNL     1       5.309   5.428  19.566  0.00  0.00    +0.000 NA
ATOM     15  H   UNL     1       4.884   6.320  19.811  0.00  0.00    +0.000 HD
BRANCH  14  16
ATOM     16  S   UNL     1       4.284   4.502  18.616  0.00  0.00    +0.000 S 
ATOM     17  O   UNL     1       3.715   5.374  17.615  0.00  0.00    +0.000 OA
ATOM     18  O   UNL     1       5.021   3.310  18.245  0.00  0.00    +0.000 OA
BRANCH  16  19
ATOM     19  C   UNL     1       2.930   3.901  19.601  0.00  0.00    +0.000 A 
ATOM     20  C   UNL     1       2.886   3.411  20.893  0.00  0.00    +0.000 A 
ATOM     21  C   UNL     1       1.581   2.991  21.275  0.00  0.00    +0.000 A 
ATOM     22  C   UNL     1       0.666   3.185  20.265  0.00  0.00    +0.000 A 
ATOM     23  S   UNL     1       1.381   3.890  18.875  0.00  0.00    +0.000 S 
ENDBRANCH  16  19
ENDBRANCH  14  16
ENDBRANCH  13  14
ENDBRANCH   1  13
TORSDOF 6
ENDMDL
MODEL 7
REMARK VINA RESULT:      -6.9      0.912      1.059
REMARK  Name = 
REMARK  6 active torsions:
REMARK  status: ('A' for Active; 'I' for Inactive)
REMARK    1  A    between atoms: C_2  and  C_3
REMARK    2  A    between atoms: C_3  and  C_4
REMARK    3  A    between atoms: C_4  and  N_5
REMARK    4  A    between atoms: N_5  and  S_6
REMARK    5  A    between atoms: S_6  and  C_9
REMARK    6  A    between atoms: N_14  and  C_15
REMARK                            x       y       z     vdW  Elec       q    Type
REMARK                         _______ _______ _______ _____ _____    ______ ____
ROOT
ATOM      1  C   UNL     1       6.771   5.799  18.269  0.00  0.00    +0.000 C 
ENDROOT
BRANCH   1   3
ATOM      2  O   UNL     1       8.048   4.250  16.960  0.00  0.00    +0.000 OA
ATOM      3  C   UNL     1       7.206   5.141  16.973  0.00  0.00    +0.000 C 
ATOM      4  N   UNL     1       6.620   5.674  15.839  0.00  0.00    +0.000 N 
ATOM      5  H   UNL     1       6.170   6.579  15.891  0.00  0.00    +0.000 HD
BRANCH   4   6
ATOM      6  C   UNL     1       6.722   5.108  14.543  0.00  0.00    +0.000 A 
ATOM      7  C   UNL     1       7.733   5.450  13.636  0.00  0.00    +0.000 A 
ATOM      8  C   UNL     1       7.807   4.841  12.382  0.00  0.00    +0.000 A 
ATOM      9  C   UNL     1       6.871   3.877  12.016  0.00  0.00    +0.000 A 
ATOM     10  C   UNL     1       5.858   3.524  12.906  0.00  0.00    +0.000 A 
ATOM     11  C   UNL     1       5.794   4.134  14.159  0.00  0.00    +0.000 A 
ATOM     12  F   UNL     1       4.810   3.783  15.003  0.00  0.00    +0.000 F 
ENDBRANCH   4   6
ENDBRANCH   1   3
BRANCH   1  13
ATOM     13  C   UNL     1       5.987   4.828  19.158  0.00  0.00    +0.000 C 
BRANCH  13  14
ATOM     14  N   UNL     1       5.246   3.838  18.366  0.00  0.00    +0.000 NA
ATOM     15  H   UNL     1       5.686   2.935  18.201  0.00  0.00    +0.000 HD
BRANCH  14  16
ATOM     16  S   UNL     1       3.596   3.681  18.616  0.00  0.00    +0.000 S 
ATOM     17  O   UNL     1       2.983   3.446  17.329  0.00  0.00    +0.000 OA
ATOM     18  O   UNL     1       3.427   2.748  19.712  0.00  0.00    +0.000 OA
BRANCH  16  19
ATOM     19  C   UNL     1       2.932   5.214  19.228  0.00  0.00    +0.000 A 
ATOM     20  C   UNL     1       2.361   5.543  20.443  0.00  0.00    +0.000 A 
ATOM     21  C   UNL     1       1.915   6.894  20.491  0.00  0.00    +0.000 A 
ATOM     22  C   UNL     1       2.171   7.558  19.313  0.00  0.00    +0.000 A 
ATOM     23  S   UNL     1       2.964   6.557  18.169  0.00  0.00    +0.000 S 
ENDBRANCH  16  19
ENDBRANCH  14  16
ENDBRANCH  13  14
ENDBRANCH   1  13
TORSDOF 6
ENDMDL
MODEL 8
REMARK VINA RESULT:      -6.8      2.721      6.632
REMARK  Name = 
REMARK  6 active torsions:
REMARK  status: ('A' for Active; 'I' for Inactive)
REMARK    1  A    between atoms: C_2  and  C_3
REMARK    2  A    between atoms: C_3  and  C_4
REMARK    3  A    between atoms: C_4  and  N_5
REMARK    4  A    between atoms: N_5  and  S_6
REMARK    5  A    between atoms: S_6  and  C_9
REMARK    6  A    between atoms: N_14  and  C_15
REMARK                            x       y       z     vdW  Elec       q    Type
REMARK                         _______ _______ _______ _____ _____    ______ ____
ROOT
ATOM      1  C   UNL     1       4.152   7.589  17.186  0.00  0.00    +0.000 C 
ENDROOT
BRANCH   1   3
ATOM      2  O   UNL     1       2.351   7.478  18.763  0.00  0.00    +0.000 OA
ATOM      3  C   UNL     1       3.243   6.879  18.173  0.00  0.00    +0.000 C 
ATOM      4  N   UNL     1       3.555   5.547  18.378  0.00  0.00    +0.000 N 
ATOM      5  H   UNL     1       4.461   5.199  18.092  0.00  0.00    +0.000 HD
BRANCH   4   6
ATOM      6  C   UNL     1       2.743   4.637  19.102  0.00  0.00    +0.000 A 
ATOM      7  C   UNL     1       2.636   4.651  20.498  0.00  0.00    +0.000 A 
ATOM      8  C   UNL     1       1.798   3.751  21.161  0.00  0.00    +0.000 A 
ATOM      9  C   UNL     1       1.052   2.826  20.437  0.00  0.00    +0.000 A 
ATOM     10  C   UNL     1       1.146   2.798  19.046  0.00  0.00    +0.000 A 
ATOM     11  C   UNL     1       1.983   3.702  18.391  0.00  0.00    +0.000 A 
ATOM     12  F   UNL     1       2.062   3.660  17.051  0.00  0.00    +0.000 F 
ENDBRANCH   4   6
ENDBRANCH   1   3
BRANCH   1  13
ATOM     13  C   UNL     1       4.773   6.607  16.187  0.00  0.00    +0.000 C 
BRANCH  13  14
ATOM     14  N   UNL     1       6.091   6.136  16.632  0.00  0.00    +0.000 NA
ATOM     15  H   UNL     1       6.417   6.433  17.549  0.00  0.00    +0.000 HD
BRANCH  14  16
ATOM     16  S   UNL     1       6.528   4.550  16.310  0.00  0.00    +0.000 S 
ATOM     17  O   UNL     1       7.910   4.394  16.698  0.00  0.00    +0.000 OA
ATOM     18  O   UNL     1       5.490   3.708  16.872  0.00  0.00    +0.000 OA
BRANCH  16  19
ATOM     19  C   UNL     1       6.449   4.248  14.559  0.00  0.00    +0.000 A 
ATOM     20  C   UNL     1       5.567   3.503  13.799  0.00  0.00    +0.000 A 
ATOM     21  C   UNL     1       5.907   3.495  12.416  0.00  0.00    +0.000 A 
ATOM     22  C   UNL     1       7.033   4.246  12.164  0.00  0.00    +0.000 A 
ATOM     23  S   UNL     1       7.657   4.970  13.587  0.00  0.00    +0.000 S 
ENDBRANCH  16  19
ENDBRANCH  14  16
ENDBRANCH  13  14
ENDBRANCH   1  13
TORSDOF 6
ENDMDL
MODEL 9
REMARK VINA RESULT:      -6.8      1.901      2.293
REMARK  Name = 
REMARK  6 active torsions:
REMARK  status: ('A' for Active; 'I' for Inactive)
REMARK    1  A    between atoms: C_2  and  C_3
REMARK    2  A    between atoms: C_3  and  C_4
REMARK    3  A    between atoms: C_4  and  N_5
REMARK    4  A    between atoms: N_5  and  S_6
REMARK    5  A    between atoms: S_6  and  C_9
REMARK    6  A    between atoms: N_14  and  C_15
REMARK                            x       y       z     vdW  Elec       q    Type
REMARK                         _______ _______ _______ _____ _____    ______ ____
ROOT
ATOM      1  C   UNL     1       7.265   6.532  17.845  0.00  0.00    +0.000 C 
ENDROOT
BRANCH   1   3
ATOM      2  O   UNL     1       5.726   6.837  16.034  0.00  0.00    +0.000 OA
ATOM      3  C   UNL     1       6.641   6.174  16.509  0.00  0.00    +0.000 C 
ATOM      4  N   UNL     1       7.151   5.026  15.931  0.00  0.00    +0.000 N 
ATOM      5  H   UNL     1       7.684   4.379  16.498  0.00  0.00    +0.000 HD
BRANCH   4   6
ATOM      6  C   UNL     1       6.866   4.599  14.609  0.00  0.00    +0.000 A 
ATOM      7  C   UNL     1       5.783   3.770  14.291  0.00  0.00    +0.000 A 
ATOM      8  C   UNL     1       5.527   3.402  12.969  0.00  0.00    +0.000 A 
ATOM      9  C   UNL     1       6.348   3.861  11.943  0.00  0.00    +0.000 A 
ATOM     10  C   UNL     1       7.430   4.688  12.241  0.00  0.00    +0.000 A 
ATOM     11  C   UNL     1       7.677   5.054  13.565  0.00  0.00    +0.000 A 
ATOM     12  F   UNL     1       8.725   5.849  13.834  0.00  0.00    +0.000 F 
ENDBRANCH   4   6
ENDBRANCH   1   3
BRANCH   1  13
ATOM     13  C   UNL     1       6.720   5.653  18.974  0.00  0.00    +0.000 C 
BRANCH  13  14
ATOM     14  N   UNL     1       5.274   5.434  18.847  0.00  0.00    +0.000 NA
ATOM     15  H   UNL     1       4.753   6.049  18.226  0.00  0.00    +0.000 HD
BRANCH  14  16
ATOM     16  S   UNL     1       4.703   3.859  18.771  0.00  0.00    +0.000 S 
ATOM     17  O   UNL     1       4.458   3.554  17.381  0.00  0.00    +0.000 OA
ATOM     18  O   UNL     1       5.599   3.051  19.573  0.00  0.00    +0.000 OA
BRANCH  16  19
ATOM     19  C   UNL     1       3.136   3.747  19.604  0.00  0.00    +0.000 A 
ATOM     20  C   UNL     1       2.796   3.259  20.853  0.00  0.00    +0.000 A 
ATOM     21  C   UNL     1       1.396   3.320  21.103  0.00  0.00    +0.000 A 
ATOM     22  C   UNL     1       0.711   3.865  20.040  0.00  0.00    +0.000 A 
ATOM     23  S   UNL     1       1.760   4.317  18.762  0.00  0.00    +0.000 S 
ENDBRANCH  16  19
ENDBRANCH  14  16
ENDBRANCH  13  14
ENDBRANCH   1  13
TORSDOF 6
ENDMDL
