MODEL 1
REMARK VINA RESULT:      -7.7      0.000      0.000
REMARK  Name = 
REMARK  7 active torsions:
REMARK  status: ('A' for Active; 'I' for Inactive)
REMARK    1  A    between atoms: C_1  and  N_2
REMARK    2  A    between atoms: N_2  and  C_3
REMARK    3  A    between atoms: C_3  and  C_4
REMARK    4  A    between atoms: C_7  and  N_8
REMARK    5  A    between atoms: C_14  and  C_15
REMARK    6  A    between atoms: C_21  and  O_22
REMARK    7  A    between atoms: O_22  and  C_23
REMARK                            x       y       z     vdW  Elec       q    Type
REMARK                         _______ _______ _______ _____ _____    ______ ____
ROOT
ATOM      1  N   UNL     1       2.466   6.547  19.281  0.00  0.00    +0.000 N 
ATOM      2  C   UNL     1       3.132   5.938  18.243  0.00  0.00    +0.000 A 
ATOM      3  C   UNL     1       2.677   4.662  18.317  0.00  0.00    +0.000 A 
ATOM      4  C   UNL     1       2.713   3.774  17.254  0.00  0.00    +0.000 A 
ATOM      5  C   UNL     1       2.329   2.491  17.650  0.00  0.00    +0.000 A 
ATOM      6  C   UNL     1       2.104   2.145  19.015  0.00  0.00    +0.000 A 
ATOM      7  C   UNL     1       2.142   3.074  20.100  0.00  0.00    +0.000 A 
ATOM      8  C   UNL     1       2.324   4.429  19.699  0.00  0.00    +0.000 A 
ATOM      9  N   UNL     1       2.269   5.651  20.318  0.00  0.00    +0.000 NA
ENDROOT
BRANCH   1  13
ATOM     10  C   UNL     1       0.843  10.519  19.192  0.00  0.00    +0.000 A 
ATOM     11  C   UNL     1       1.396   9.933  18.023  0.00  0.00    +0.000 A 
ATOM     12  C   UNL     1       1.966   8.634  18.011  0.00  0.00    +0.000 A 
ATOM     13  C   UNL     1       1.959   7.883  19.179  0.00  0.00    +0.000 A 
ATOM     14  C   UNL     1       1.458   8.485  20.356  0.00  0.00    +0.000 A 
ATOM     15  C   UNL     1       0.939   9.785  20.380  0.00  0.00    +0.000 A 
BRANCH  15  16
ATOM     16  O   UNL     1       0.465  10.157  21.613  0.00  0.00    +0.000 OA
ATOM     17  C   UNL     1      -0.335   9.210  22.317  0.00  0.00    +0.000 C 
ENDBRANCH  15  16
BRANCH  10  18
ATOM     18  C   UNL     1       0.201  11.894  19.200  0.00  0.00    +0.000 C 
BRANCH  18  20
ATOM     19  C   UNL     1      -1.801  11.821  17.883  0.00  0.00    +0.000 C 
ATOM     20  N   UNL     1      -0.432  12.338  17.954  0.00  0.00    +0.000 NA
ATOM     21  H   UNL     1      -0.476  13.352  17.941  0.00  0.00    +0.000 HD
ENDBRANCH  18  20
ENDBRANCH  10  18
ENDBRANCH   1  13
BRANCH   7  22
ATOM     22  C   UNL     1       2.174   2.538  21.470  0.00  0.00    +0.000 C 
ATOM     23  N   UNL     1       1.017   2.560  22.193  0.00  0.00    +0.000 N 
ATOM     24  O   UNL     1       3.227   2.192  21.991  0.00  0.00    +0.000 OA
ATOM     25  H   UNL     1       0.166   2.957  21.814  0.00  0.00    +0.000 HD
ATOM     26  H   UNL     1       1.094   2.408  23.189  0.00  0.00    +0.000 HD
ENDBRANCH   7  22
TORSDOF 5
ENDMDL
MODEL 2
REMARK VINA RESULT:      -7.6      0.774      1.128
REMARK  Name = 
REMARK  7 active torsions:
REMARK  status: ('A' for Active; 'I' for Inactive)
REMARK    1  A    between atoms: C_1  and  N_2
REMARK    2  A    between atoms: N_2  and  C_3
REMARK    3  A    between atoms: C_3  and  C_4
REMARK    4  A    between atoms: C_7  and  N_8
REMARK    5  A    between atoms: C_14  and  C_15
REMARK    6  A    between atoms: C_21  and  O_22
REMARK    7  A    between atoms: O_22  and  C_23
REMARK                            x       y       z     vdW  Elec       q    Type
REMARK                         _______ _______ _______ _____ _____    ______ ____
ROOT
ATOM      1  N   UNL     1       2.582   6.491  19.183  0.00  0.00    +0.000 N 
ATOM      2  C   UNL     1       3.240   5.843  18.165  0.00  0.00    +0.000 A 
ATOM      3  C   UNL     1       2.751   4.581  18.263  0.00  0.00    +0.000 A 
ATOM      4  C   UNL     1       2.772   3.669  17.219  0.00  0.00    +0.000 A 
ATOM      5  C   UNL     1       2.352   2.406  17.640  0.00  0.00    +0.000 A 
ATOM      6  C   UNL     1       2.105   2.095  19.010  0.00  0.00    +0.000 A 
ATOM      7  C   UNL     1       2.159   3.047  20.075  0.00  0.00    +0.000 A 
ATOM      8  C   UNL     1       2.380   4.388  19.646  0.00  0.00    +0.000 A 
ATOM      9  N   UNL     1       2.352   5.624  20.238  0.00  0.00    +0.000 NA
ENDROOT
BRANCH   1  13
ATOM     10  C   UNL     1       1.043  10.492  18.980  0.00  0.00    +0.000 A 
ATOM     11  C   UNL     1       1.717   9.915  17.873  0.00  0.00    +0.000 A 
ATOM     12  C   UNL     1       2.264   8.607  17.903  0.00  0.00    +0.000 A 
ATOM     13  C   UNL     1       2.111   7.837  19.048  0.00  0.00    +0.000 A 
ATOM     14  C   UNL     1       1.488   8.429  20.170  0.00  0.00    +0.000 A 
ATOM     15  C   UNL     1       0.991   9.738  20.159  0.00  0.00    +0.000 A 
BRANCH  15  16
ATOM     16  O   UNL     1       0.384  10.098  21.335  0.00  0.00    +0.000 OA
ATOM     17  C   UNL     1       0.616   9.267  22.471  0.00  0.00    +0.000 C 
ENDBRANCH  15  16
BRANCH  10  18
ATOM     18  C   UNL     1       0.427  11.878  18.940  0.00  0.00    +0.000 C 
BRANCH  18  20
ATOM     19  C   UNL     1       2.125  13.279  19.889  0.00  0.00    +0.000 C 
ATOM     20  N   UNL     1       0.756  12.783  20.046  0.00  0.00    +0.000 NA
ATOM     21  H   UNL     1       0.126  13.579  20.030  0.00  0.00    +0.000 HD
ENDBRANCH  18  20
ENDBRANCH  10  18
ENDBRANCH   1  13
BRANCH   7  22
ATOM     22  C   UNL     1       2.165   2.540  21.456  0.00  0.00    +0.000 C 
ATOM     23  N   UNL     1       0.995   2.576  22.156  0.00  0.00    +0.000 N 
ATOM     24  O   UNL     1       3.209   2.207  22.005  0.00  0.00    +0.000 OA
ATOM     25  H   UNL     1       0.151   2.965  21.753  0.00  0.00    +0.000 HD
ATOM     26  H   UNL     1       1.053   2.446  23.156  0.00  0.00    +0.000 HD
ENDBRANCH   7  22
TORSDOF 5
ENDMDL
MODEL 3
REMARK VINA RESULT:      -7.4      5.216      7.660
REMARK  Name = 
REMARK  7 active torsions:
REMARK  status: ('A' for Active; 'I' for Inactive)
REMARK    1  A    between atoms: C_1  and  N_2
REMARK    2  A    between atoms: N_2  and  C_3
REMARK    3  A    between atoms: C_3  and  C_4
REMARK    4  A    between atoms: C_7  and  N_8
REMARK    5  A    between atoms: C_14  and  C_15
REMARK    6  A    between atoms: C_21  and  O_22
REMARK    7  A    between atoms: O_22  and  C_23
REMARK                            x       y       z     vdW  Elec       q    Type
REMARK                         _______ _______ _______ _____ _____    ______ ____
ROOT
ATOM      1  N   UNL     1       5.780   4.083  16.006  0.00  0.00    +0.000 N 
ATOM      2  C   UNL     1       7.063   4.543  15.826  0.00  0.00    +0.000 A 
ATOM      3  C   UNL     1       7.109   4.751  14.486  0.00  0.00    +0.000 A 
ATOM      4  C   UNL     1       8.020   5.597  13.874  0.00  0.00    +0.000 A 
ATOM      5  C   UNL     1       7.948   5.501  12.483  0.00  0.00    +0.000 A 
ATOM      6  C   UNL     1       7.149   4.523  11.821  0.00  0.00    +0.000 A 
ATOM      7  C   UNL     1       6.269   3.616  12.487  0.00  0.00    +0.000 A 
ATOM      8  C   UNL     1       6.164   3.832  13.892  0.00  0.00    +0.000 A 
ATOM      9  N   UNL     1       5.368   3.357  14.901  0.00  0.00    +0.000 NA
ENDROOT
BRANCH   1  13
ATOM     10  C   UNL     1       3.223   5.124  19.292  0.00  0.00    +0.000 A 
ATOM     11  C   UNL     1       4.562   5.590  19.237  0.00  0.00    +0.000 A 
ATOM     12  C   UNL     1       5.450   5.252  18.184  0.00  0.00    +0.000 A 
ATOM     13  C   UNL     1       4.991   4.457  17.142  0.00  0.00    +0.000 A 
ATOM     14  C   UNL     1       3.675   3.948  17.222  0.00  0.00    +0.000 A 
ATOM     15  C   UNL     1       2.812   4.242  18.285  0.00  0.00    +0.000 A 
BRANCH  15  16
ATOM     16  O   UNL     1       1.567   3.684  18.143  0.00  0.00    +0.000 OA
ATOM     17  C   UNL     1       1.463   2.271  18.300  0.00  0.00    +0.000 C 
ENDBRANCH  15  16
BRANCH  10  18
ATOM     18  C   UNL     1       2.259   5.513  20.398  0.00  0.00    +0.000 C 
BRANCH  18  20
ATOM     19  C   UNL     1       2.111   3.523  21.727  0.00  0.00    +0.000 C 
ATOM     20  N   UNL     1       1.361   4.465  20.893  0.00  0.00    +0.000 NA
ATOM     21  H   UNL     1       0.635   4.885  21.464  0.00  0.00    +0.000 HD
ENDBRANCH  18  20
ENDBRANCH  10  18
ENDBRANCH   1  13
BRANCH   7  22
ATOM     22  C   UNL     1       5.728   2.484  11.718  0.00  0.00    +0.000 C 
ATOM     23  N   UNL     1       6.573   1.461  11.404  0.00  0.00    +0.000 N 
ATOM     24  O   UNL     1       4.588   2.511  11.268  0.00  0.00    +0.000 OA
ATOM     25  H   UNL     1       7.552   1.486  11.665  0.00  0.00    +0.000 HD
ATOM     26  H   UNL     1       6.265   0.811  10.694  0.00  0.00    +0.000 HD
ENDBRANCH   7  22
TORSDOF 5
ENDMDL
MODEL 4
REMARK VINA RESULT:      -7.3      2.520      7.230
REMARK  Name = 
REMARK  7 active torsions:
REMARK  status: ('A' for Active; 'I' for Inactive)
REMARK    1  A    between atoms: C_1  and  N_2
REMARK    2  A    between atoms: N_2  and  C_3
REMARK    3  A    between atoms: C_3  and  C_4
REMARK    4  A    between atoms: C_7  and  N_8
REMARK    5  A    between atoms: C_14  and  C_15
REMARK    6  A    between atoms: C_21  and  O_22
REMARK    7  A    between atoms: O_22  and  C_23
REMARK                            x       y       z     vdW  Elec       q    Type
REMARK                         _______ _______ _______ _____ _____    ______ ____
ROOT
ATOM      1  N   UNL     1       1.524   8.567  19.152  0.00  0.00    +0.000 N 
ATOM      2  C   UNL     1       1.126   9.602  18.340  0.00  0.00    +0.000 A 
ATOM      3  C   UNL     1       1.028  10.634  19.215  0.00  0.00    +0.000 A 
ATOM      4  C   UNL     1       1.077  11.966  18.835  0.00  0.00    +0.000 A 
ATOM      5  C   UNL     1       0.795  12.811  19.911  0.00  0.00    +0.000 A 
ATOM      6  C   UNL     1       0.351  12.324  21.175  0.00  0.00    +0.000 A 
ATOM      7  C   UNL     1       0.245  10.939  21.513  0.00  0.00    +0.000 A 
ATOM      8  C   UNL     1       0.727  10.055  20.504  0.00  0.00    +0.000 A 
ATOM      9  N   UNL     1       0.982   8.711  20.417  0.00  0.00    +0.000 NA
ENDROOT
BRANCH   1  13
ATOM     10  C   UNL     1       4.347   5.518  18.076  0.00  0.00    +0.000 A 
ATOM     11  C   UNL     1       4.230   6.705  17.307  0.00  0.00    +0.000 A 
ATOM     12  C   UNL     1       3.295   7.728  17.610  0.00  0.00    +0.000 A 
ATOM     13  C   UNL     1       2.476   7.586  18.722  0.00  0.00    +0.000 A 
ATOM     14  C   UNL     1       2.553   6.382  19.457  0.00  0.00    +0.000 A 
ATOM     15  C   UNL     1       3.442   5.351  19.132  0.00  0.00    +0.000 A 
BRANCH  15  16
ATOM     16  O   UNL     1       3.386   4.291  20.002  0.00  0.00    +0.000 OA
ATOM     17  C   UNL     1       2.331   4.289  20.961  0.00  0.00    +0.000 C 
ENDBRANCH  15  16
BRANCH  10  18
ATOM     18  C   UNL     1       5.370   4.438  17.777  0.00  0.00    +0.000 C 
BRANCH  18  20
ATOM     19  C   UNL     1       7.525   5.205  18.494  0.00  0.00    +0.000 C 
ATOM     20  N   UNL     1       6.444   4.252  18.757  0.00  0.00    +0.000 NA
ATOM     21  H   UNL     1       6.085   4.430  19.689  0.00  0.00    +0.000 HD
ENDBRANCH  18  20
ENDBRANCH  10  18
ENDBRANCH   1  13
BRANCH   7  22
ATOM     22  C   UNL     1      -0.489  10.579  22.736  0.00  0.00    +0.000 C 
ATOM     23  N   UNL     1      -0.598   9.257  23.052  0.00  0.00    +0.000 N 
ATOM     24  O   UNL     1      -1.086  11.427  23.389  0.00  0.00    +0.000 OA
ATOM     25  H   UNL     1      -0.212   8.538  22.452  0.00  0.00    +0.000 HD
ATOM     26  H   UNL     1      -1.283   9.006  23.751  0.00  0.00    +0.000 HD
ENDBRANCH   7  22
TORSDOF 5
ENDMDL
MODEL 5
REMARK VINA RESULT:      -7.3      3.103      7.170
REMARK  Name = 
REMARK  7 active torsions:
REMARK  status: ('A' for Active; 'I' for Inactive)
REMARK    1  A    between atoms: C_1  and  N_2
REMARK    2  A    between atoms: N_2  and  C_3
REMARK    3  A    between atoms: C_3  and  C_4
REMARK    4  A    between atoms: C_7  and  N_8
REMARK    5  A    between atoms: C_14  and  C_15
REMARK    6  A    between atoms: C_21  and  O_22
REMARK    7  A    between atoms: O_22  and  C_23
REMARK                            x       y       z     vdW  Elec       q    Type
REMARK                         _______ _______ _______ _____ _____    ______ ____
ROOT
ATOM      1  N   UNL     1       2.177   7.489  18.627  0.00  0.00    +0.000 N 
ATOM      2  C   UNL     1       1.604   8.499  17.891  0.00  0.00    +0.000 A 
ATOM      3  C   UNL     1       1.534   9.510  18.792  0.00  0.00    +0.000 A 
ATOM      4  C   UNL     1       1.433  10.846  18.437  0.00  0.00    +0.000 A 
ATOM      5  C   UNL     1       1.220  11.654  19.556  0.00  0.00    +0.000 A 
ATOM      6  C   UNL     1       0.974  11.119  20.854  0.00  0.00    +0.000 A 
ATOM      7  C   UNL     1       1.018   9.727  21.174  0.00  0.00    +0.000 A 
ATOM      8  C   UNL     1       1.440   8.895  20.097  0.00  0.00    +0.000 A 
ATOM      9  N   UNL     1       1.785   7.577  19.952  0.00  0.00    +0.000 NA
ENDROOT
BRANCH   1  13
ATOM     10  C   UNL     1       5.182   4.992  16.851  0.00  0.00    +0.000 A 
ATOM     11  C   UNL     1       3.986   4.433  17.370  0.00  0.00    +0.000 A 
ATOM     12  C   UNL     1       2.977   5.216  17.988  0.00  0.00    +0.000 A 
ATOM     13  C   UNL     1       3.142   6.592  18.065  0.00  0.00    +0.000 A 
ATOM     14  C   UNL     1       4.356   7.144  17.598  0.00  0.00    +0.000 A 
ATOM     15  C   UNL     1       5.374   6.368  17.032  0.00  0.00    +0.000 A 
BRANCH  15  16
ATOM     16  O   UNL     1       6.447   7.108  16.603  0.00  0.00    +0.000 OA
ATOM     17  C   UNL     1       7.471   7.386  17.555  0.00  0.00    +0.000 C 
ENDBRANCH  15  16
BRANCH  10  18
ATOM     18  C   UNL     1       6.248   4.163  16.159  0.00  0.00    +0.000 C 
BRANCH  18  20
ATOM     19  C   UNL     1       6.264   3.945  13.771  0.00  0.00    +0.000 C 
ATOM     20  N   UNL     1       6.797   4.699  14.909  0.00  0.00    +0.000 NA
ATOM     21  H   UNL     1       6.516   5.669  14.806  0.00  0.00    +0.000 HD
ENDBRANCH  18  20
ENDBRANCH  10  18
ENDBRANCH   1  13
BRANCH   7  22
ATOM     22  C   UNL     1       0.470   9.297  22.470  0.00  0.00    +0.000 C 
ATOM     23  N   UNL     1      -0.704   8.603  22.471  0.00  0.00    +0.000 N 
ATOM     24  O   UNL     1       0.985   9.650  23.525  0.00  0.00    +0.000 OA
ATOM     25  H   UNL     1      -1.203   8.412  21.610  0.00  0.00    +0.000 HD
ATOM     26  H   UNL     1      -1.185   8.513  23.355  0.00  0.00    +0.000 HD
ENDBRANCH   7  22
TORSDOF 5
ENDMDL
MODEL 6
REMARK VINA RESULT:      -7.2      5.078      7.118
REMARK  Name = 
REMARK  7 active torsions:
REMARK  status: ('A' for Active; 'I' for Inactive)
REMARK    1  A    between atoms: C_1  and  N_2
REMARK    2  A    between atoms: N_2  and  C_3
REMARK    3  A    between atoms: C_3  and  C_4
REMARK    4  A    between atoms: C_7  and  N_8
REMARK    5  A    between atoms: C_14  and  C_15
REMARK    6  A    between atoms: C_21  and  O_22
REMARK    7  A    between atoms: O_22  and  C_23
REMARK                            x       y       z     vdW  Elec       q    Type
REMARK                         _______ _______ _______ _____ _____    ______ ____
ROOT
ATOM      1  N   UNL     1       5.460   4.405  15.920  0.00  0.00    +0.000 N 
ATOM      2  C   UNL     1       6.797   4.706  15.813  0.00  0.00    +0.000 A 
ATOM      3  C   UNL     1       6.961   4.818  14.471  0.00  0.00    +0.000 A 
ATOM      4  C   UNL     1       8.004   5.516  13.883  0.00  0.00    +0.000 A 
ATOM      5  C   UNL     1       8.019   5.336  12.498  0.00  0.00    +0.000 A 
ATOM      6  C   UNL     1       7.161   4.410  11.835  0.00  0.00    +0.000 A 
ATOM      7  C   UNL     1       6.138   3.652  12.483  0.00  0.00    +0.000 A 
ATOM      8  C   UNL     1       5.961   3.972  13.861  0.00  0.00    +0.000 A 
ATOM      9  N   UNL     1       5.046   3.656  14.831  0.00  0.00    +0.000 NA
ENDROOT
BRANCH   1  13
ATOM     10  C   UNL     1       2.939   5.779  19.110  0.00  0.00    +0.000 A 
ATOM     11  C   UNL     1       3.488   6.692  18.172  0.00  0.00    +0.000 A 
ATOM     12  C   UNL     1       4.346   6.287  17.118  0.00  0.00    +0.000 A 
ATOM     13  C   UNL     1       4.642   4.939  16.968  0.00  0.00    +0.000 A 
ATOM     14  C   UNL     1       4.140   4.035  17.932  0.00  0.00    +0.000 A 
ATOM     15  C   UNL     1       3.332   4.439  19.002  0.00  0.00    +0.000 A 
BRANCH  15  16
ATOM     16  O   UNL     1       2.916   3.398  19.792  0.00  0.00    +0.000 OA
ATOM     17  C   UNL     1       1.994   2.472  19.220  0.00  0.00    +0.000 C 
ENDBRANCH  15  16
BRANCH  10  18
ATOM     18  C   UNL     1       1.993   6.204  20.218  0.00  0.00    +0.000 C 
BRANCH  18  20
ATOM     19  C   UNL     1       0.872   8.100  21.165  0.00  0.00    +0.000 C 
ATOM     20  N   UNL     1       2.170   7.555  20.759  0.00  0.00    +0.000 NA
ATOM     21  H   UNL     1       2.767   7.515  21.578  0.00  0.00    +0.000 HD
ENDBRANCH  18  20
ENDBRANCH  10  18
ENDBRANCH   1  13
BRANCH   7  22
ATOM     22  C   UNL     1       5.526   2.538  11.742  0.00  0.00    +0.000 C 
ATOM     23  N   UNL     1       6.296   1.443  11.480  0.00  0.00    +0.000 N 
ATOM     24  O   UNL     1       4.400   2.635  11.268  0.00  0.00    +0.000 OA
ATOM     25  H   UNL     1       7.269   1.403  11.761  0.00  0.00    +0.000 HD
ATOM     26  H   UNL     1       5.953   0.794  10.786  0.00  0.00    +0.000 HD
ENDBRANCH   7  22
TORSDOF 5
ENDMDL
MODEL 7
REMARK VINA RESULT:      -7.2      2.078      2.600
REMARK  Name = 
REMARK  7 active torsions:
REMARK  status: ('A' for Active; 'I' for Inactive)
REMARK    1  A    between atoms: C_1  and  N_2
REMARK    2  A    between atoms: N_2  and  C_3
REMARK    3  A    between atoms: C_3  and  C_4
REMARK    4  A    between atoms: C_7  and  N_8
REMARK    5  A    between atoms: C_14  and  C_15
REMARK    6  A    between atoms: C_21  and  O_22
REMARK    7  A    between atoms: O_22  and  C_23
REMARK                            x       y       z     vdW  Elec       q    Type
REMARK                         _______ _______ _______ _____ _____    ______ ____
ROOT
ATOM      1  N   UNL     1       3.154   7.058  18.535  0.00  0.00    +0.000 N 
ATOM      2  C   UNL     1       4.291   7.280  17.796  0.00  0.00    +0.000 A 
ATOM      3  C   UNL     1       4.435   6.109  17.126  0.00  0.00    +0.000 A 
ATOM      4  C   UNL     1       5.166   5.981  15.956  0.00  0.00    +0.000 A 
ATOM      5  C   UNL     1       5.278   4.643  15.571  0.00  0.00    +0.000 A 
ATOM      6  C   UNL     1       4.832   3.567  16.393  0.00  0.00    +0.000 A 
ATOM      7  C   UNL     1       4.141   3.733  17.633  0.00  0.00    +0.000 A 
ATOM      8  C   UNL     1       3.826   5.087  17.948  0.00  0.00    +0.000 A 
ATOM      9  N   UNL     1       3.067   5.723  18.895  0.00  0.00    +0.000 NA
ENDROOT
BRANCH   1  13
ATOM     10  C   UNL     1       0.151  10.006  19.375  0.00  0.00    +0.000 A 
ATOM     11  C   UNL     1       0.781   9.951  18.105  0.00  0.00    +0.000 A 
ATOM     12  C   UNL     1       1.795   9.011  17.790  0.00  0.00    +0.000 A 
ATOM     13  C   UNL     1       2.174   8.080  18.748  0.00  0.00    +0.000 A 
ATOM     14  C   UNL     1       1.587   8.168  20.031  0.00  0.00    +0.000 A 
ATOM     15  C   UNL     1       0.620   9.126  20.358  0.00  0.00    +0.000 A 
BRANCH  15  16
ATOM     16  O   UNL     1       0.150   9.006  21.642  0.00  0.00    +0.000 OA
ATOM     17  C   UNL     1       1.047   9.336  22.700  0.00  0.00    +0.000 C 
ENDBRANCH  15  16
BRANCH  10  18
ATOM     18  C   UNL     1      -0.959  10.987  19.704  0.00  0.00    +0.000 C 
BRANCH  18  20
ATOM     19  C   UNL     1      -1.872  12.110  21.616  0.00  0.00    +0.000 C 
ATOM     20  N   UNL     1      -0.688  11.963  20.765  0.00  0.00    +0.000 NA
ATOM     21  H   UNL     1       0.077  11.630  21.342  0.00  0.00    +0.000 HD
ENDBRANCH  18  20
ENDBRANCH  10  18
ENDBRANCH   1  13
BRANCH   7  22
ATOM     22  C   UNL     1       3.994   2.558  18.506  0.00  0.00    +0.000 C 
ATOM     23  N   UNL     1       4.863   2.423  19.549  0.00  0.00    +0.000 N 
ATOM     24  O   UNL     1       3.196   1.666  18.241  0.00  0.00    +0.000 OA
ATOM     25  H   UNL     1       5.607   3.092  19.705  0.00  0.00    +0.000 HD
ATOM     26  H   UNL     1       4.906   1.518  19.997  0.00  0.00    +0.000 HD
ENDBRANCH   7  22
TORSDOF 5
ENDMDL
MODEL 8
REMARK VINA RESULT:      -7.2      2.332      7.839
REMARK  Name = 
REMARK  7 active torsions:
REMARK  status: ('A' for Active; 'I' for Inactive)
REMARK    1  A    between atoms: C_1  and  N_2
REMARK    2  A    between atoms: N_2  and  C_3
REMARK    3  A    between atoms: C_3  and  C_4
REMARK    4  A    between atoms: C_7  and  N_8
REMARK    5  A    between atoms: C_14  and  C_15
REMARK    6  A    between atoms: C_21  and  O_22
REMARK    7  A    between atoms: O_22  and  C_23
REMARK                            x       y       z     vdW  Elec       q    Type
REMARK                         _______ _______ _______ _____ _____    ______ ____
ROOT
ATOM      1  N   UNL     1       1.549   8.180  20.544  0.00  0.00    +0.000 N 
ATOM      2  C   UNL     1       1.566   8.528  21.874  0.00  0.00    +0.000 A 
ATOM      3  C   UNL     1       0.530   9.400  21.958  0.00  0.00    +0.000 A 
ATOM      4  C   UNL     1      -0.124   9.698  23.143  0.00  0.00    +0.000 A 
ATOM      5  C   UNL     1      -1.040  10.738  22.969  0.00  0.00    +0.000 A 
ATOM      6  C   UNL     1      -1.136  11.482  21.757  0.00  0.00    +0.000 A 
ATOM      7  C   UNL     1      -0.394  11.191  20.571  0.00  0.00    +0.000 A 
ATOM      8  C   UNL     1       0.393  10.006  20.653  0.00  0.00    +0.000 A 
ATOM      9  N   UNL     1       1.119   9.247  19.773  0.00  0.00    +0.000 NA
ENDROOT
BRANCH   1  13
ATOM     10  C   UNL     1       2.437   4.269  19.018  0.00  0.00    +0.000 A 
ATOM     11  C   UNL     1       1.646   4.432  20.185  0.00  0.00    +0.000 A 
ATOM     12  C   UNL     1       1.348   5.703  20.740  0.00  0.00    +0.000 A 
ATOM     13  C   UNL     1       1.818   6.844  20.104  0.00  0.00    +0.000 A 
ATOM     14  C   UNL     1       2.650   6.682  18.973  0.00  0.00    +0.000 A 
ATOM     15  C   UNL     1       2.985   5.426  18.453  0.00  0.00    +0.000 A 
BRANCH  15  16
ATOM     16  O   UNL     1       3.765   5.496  17.326  0.00  0.00    +0.000 OA
ATOM     17  C   UNL     1       4.659   6.602  17.218  0.00  0.00    +0.000 C 
ENDBRANCH  15  16
BRANCH  10  18
ATOM     18  C   UNL     1       2.729   2.913  18.403  0.00  0.00    +0.000 C 
BRANCH  18  20
ATOM     19  C   UNL     1       4.490   2.194  19.862  0.00  0.00    +0.000 C 
ATOM     20  N   UNL     1       4.115   2.440  18.467  0.00  0.00    +0.000 NA
ATOM     21  H   UNL     1       4.198   1.566  17.958  0.00  0.00    +0.000 HD
ENDBRANCH  18  20
ENDBRANCH  10  18
ENDBRANCH   1  13
BRANCH   7  22
ATOM     22  C   UNL     1      -0.378  12.199  19.499  0.00  0.00    +0.000 C 
ATOM     23  N   UNL     1       0.334  11.921  18.370  0.00  0.00    +0.000 N 
ATOM     24  O   UNL     1      -0.886  13.302  19.659  0.00  0.00    +0.000 OA
ATOM     25  H   UNL     1       0.861  11.061  18.277  0.00  0.00    +0.000 HD
ATOM     26  H   UNL     1       0.530  12.693  17.748  0.00  0.00    +0.000 HD
ENDBRANCH   7  22
TORSDOF 5
ENDMDL
MODEL 9
REMARK VINA RESULT:      -7.2      2.234      7.286
REMARK  Name = 
REMARK  7 active torsions:
REMARK  status: ('A' for Active; 'I' for Inactive)
REMARK    1  A    between atoms: C_1  and  N_2
REMARK    2  A    between atoms: N_2  and  C_3
REMARK    3  A    between atoms: C_3  and  C_4
REMARK    4  A    between atoms: C_7  and  N_8
REMARK    5  A    between atoms: C_14  and  C_15
REMARK    6  A    between atoms: C_21  and  O_22
REMARK    7  A    between atoms: O_22  and  C_23
REMARK                            x       y       z     vdW  Elec       q    Type
REMARK                         _______ _______ _______ _____ _____    ______ ____
ROOT
ATOM      1  N   UNL     1       1.383   8.618  19.405  0.00  0.00    +0.000 N 
ATOM      2  C   UNL     1       1.160   9.663  18.541  0.00  0.00    +0.000 A 
ATOM      3  C   UNL     1       1.068  10.721  19.385  0.00  0.00    +0.000 A 
ATOM      4  C   UNL     1       1.270  12.035  18.991  0.00  0.00    +0.000 A 
ATOM      5  C   UNL     1       0.959  12.927  20.019  0.00  0.00    +0.000 A 
ATOM      6  C   UNL     1       0.351  12.510  21.240  0.00  0.00    +0.000 A 
ATOM      7  C   UNL     1       0.092  11.149  21.588  0.00  0.00    +0.000 A 
ATOM      8  C   UNL     1       0.591  10.202  20.647  0.00  0.00    +0.000 A 
ATOM      9  N   UNL     1       0.734   8.840  20.607  0.00  0.00    +0.000 NA
ENDROOT
BRANCH   1  13
ATOM     10  C   UNL     1       4.047   5.332  18.680  0.00  0.00    +0.000 A 
ATOM     11  C   UNL     1       3.981   6.427  17.780  0.00  0.00    +0.000 A 
ATOM     12  C   UNL     1       3.099   7.522  17.965  0.00  0.00    +0.000 A 
ATOM     13  C   UNL     1       2.283   7.549  19.088  0.00  0.00    +0.000 A 
ATOM     14  C   UNL     1       2.308   6.434  19.957  0.00  0.00    +0.000 A 
ATOM     15  C   UNL     1       3.143   5.330  19.749  0.00  0.00    +0.000 A 
BRANCH  15  16
ATOM     16  O   UNL     1       3.043   4.381  20.735  0.00  0.00    +0.000 OA
ATOM     17  C   UNL     1       1.743   3.864  21.014  0.00  0.00    +0.000 C 
ENDBRANCH  15  16
BRANCH  10  18
ATOM     18  C   UNL     1       5.014   4.175  18.503  0.00  0.00    +0.000 C 
BRANCH  18  20
ATOM     19  C   UNL     1       3.581   2.414  17.734  0.00  0.00    +0.000 C 
ATOM     20  N   UNL     1       4.502   2.833  18.794  0.00  0.00    +0.000 NA
ATOM     21  H   UNL     1       5.275   2.175  18.820  0.00  0.00    +0.000 HD
ENDBRANCH  18  20
ENDBRANCH  10  18
ENDBRANCH   1  13
BRANCH   7  22
ATOM     22  C   UNL     1      -0.788  10.883  22.737  0.00  0.00    +0.000 C 
ATOM     23  N   UNL     1      -0.754   9.639  23.296  0.00  0.00    +0.000 N 
ATOM     24  O   UNL     1      -1.611  11.711  23.110  0.00  0.00    +0.000 OA
ATOM     25  H   UNL     1      -0.164   8.907  22.917  0.00  0.00    +0.000 HD
ATOM     26  H   UNL     1      -1.508   9.395  23.922  0.00  0.00    +0.000 HD
ENDBRANCH   7  22
TORSDOF 5
ENDMDL
