MODEL 1
REMARK VINA RESULT:      -9.9      0.000      0.000
REMARK  Name = 
REMARK  6 active torsions:
REMARK  status: ('A' for Active; 'I' for Inactive)
REMARK    1  A    between atoms: C_2  and  O_3
REMARK    2  A    between atoms: C_2  and  C_4
REMARK    3  A    between atoms: C_4  and  C_5
REMARK    4  A    between atoms: C_8  and  C_9
REMARK    5  A    between atoms: C_12  and  C_13
REMARK    6  A    between atoms: N_25  and  C_26
REMARK                            x       y       z     vdW  Elec       q    Type
REMARK                         _______ _______ _______ _____ _____    ______ ____
ROOT
ATOM      1  C   UNL     1       1.964   8.340  19.253  0.00  0.00    +0.000 A 
ATOM      2  C   UNL     1       2.665   8.660  18.096  0.00  0.00    +0.000 A 
ATOM      3  C   UNL     1       3.530   7.726  17.531  0.00  0.00    +0.000 A 
ATOM      4  C   UNL     1       3.706   6.473  18.109  0.00  0.00    +0.000 A 
ATOM      5  C   UNL     1       2.992   6.251  19.304  0.00  0.00    +0.000 A 
ATOM      6  N   UNL     1       2.149   7.150  19.875  0.00  0.00    +0.000 NA
ATOM      7  O   UNL     1       3.081   5.082  20.021  0.00  0.00    +0.000 OA
ATOM      8  C   UNL     1       3.588   3.989  19.259  0.00  0.00    +0.000 C 
ATOM      9  C   UNL     1       4.858   4.378  18.517  0.00  0.00    +0.000 C 
ATOM     10  N   UNL     1       4.558   5.445  17.551  0.00  0.00    +0.000 N 
ATOM     11  C   UNL     1       5.070   5.519  16.245  0.00  0.00    +0.000 C 
ATOM     12  O   UNL     1       4.883   6.471  15.489  0.00  0.00    +0.000 OA
ATOM     13  N   UNL     1       5.732   4.384  15.799  0.00  0.00    +0.000 N 
ATOM     14  H   UNL     1       5.309   3.521  16.102  0.00  0.00    +0.000 HD
ENDROOT
BRANCH   1  18
ATOM     15  C   UNL     1      -0.898  11.066  21.023  0.00  0.00    +0.000 A 
ATOM     16  C   UNL     1      -0.060  10.288  21.825  0.00  0.00    +0.000 A 
ATOM     17  C   UNL     1       0.862   9.407  21.250  0.00  0.00    +0.000 A 
ATOM     18  C   UNL     1       0.978   9.265  19.855  0.00  0.00    +0.000 A 
ATOM     19  C   UNL     1       0.125  10.044  19.059  0.00  0.00    +0.000 A 
ATOM     20  C   UNL     1      -0.800  10.929  19.632  0.00  0.00    +0.000 A 
BRANCH  15  24
ATOM     21  C   UNL     1      -4.475  12.873  22.790  0.00  0.00    +0.000 C 
ATOM     22  C   UNL     1      -4.006  13.354  21.405  0.00  0.00    +0.000 C 
ATOM     23  C   UNL     1      -3.049  12.352  20.766  0.00  0.00    +0.000 C 
ATOM     24  C   UNL     1      -1.841  12.065  21.671  0.00  0.00    +0.000 C 
ATOM     25  C   UNL     1      -2.283  11.628  23.077  0.00  0.00    +0.000 C 
ATOM     26  C   UNL     1      -3.258  12.631  23.698  0.00  0.00    +0.000 C 
BRANCH  21  27
ATOM     27  C   UNL     1      -5.439  13.880  23.436  0.00  0.00    +0.000 C 
BRANCH  27  29
ATOM     28  O   UNL     1      -6.894  12.010  23.972  0.00  0.00    +0.000 OA
ATOM     29  C   UNL     1      -6.670  13.209  24.019  0.00  0.00    +0.000 C 
BRANCH  29  30
ATOM     30  O   UNL     1      -7.491  14.095  24.637  0.00  0.00    +0.000 OA
ATOM     31  H   UNL     1      -8.135  13.719  25.276  0.00  0.00    +0.000 HD
ENDBRANCH  29  30
ENDBRANCH  27  29
ENDBRANCH  21  27
ENDBRANCH  15  24
ENDBRANCH   1  18
BRANCH  13  32
ATOM     32  C   UNL     1       6.267   4.344  14.482  0.00  0.00    +0.000 A 
ATOM     33  C   UNL     1       7.382   5.104  14.114  0.00  0.00    +0.000 A 
ATOM     34  C   UNL     1       7.850   5.069  12.797  0.00  0.00    +0.000 A 
ATOM     35  C   UNL     1       7.200   4.280  11.851  0.00  0.00    +0.000 A 
ATOM     36  C   UNL     1       6.091   3.514  12.218  0.00  0.00    +0.000 A 
ATOM     37  C   UNL     1       5.641   3.525  13.538  0.00  0.00    +0.000 A 
ENDBRANCH  13  32
TORSDOF 6
ENDMDL
MODEL 2
REMARK VINA RESULT:      -9.7      0.325      1.014
REMARK  Name = 
REMARK  6 active torsions:
REMARK  status: ('A' for Active; 'I' for Inactive)
REMARK    1  A    between atoms: C_2  and  O_3
REMARK    2  A    between atoms: C_2  and  C_4
REMARK    3  A    between atoms: C_4  and  C_5
REMARK    4  A    between atoms: C_8  and  C_9
REMARK    5  A    between atoms: C_12  and  C_13
REMARK    6  A    between atoms: N_25  and  C_26
REMARK                            x       y       z     vdW  Elec       q    Type
REMARK                         _______ _______ _______ _____ _____    ______ ____
ROOT
ATOM      1  C   UNL     1       1.858   8.474  19.346  0.00  0.00    +0.000 A 
ATOM      2  C   UNL     1       2.586   8.777  18.202  0.00  0.00    +0.000 A 
ATOM      3  C   UNL     1       3.425   7.816  17.642  0.00  0.00    +0.000 A 
ATOM      4  C   UNL     1       3.548   6.554  18.213  0.00  0.00    +0.000 A 
ATOM      5  C   UNL     1       2.809   6.349  19.395  0.00  0.00    +0.000 A 
ATOM      6  N   UNL     1       1.991   7.273  19.961  0.00  0.00    +0.000 NA
ATOM      7  O   UNL     1       2.845   5.171  20.104  0.00  0.00    +0.000 OA
ATOM      8  C   UNL     1       3.324   4.067  19.340  0.00  0.00    +0.000 C 
ATOM      9  C   UNL     1       4.618   4.416  18.620  0.00  0.00    +0.000 C 
ATOM     10  N   UNL     1       4.371   5.500  17.659  0.00  0.00    +0.000 N 
ATOM     11  C   UNL     1       4.904   5.565  16.361  0.00  0.00    +0.000 C 
ATOM     12  O   UNL     1       4.762   6.530  15.610  0.00  0.00    +0.000 OA
ATOM     13  N   UNL     1       5.532   4.411  15.915  0.00  0.00    +0.000 N 
ATOM     14  H   UNL     1       5.074   3.562  16.205  0.00  0.00    +0.000 HD
ENDROOT
BRANCH   1  18
ATOM     15  C   UNL     1      -0.980  11.250  21.078  0.00  0.00    +0.000 A 
ATOM     16  C   UNL     1      -0.738  11.239  19.702  0.00  0.00    +0.000 A 
ATOM     17  C   UNL     1       0.181  10.342  19.145  0.00  0.00    +0.000 A 
ATOM     18  C   UNL     1       0.897   9.428  19.942  0.00  0.00    +0.000 A 
ATOM     19  C   UNL     1       0.652   9.454  21.323  0.00  0.00    +0.000 A 
ATOM     20  C   UNL     1      -0.269  10.351  21.883  0.00  0.00    +0.000 A 
BRANCH  15  24
ATOM     21  C   UNL     1      -4.716  12.762  22.792  0.00  0.00    +0.000 C 
ATOM     22  C   UNL     1      -4.368  13.118  21.336  0.00  0.00    +0.000 C 
ATOM     23  C   UNL     1      -3.301  12.183  20.777  0.00  0.00    +0.000 C 
ATOM     24  C   UNL     1      -2.033  12.185  21.646  0.00  0.00    +0.000 C 
ATOM     25  C   UNL     1      -2.359  11.879  23.117  0.00  0.00    +0.000 C 
ATOM     26  C   UNL     1      -3.446  12.810  23.658  0.00  0.00    +0.000 C 
BRANCH  21  27
ATOM     27  C   UNL     1      -5.790  13.703  23.359  0.00  0.00    +0.000 C 
BRANCH  27  29
ATOM     28  O   UNL     1      -7.879  13.391  24.561  0.00  0.00    +0.000 OA
ATOM     29  C   UNL     1      -7.044  12.958  23.783  0.00  0.00    +0.000 C 
BRANCH  29  30
ATOM     30  O   UNL     1      -7.156  11.754  23.167  0.00  0.00    +0.000 OA
ATOM     31  H   UNL     1      -6.795  11.695  22.257  0.00  0.00    +0.000 HD
ENDBRANCH  29  30
ENDBRANCH  27  29
ENDBRANCH  21  27
ENDBRANCH  15  24
ENDBRANCH   1  18
BRANCH  13  32
ATOM     32  C   UNL     1       6.084   4.362  14.606  0.00  0.00    +0.000 A 
ATOM     33  C   UNL     1       7.229   5.086  14.259  0.00  0.00    +0.000 A 
ATOM     34  C   UNL     1       7.715   5.044  12.949  0.00  0.00    +0.000 A 
ATOM     35  C   UNL     1       7.053   4.284  11.988  0.00  0.00    +0.000 A 
ATOM     36  C   UNL     1       5.913   3.554  12.333  0.00  0.00    +0.000 A 
ATOM     37  C   UNL     1       5.444   3.571  13.647  0.00  0.00    +0.000 A 
ENDBRANCH  13  32
TORSDOF 6
ENDMDL
MODEL 3
REMARK VINA RESULT:      -9.3      1.757      2.059
REMARK  Name = 
REMARK  6 active torsions:
REMARK  status: ('A' for Active; 'I' for Inactive)
REMARK    1  A    between atoms: C_2  and  O_3
REMARK    2  A    between atoms: C_2  and  C_4
REMARK    3  A    between atoms: C_4  and  C_5
REMARK    4  A    between atoms: C_8  and  C_9
REMARK    5  A    between atoms: C_12  and  C_13
REMARK    6  A    between atoms: N_25  and  C_26
REMARK                            x       y       z     vdW  Elec       q    Type
REMARK                         _______ _______ _______ _____ _____    ______ ____
ROOT
ATOM      1  C   UNL     1       1.994   8.276  19.254  0.00  0.00    +0.000 A 
ATOM      2  C   UNL     1       2.704   8.595  18.103  0.00  0.00    +0.000 A 
ATOM      3  C   UNL     1       3.548   7.647  17.527  0.00  0.00    +0.000 A 
ATOM      4  C   UNL     1       3.692   6.383  18.089  0.00  0.00    +0.000 A 
ATOM      5  C   UNL     1       2.971   6.163  19.279  0.00  0.00    +0.000 A 
ATOM      6  N   UNL     1       2.148   7.074  19.860  0.00  0.00    +0.000 NA
ATOM      7  O   UNL     1       3.029   4.982  19.981  0.00  0.00    +0.000 OA
ATOM      8  C   UNL     1       3.512   3.888  19.204  0.00  0.00    +0.000 C 
ATOM      9  C   UNL     1       4.792   4.256  18.471  0.00  0.00    +0.000 C 
ATOM     10  N   UNL     1       4.521   5.342  17.519  0.00  0.00    +0.000 N 
ATOM     11  C   UNL     1       5.037   5.422  16.215  0.00  0.00    +0.000 C 
ATOM     12  O   UNL     1       4.874   6.388  15.471  0.00  0.00    +0.000 OA
ATOM     13  N   UNL     1       5.673   4.277  15.755  0.00  0.00    +0.000 N 
ATOM     14  H   UNL     1       5.229   3.421  16.045  0.00  0.00    +0.000 HD
ENDROOT
BRANCH   1  18
ATOM     15  C   UNL     1      -0.807  11.042  21.062  0.00  0.00    +0.000 A 
ATOM     16  C   UNL     1      -0.189  10.048  21.825  0.00  0.00    +0.000 A 
ATOM     17  C   UNL     1       0.714   9.154  21.237  0.00  0.00    +0.000 A 
ATOM     18  C   UNL     1       1.028   9.216  19.867  0.00  0.00    +0.000 A 
ATOM     19  C   UNL     1       0.395  10.212  19.109  0.00  0.00    +0.000 A 
ATOM     20  C   UNL     1      -0.509  11.109  19.695  0.00  0.00    +0.000 A 
BRANCH  15  24
ATOM     21  C   UNL     1      -2.456  13.890  23.951  0.00  0.00    +0.000 C 
ATOM     22  C   UNL     1      -3.129  12.515  23.796  0.00  0.00    +0.000 C 
ATOM     23  C   UNL     1      -2.202  11.520  23.104  0.00  0.00    +0.000 C 
ATOM     24  C   UNL     1      -1.728  12.042  21.738  0.00  0.00    +0.000 C 
ATOM     25  C   UNL     1      -1.095  13.437  21.858  0.00  0.00    +0.000 C 
ATOM     26  C   UNL     1      -2.027  14.419  22.572  0.00  0.00    +0.000 C 
BRANCH  21  27
ATOM     27  C   UNL     1      -3.388  14.895  24.647  0.00  0.00    +0.000 C 
BRANCH  27  29
ATOM     28  O   UNL     1      -2.758  17.151  25.293  0.00  0.00    +0.000 OA
ATOM     29  C   UNL     1      -2.621  15.946  25.430  0.00  0.00    +0.000 C 
BRANCH  29  30
ATOM     30  O   UNL     1      -1.778  15.393  26.338  0.00  0.00    +0.000 OA
ATOM     31  H   UNL     1      -1.721  15.841  27.209  0.00  0.00    +0.000 HD
ENDBRANCH  29  30
ENDBRANCH  27  29
ENDBRANCH  21  27
ENDBRANCH  15  24
ENDBRANCH   1  18
BRANCH  13  32
ATOM     32  C   UNL     1       6.210   4.242  14.438  0.00  0.00    +0.000 A 
ATOM     33  C   UNL     1       7.316   5.014  14.071  0.00  0.00    +0.000 A 
ATOM     34  C   UNL     1       7.786   4.983  12.754  0.00  0.00    +0.000 A 
ATOM     35  C   UNL     1       7.146   4.186  11.808  0.00  0.00    +0.000 A 
ATOM     36  C   UNL     1       6.045   3.409  12.174  0.00  0.00    +0.000 A 
ATOM     37  C   UNL     1       5.593   3.416  13.494  0.00  0.00    +0.000 A 
ENDBRANCH  13  32
TORSDOF 6
ENDMDL
MODEL 4
REMARK VINA RESULT:      -9.1      1.383      1.924
REMARK  Name = 
REMARK  6 active torsions:
REMARK  status: ('A' for Active; 'I' for Inactive)
REMARK    1  A    between atoms: C_2  and  O_3
REMARK    2  A    between atoms: C_2  and  C_4
REMARK    3  A    between atoms: C_4  and  C_5
REMARK    4  A    between atoms: C_8  and  C_9
REMARK    5  A    between atoms: C_12  and  C_13
REMARK    6  A    between atoms: N_25  and  C_26
REMARK                            x       y       z     vdW  Elec       q    Type
REMARK                         _______ _______ _______ _____ _____    ______ ____
ROOT
ATOM      1  C   UNL     1       1.927   8.415  19.217  0.00  0.00    +0.000 A 
ATOM      2  C   UNL     1       2.610   8.711  18.043  0.00  0.00    +0.000 A 
ATOM      3  C   UNL     1       3.485   7.774  17.498  0.00  0.00    +0.000 A 
ATOM      4  C   UNL     1       3.688   6.542  18.112  0.00  0.00    +0.000 A 
ATOM      5  C   UNL     1       2.991   6.346  19.321  0.00  0.00    +0.000 A 
ATOM      6  N   UNL     1       2.139   7.248  19.873  0.00  0.00    +0.000 NA
ATOM      7  O   UNL     1       3.107   5.200  20.072  0.00  0.00    +0.000 OA
ATOM      8  C   UNL     1       3.625   4.094  19.338  0.00  0.00    +0.000 C 
ATOM      9  C   UNL     1       4.880   4.481  18.571  0.00  0.00    +0.000 C 
ATOM     10  N   UNL     1       4.552   5.512  17.577  0.00  0.00    +0.000 N 
ATOM     11  C   UNL     1       5.048   5.555  16.264  0.00  0.00    +0.000 C 
ATOM     12  O   UNL     1       4.837   6.480  15.481  0.00  0.00    +0.000 OA
ATOM     13  N   UNL     1       5.726   4.418  15.845  0.00  0.00    +0.000 N 
ATOM     14  H   UNL     1       5.321   3.558  16.179  0.00  0.00    +0.000 HD
ENDROOT
BRANCH   1  18
ATOM     15  C   UNL     1      -1.011  11.104  20.919  0.00  0.00    +0.000 A 
ATOM     16  C   UNL     1      -0.850  11.003  19.535  0.00  0.00    +0.000 A 
ATOM     17  C   UNL     1       0.102  10.135  18.988  0.00  0.00    +0.000 A 
ATOM     18  C   UNL     1       0.931   9.341  19.802  0.00  0.00    +0.000 A 
ATOM     19  C   UNL     1       0.767   9.457  21.190  0.00  0.00    +0.000 A 
ATOM     20  C   UNL     1      -0.186  10.325  21.741  0.00  0.00    +0.000 A 
BRANCH  15  24
ATOM     21  C   UNL     1      -3.057  14.238  23.192  0.00  0.00    +0.000 C 
ATOM     22  C   UNL     1      -3.272  12.768  23.594  0.00  0.00    +0.000 C 
ATOM     23  C   UNL     1      -2.184  11.871  23.012  0.00  0.00    +0.000 C 
ATOM     24  C   UNL     1      -2.098  12.001  21.484  0.00  0.00    +0.000 C 
ATOM     25  C   UNL     1      -1.932  13.467  21.053  0.00  0.00    +0.000 C 
ATOM     26  C   UNL     1      -3.017  14.359  21.660  0.00  0.00    +0.000 C 
BRANCH  21  27
ATOM     27  C   UNL     1      -4.152  15.145  23.776  0.00  0.00    +0.000 C 
BRANCH  27  29
ATOM     28  O   UNL     1      -2.452  16.162  25.182  0.00  0.00    +0.000 OA
ATOM     29  C   UNL     1      -3.630  16.039  24.886  0.00  0.00    +0.000 C 
BRANCH  29  30
ATOM     30  O   UNL     1      -4.626  16.725  25.502  0.00  0.00    +0.000 OA
ATOM     31  H   UNL     1      -4.350  17.370  26.188  0.00  0.00    +0.000 HD
ENDBRANCH  29  30
ENDBRANCH  27  29
ENDBRANCH  21  27
ENDBRANCH  15  24
ENDBRANCH   1  18
BRANCH  13  32
ATOM     32  C   UNL     1       6.248   4.347  14.524  0.00  0.00    +0.000 A 
ATOM     33  C   UNL     1       7.371   5.081  14.133  0.00  0.00    +0.000 A 
ATOM     34  C   UNL     1       7.827   5.015  12.812  0.00  0.00    +0.000 A 
ATOM     35  C   UNL     1       7.155   4.222  11.886  0.00  0.00    +0.000 A 
ATOM     36  C   UNL     1       6.036   3.482  12.276  0.00  0.00    +0.000 A 
ATOM     37  C   UNL     1       5.598   3.523  13.600  0.00  0.00    +0.000 A 
ENDBRANCH  13  32
TORSDOF 6
ENDMDL
MODEL 5
REMARK VINA RESULT:      -9.1      1.010      1.431
REMARK  Name = 
REMARK  6 active torsions:
REMARK  status: ('A' for Active; 'I' for Inactive)
REMARK    1  A    between atoms: C_2  and  O_3
REMARK    2  A    between atoms: C_2  and  C_4
REMARK    3  A    between atoms: C_4  and  C_5
REMARK    4  A    between atoms: C_8  and  C_9
REMARK    5  A    between atoms: C_12  and  C_13
REMARK    6  A    between atoms: N_25  and  C_26
REMARK                            x       y       z     vdW  Elec       q    Type
REMARK                         _______ _______ _______ _____ _____    ______ ____
ROOT
ATOM      1  C   UNL     1       1.906   8.465  19.234  0.00  0.00    +0.000 A 
ATOM      2  C   UNL     1       2.605   8.761  18.070  0.00  0.00    +0.000 A 
ATOM      3  C   UNL     1       3.451   7.806  17.511  0.00  0.00    +0.000 A 
ATOM      4  C   UNL     1       3.610   6.557  18.102  0.00  0.00    +0.000 A 
ATOM      5  C   UNL     1       2.900   6.361  19.304  0.00  0.00    +0.000 A 
ATOM      6  N   UNL     1       2.075   7.280  19.869  0.00  0.00    +0.000 NA
ATOM      7  O   UNL     1       2.973   5.198  20.033  0.00  0.00    +0.000 OA
ATOM      8  C   UNL     1       3.459   4.089  19.281  0.00  0.00    +0.000 C 
ATOM      9  C   UNL     1       4.730   4.448  18.528  0.00  0.00    +0.000 C 
ATOM     10  N   UNL     1       4.443   5.509  17.552  0.00  0.00    +0.000 N 
ATOM     11  C   UNL     1       4.947   5.559  16.242  0.00  0.00    +0.000 C 
ATOM     12  O   UNL     1       4.772   6.506  15.476  0.00  0.00    +0.000 OA
ATOM     13  N   UNL     1       5.589   4.409  15.805  0.00  0.00    +0.000 N 
ATOM     14  H   UNL     1       5.154   3.557  16.121  0.00  0.00    +0.000 HD
ENDROOT
BRANCH   1  18
ATOM     15  C   UNL     1      -0.902  11.259  20.985  0.00  0.00    +0.000 A 
ATOM     16  C   UNL     1       0.026  10.584  21.781  0.00  0.00    +0.000 A 
ATOM     17  C   UNL     1       0.931   9.681  21.213  0.00  0.00    +0.000 A 
ATOM     18  C   UNL     1       0.938   9.413  19.831  0.00  0.00    +0.000 A 
ATOM     19  C   UNL     1      -0.005  10.089  19.043  0.00  0.00    +0.000 A 
ATOM     20  C   UNL     1      -0.912  10.996  19.609  0.00  0.00    +0.000 A 
BRANCH  15  24
ATOM     21  C   UNL     1      -4.439  13.157  22.738  0.00  0.00    +0.000 C 
ATOM     22  C   UNL     1      -3.975  13.599  21.339  0.00  0.00    +0.000 C 
ATOM     23  C   UNL     1      -3.037  12.569  20.716  0.00  0.00    +0.000 C 
ATOM     24  C   UNL     1      -1.826  12.286  21.617  0.00  0.00    +0.000 C 
ATOM     25  C   UNL     1      -2.261  11.888  23.037  0.00  0.00    +0.000 C 
ATOM     26  C   UNL     1      -3.217  12.919  23.641  0.00  0.00    +0.000 C 
BRANCH  21  27
ATOM     27  C   UNL     1      -5.383  14.193  23.369  0.00  0.00    +0.000 C 
BRANCH  27  29
ATOM     28  O   UNL     1      -4.301  16.316  22.895  0.00  0.00    +0.000 OA
ATOM     29  C   UNL     1      -4.670  15.489  23.713  0.00  0.00    +0.000 C 
BRANCH  29  30
ATOM     30  O   UNL     1      -4.516  15.647  25.052  0.00  0.00    +0.000 OA
ATOM     31  H   UNL     1      -4.105  16.489  25.346  0.00  0.00    +0.000 HD
ENDBRANCH  29  30
ENDBRANCH  27  29
ENDBRANCH  21  27
ENDBRANCH  15  24
ENDBRANCH   1  18
BRANCH  13  32
ATOM     32  C   UNL     1       6.116   4.345  14.486  0.00  0.00    +0.000 A 
ATOM     33  C   UNL     1       5.529   3.552  13.494  0.00  0.00    +0.000 A 
ATOM     34  C   UNL     1       6.103   3.484  12.221  0.00  0.00    +0.000 A 
ATOM     35  C   UNL     1       7.264   4.203  11.944  0.00  0.00    +0.000 A 
ATOM     36  C   UNL     1       7.847   5.001  12.931  0.00  0.00    +0.000 A 
ATOM     37  C   UNL     1       7.259   5.094  14.192  0.00  0.00    +0.000 A 
ENDBRANCH  13  32
TORSDOF 6
ENDMDL
MODEL 6
REMARK VINA RESULT:      -9.1      1.677      2.113
REMARK  Name = 
REMARK  6 active torsions:
REMARK  status: ('A' for Active; 'I' for Inactive)
REMARK    1  A    between atoms: C_2  and  O_3
REMARK    2  A    between atoms: C_2  and  C_4
REMARK    3  A    between atoms: C_4  and  C_5
REMARK    4  A    between atoms: C_8  and  C_9
REMARK    5  A    between atoms: C_12  and  C_13
REMARK    6  A    between atoms: N_25  and  C_26
REMARK                            x       y       z     vdW  Elec       q    Type
REMARK                         _______ _______ _______ _____ _____    ______ ____
ROOT
ATOM      1  C   UNL     1       1.945   8.364  19.189  0.00  0.00    +0.000 A 
ATOM      2  C   UNL     1       2.600   8.668  18.002  0.00  0.00    +0.000 A 
ATOM      3  C   UNL     1       3.481   7.744  17.443  0.00  0.00    +0.000 A 
ATOM      4  C   UNL     1       3.716   6.518  18.057  0.00  0.00    +0.000 A 
ATOM      5  C   UNL     1       3.045   6.314  19.279  0.00  0.00    +0.000 A 
ATOM      6  N   UNL     1       2.188   7.203  19.845  0.00  0.00    +0.000 NA
ATOM      7  O   UNL     1       3.193   5.173  20.032  0.00  0.00    +0.000 OA
ATOM      8  C   UNL     1       3.716   4.073  19.291  0.00  0.00    +0.000 C 
ATOM      9  C   UNL     1       4.950   4.478  18.500  0.00  0.00    +0.000 C 
ATOM     10  N   UNL     1       4.587   5.501  17.509  0.00  0.00    +0.000 N 
ATOM     11  C   UNL     1       5.058   5.547  16.186  0.00  0.00    +0.000 C 
ATOM     12  O   UNL     1       4.817   6.467  15.405  0.00  0.00    +0.000 OA
ATOM     13  N   UNL     1       5.746   4.421  15.758  0.00  0.00    +0.000 N 
ATOM     14  H   UNL     1       5.362   3.555  16.102  0.00  0.00    +0.000 HD
ENDROOT
BRANCH   1  18
ATOM     15  C   UNL     1      -0.958  11.048  20.960  0.00  0.00    +0.000 A 
ATOM     16  C   UNL     1      -0.287  10.103  21.740  0.00  0.00    +0.000 A 
ATOM     17  C   UNL     1       0.649   9.236  21.165  0.00  0.00    +0.000 A 
ATOM     18  C   UNL     1       0.945   9.275  19.790  0.00  0.00    +0.000 A 
ATOM     19  C   UNL     1       0.259  10.222  19.014  0.00  0.00    +0.000 A 
ATOM     20  C   UNL     1      -0.679  11.092  19.588  0.00  0.00    +0.000 A 
BRANCH  15  24
ATOM     21  C   UNL     1      -2.581  14.159  23.580  0.00  0.00    +0.000 C 
ATOM     22  C   UNL     1      -3.015  12.699  23.802  0.00  0.00    +0.000 C 
ATOM     23  C   UNL     1      -2.054  11.728  23.123  0.00  0.00    +0.000 C 
ATOM     24  C   UNL     1      -1.916  12.022  21.621  0.00  0.00    +0.000 C 
ATOM     25  C   UNL     1      -1.530  13.489  21.370  0.00  0.00    +0.000 C 
ATOM     26  C   UNL     1      -2.489  14.452  22.073  0.00  0.00    +0.000 C 
BRANCH  21  27
ATOM     27  C   UNL     1      -3.546  15.141  24.262  0.00  0.00    +0.000 C 
BRANCH  27  29
ATOM     28  O   UNL     1      -1.944  15.598  26.030  0.00  0.00    +0.000 OA
ATOM     29  C   UNL     1      -2.859  15.985  25.320  0.00  0.00    +0.000 C 
BRANCH  29  30
ATOM     30  O   UNL     1      -3.356  17.246  25.371  0.00  0.00    +0.000 OA
ATOM     31  H   UNL     1      -3.156  17.761  26.183  0.00  0.00    +0.000 HD
ENDBRANCH  29  30
ENDBRANCH  27  29
ENDBRANCH  21  27
ENDBRANCH  15  24
ENDBRANCH   1  18
BRANCH  13  32
ATOM     32  C   UNL     1       6.244   4.354  14.428  0.00  0.00    +0.000 A 
ATOM     33  C   UNL     1       5.666   3.522  13.464  0.00  0.00    +0.000 A 
ATOM     34  C   UNL     1       6.213   3.453  12.179  0.00  0.00    +0.000 A 
ATOM     35  C   UNL     1       7.339   4.211  11.863  0.00  0.00    +0.000 A 
ATOM     36  C   UNL     1       7.914   5.048  12.822  0.00  0.00    +0.000 A 
ATOM     37  C   UNL     1       7.352   5.140  14.095  0.00  0.00    +0.000 A 
ENDBRANCH  13  32
TORSDOF 6
ENDMDL
MODEL 7
REMARK VINA RESULT:      -9.1      1.089      1.481
REMARK  Name = 
REMARK  6 active torsions:
REMARK  status: ('A' for Active; 'I' for Inactive)
REMARK    1  A    between atoms: C_2  and  O_3
REMARK    2  A    between atoms: C_2  and  C_4
REMARK    3  A    between atoms: C_4  and  C_5
REMARK    4  A    between atoms: C_8  and  C_9
REMARK    5  A    between atoms: C_12  and  C_13
REMARK    6  A    between atoms: N_25  and  C_26
REMARK                            x       y       z     vdW  Elec       q    Type
REMARK                         _______ _______ _______ _____ _____    ______ ____
ROOT
ATOM      1  C   UNL     1       1.998   8.287  19.226  0.00  0.00    +0.000 A 
ATOM      2  C   UNL     1       2.698   8.605  18.068  0.00  0.00    +0.000 A 
ATOM      3  C   UNL     1       3.557   7.666  17.501  0.00  0.00    +0.000 A 
ATOM      4  C   UNL     1       3.728   6.412  18.078  0.00  0.00    +0.000 A 
ATOM      5  C   UNL     1       3.015   6.193  19.274  0.00  0.00    +0.000 A 
ATOM      6  N   UNL     1       2.178   7.096  19.847  0.00  0.00    +0.000 NA
ATOM      7  O   UNL     1       3.099   5.023  19.990  0.00  0.00    +0.000 OA
ATOM      8  C   UNL     1       3.599   3.928  19.226  0.00  0.00    +0.000 C 
ATOM      9  C   UNL     1       4.870   4.311  18.483  0.00  0.00    +0.000 C 
ATOM     10  N   UNL     1       4.574   5.380  17.518  0.00  0.00    +0.000 N 
ATOM     11  C   UNL     1       5.083   5.452  16.212  0.00  0.00    +0.000 C 
ATOM     12  O   UNL     1       4.900   6.406  15.456  0.00  0.00    +0.000 OA
ATOM     13  N   UNL     1       5.740   4.314  15.763  0.00  0.00    +0.000 N 
ATOM     14  H   UNL     1       5.313   3.453  16.067  0.00  0.00    +0.000 HD
ENDROOT
BRANCH   1  18
ATOM     15  C   UNL     1      -0.847  11.026  21.005  0.00  0.00    +0.000 A 
ATOM     16  C   UNL     1      -0.067  10.186  21.803  0.00  0.00    +0.000 A 
ATOM     17  C   UNL     1       0.851   9.301  21.226  0.00  0.00    +0.000 A 
ATOM     18  C   UNL     1       1.018   9.217  19.831  0.00  0.00    +0.000 A 
ATOM     19  C   UNL     1       0.222  10.057  19.039  0.00  0.00    +0.000 A 
ATOM     20  C   UNL     1      -0.697  10.946  19.615  0.00  0.00    +0.000 A 
BRANCH  15  24
ATOM     21  C   UNL     1      -2.700  14.790  22.261  0.00  0.00    +0.000 C 
ATOM     22  C   UNL     1      -1.953  13.944  23.307  0.00  0.00    +0.000 C 
ATOM     23  C   UNL     1      -1.024  12.934  22.640  0.00  0.00    +0.000 C 
ATOM     24  C   UNL     1      -1.784  12.026  21.660  0.00  0.00    +0.000 C 
ATOM     25  C   UNL     1      -2.579  12.847  20.633  0.00  0.00    +0.000 C 
ATOM     26  C   UNL     1      -3.490  13.871  21.314  0.00  0.00    +0.000 C 
BRANCH  21  27
ATOM     27  C   UNL     1      -3.637  15.809  22.929  0.00  0.00    +0.000 C 
BRANCH  27  29
ATOM     28  O   UNL     1      -5.392  14.414  23.866  0.00  0.00    +0.000 OA
ATOM     29  C   UNL     1      -4.465  15.189  24.040  0.00  0.00    +0.000 C 
BRANCH  29  30
ATOM     30  O   UNL     1      -4.036  15.568  25.270  0.00  0.00    +0.000 OA
ATOM     31  H   UNL     1      -3.634  14.867  25.827  0.00  0.00    +0.000 HD
ENDBRANCH  29  30
ENDBRANCH  27  29
ENDBRANCH  21  27
ENDBRANCH  15  24
ENDBRANCH   1  18
BRANCH  13  32
ATOM     32  C   UNL     1       6.272   4.272  14.445  0.00  0.00    +0.000 A 
ATOM     33  C   UNL     1       7.379   5.040  14.072  0.00  0.00    +0.000 A 
ATOM     34  C   UNL     1       7.845   5.002  12.753  0.00  0.00    +0.000 A 
ATOM     35  C   UNL     1       7.200   4.203  11.812  0.00  0.00    +0.000 A 
ATOM     36  C   UNL     1       6.098   3.430  12.185  0.00  0.00    +0.000 A 
ATOM     37  C   UNL     1       5.650   3.444  13.506  0.00  0.00    +0.000 A 
ENDBRANCH  13  32
TORSDOF 6
ENDMDL
MODEL 8
REMARK VINA RESULT:      -9.1      0.997      1.635
REMARK  Name = 
REMARK  6 active torsions:
REMARK  status: ('A' for Active; 'I' for Inactive)
REMARK    1  A    between atoms: C_2  and  O_3
REMARK    2  A    between atoms: C_2  and  C_4
REMARK    3  A    between atoms: C_4  and  C_5
REMARK    4  A    between atoms: C_8  and  C_9
REMARK    5  A    between atoms: C_12  and  C_13
REMARK    6  A    between atoms: N_25  and  C_26
REMARK                            x       y       z     vdW  Elec       q    Type
REMARK                         _______ _______ _______ _____ _____    ______ ____
ROOT
ATOM      1  C   UNL     1       1.922   8.379  19.290  0.00  0.00    +0.000 A 
ATOM      2  C   UNL     1       2.587   8.686  18.109  0.00  0.00    +0.000 A 
ATOM      3  C   UNL     1       3.452   7.754  17.539  0.00  0.00    +0.000 A 
ATOM      4  C   UNL     1       3.662   6.515  18.137  0.00  0.00    +0.000 A 
ATOM      5  C   UNL     1       2.983   6.307  19.354  0.00  0.00    +0.000 A 
ATOM      6  N   UNL     1       2.142   7.204  19.929  0.00  0.00    +0.000 NA
ATOM      7  O   UNL     1       3.108   5.153  20.091  0.00  0.00    +0.000 OA
ATOM      8  C   UNL     1       3.612   4.053  19.336  0.00  0.00    +0.000 C 
ATOM      9  C   UNL     1       4.856   4.446  18.554  0.00  0.00    +0.000 C 
ATOM     10  N   UNL     1       4.515   5.489  17.577  0.00  0.00    +0.000 N 
ATOM     11  C   UNL     1       4.991   5.545  16.256  0.00  0.00    +0.000 C 
ATOM     12  O   UNL     1       4.770   6.480  15.487  0.00  0.00    +0.000 OA
ATOM     13  N   UNL     1       5.660   4.412  15.815  0.00  0.00    +0.000 N 
ATOM     14  H   UNL     1       5.258   3.549  16.145  0.00  0.00    +0.000 HD
ENDROOT
BRANCH   1  18
ATOM     15  C   UNL     1      -0.934  11.092  21.088  0.00  0.00    +0.000 A 
ATOM     16  C   UNL     1      -0.248  10.157  21.866  0.00  0.00    +0.000 A 
ATOM     17  C   UNL     1       0.673   9.280  21.282  0.00  0.00    +0.000 A 
ATOM     18  C   UNL     1       0.938   9.300  19.900  0.00  0.00    +0.000 A 
ATOM     19  C   UNL     1       0.236  10.237  19.127  0.00  0.00    +0.000 A 
ATOM     20  C   UNL     1      -0.687  11.117  19.710  0.00  0.00    +0.000 A 
BRANCH  15  24
ATOM     21  C   UNL     1      -2.580  14.034  23.883  0.00  0.00    +0.000 C 
ATOM     22  C   UNL     1      -3.165  12.611  23.873  0.00  0.00    +0.000 C 
ATOM     23  C   UNL     1      -2.219  11.630  23.187  0.00  0.00    +0.000 C 
ATOM     24  C   UNL     1      -1.876  12.078  21.758  0.00  0.00    +0.000 C 
ATOM     25  C   UNL     1      -1.334  13.516  21.735  0.00  0.00    +0.000 C 
ATOM     26  C   UNL     1      -2.282  14.486  22.444  0.00  0.00    +0.000 C 
BRANCH  21  27
ATOM     27  C   UNL     1      -3.530  15.026  24.573  0.00  0.00    +0.000 C 
BRANCH  27  29
ATOM     28  O   UNL     1      -5.016  15.966  22.897  0.00  0.00    +0.000 OA
ATOM     29  C   UNL     1      -4.839  15.189  23.822  0.00  0.00    +0.000 C 
BRANCH  29  30
ATOM     30  O   UNL     1      -5.797  14.341  24.273  0.00  0.00    +0.000 OA
ATOM     31  H   UNL     1      -5.520  13.412  24.425  0.00  0.00    +0.000 HD
ENDBRANCH  29  30
ENDBRANCH  27  29
ENDBRANCH  21  27
ENDBRANCH  15  24
ENDBRANCH   1  18
BRANCH  13  32
ATOM     32  C   UNL     1       6.160   4.354  14.485  0.00  0.00    +0.000 A 
ATOM     33  C   UNL     1       5.552   3.569  13.500  0.00  0.00    +0.000 A 
ATOM     34  C   UNL     1       6.102   3.506  12.216  0.00  0.00    +0.000 A 
ATOM     35  C   UNL     1       7.259   4.223  11.921  0.00  0.00    +0.000 A 
ATOM     36  C   UNL     1       7.864   5.013  12.901  0.00  0.00    +0.000 A 
ATOM     37  C   UNL     1       7.301   5.100  14.174  0.00  0.00    +0.000 A 
ENDBRANCH  13  32
TORSDOF 6
ENDMDL
MODEL 9
REMARK VINA RESULT:      -9.0      0.926      1.327
REMARK  Name = 
REMARK  6 active torsions:
REMARK  status: ('A' for Active; 'I' for Inactive)
REMARK    1  A    between atoms: C_2  and  O_3
REMARK    2  A    between atoms: C_2  and  C_4
REMARK    3  A    between atoms: C_4  and  C_5
REMARK    4  A    between atoms: C_8  and  C_9
REMARK    5  A    between atoms: C_12  and  C_13
REMARK    6  A    between atoms: N_25  and  C_26
REMARK                            x       y       z     vdW  Elec       q    Type
REMARK                         _______ _______ _______ _____ _____    ______ ____
ROOT
ATOM      1  C   UNL     1       2.004   8.434  19.194  0.00  0.00    +0.000 A 
ATOM      2  C   UNL     1       2.722   8.720  18.040  0.00  0.00    +0.000 A 
ATOM      3  C   UNL     1       3.550   7.748  17.483  0.00  0.00    +0.000 A 
ATOM      4  C   UNL     1       3.672   6.491  18.067  0.00  0.00    +0.000 A 
ATOM      5  C   UNL     1       2.943   6.304  19.259  0.00  0.00    +0.000 A 
ATOM      6  N   UNL     1       2.136   7.240  19.822  0.00  0.00    +0.000 NA
ATOM      7  O   UNL     1       2.980   5.135  19.981  0.00  0.00    +0.000 OA
ATOM      8  C   UNL     1       3.445   4.019  19.225  0.00  0.00    +0.000 C 
ATOM      9  C   UNL     1       4.733   4.352  18.488  0.00  0.00    +0.000 C 
ATOM     10  N   UNL     1       4.483   5.427  17.517  0.00  0.00    +0.000 N 
ATOM     11  C   UNL     1       5.003   5.474  16.213  0.00  0.00    +0.000 C 
ATOM     12  O   UNL     1       4.860   6.430  15.453  0.00  0.00    +0.000 OA
ATOM     13  N   UNL     1       5.620   4.311  15.774  0.00  0.00    +0.000 N 
ATOM     14  H   UNL     1       5.160   3.467  16.079  0.00  0.00    +0.000 HD
ENDROOT
BRANCH   1  18
ATOM     15  C   UNL     1      -0.799  11.255  20.911  0.00  0.00    +0.000 A 
ATOM     16  C   UNL     1      -0.187  11.512  19.682  0.00  0.00    +0.000 A 
ATOM     17  C   UNL     1       0.720  10.600  19.131  0.00  0.00    +0.000 A 
ATOM     18  C   UNL     1       1.054   9.401  19.788  0.00  0.00    +0.000 A 
ATOM     19  C   UNL     1       0.440   9.157  21.026  0.00  0.00    +0.000 A 
ATOM     20  C   UNL     1      -0.470  10.069  21.580  0.00  0.00    +0.000 A 
BRANCH  15  24
ATOM     21  C   UNL     1      -4.551  12.924  22.433  0.00  0.00    +0.000 C 
ATOM     22  C   UNL     1      -4.073  13.330  21.027  0.00  0.00    +0.000 C 
ATOM     23  C   UNL     1      -3.027  12.355  20.496  0.00  0.00    +0.000 C 
ATOM     24  C   UNL     1      -1.831  12.228  21.453  0.00  0.00    +0.000 C 
ATOM     25  C   UNL     1      -2.286  11.870  22.877  0.00  0.00    +0.000 C 
ATOM     26  C   UNL     1      -3.350  12.844  23.389  0.00  0.00    +0.000 C 
BRANCH  21  27
ATOM     27  C   UNL     1      -5.604  13.905  22.971  0.00  0.00    +0.000 C 
BRANCH  27  29
ATOM     28  O   UNL     1      -4.495  16.026  22.553  0.00  0.00    +0.000 OA
ATOM     29  C   UNL     1      -5.004  15.249  23.345  0.00  0.00    +0.000 C 
BRANCH  29  30
ATOM     30  O   UNL     1      -5.126  15.513  24.670  0.00  0.00    +0.000 OA
ATOM     31  H   UNL     1      -4.582  14.964  25.275  0.00  0.00    +0.000 HD
ENDBRANCH  29  30
ENDBRANCH  27  29
ENDBRANCH  21  27
ENDBRANCH  15  24
ENDBRANCH   1  18
BRANCH  13  32
ATOM     32  C   UNL     1       6.159   4.243  14.460  0.00  0.00    +0.000 A 
ATOM     33  C   UNL     1       7.309   4.951  14.097  0.00  0.00    +0.000 A 
ATOM     34  C   UNL     1       7.782   4.891  12.782  0.00  0.00    +0.000 A 
ATOM     35  C   UNL     1       7.101   4.131  11.834  0.00  0.00    +0.000 A 
ATOM     36  C   UNL     1       5.957   3.418  12.197  0.00  0.00    +0.000 A 
ATOM     37  C   UNL     1       5.501   3.452  13.514  0.00  0.00    +0.000 A 
ENDBRANCH  13  32
TORSDOF 6
ENDMDL
