MODEL 1
REMARK VINA RESULT:      -7.5      0.000      0.000
REMARK  Name = 
REMARK  8 active torsions:
REMARK  status: ('A' for Active; 'I' for Inactive)
REMARK    1  A    between atoms: C_1  and  S_2
REMARK    2  A    between atoms: S_2  and  C_3
REMARK    3  A    between atoms: C_3  and  C_4
REMARK    4  A    between atoms: C_4  and  C_5
REMARK    5  A    between atoms: C_5  and  N_6
REMARK    6  A    between atoms: C_5  and  C_19
REMARK    7  A    between atoms: C_7  and  C_9
REMARK    8  A    between atoms: N_21  and  C_22
REMARK                            x       y       z     vdW  Elec       q    Type
REMARK                         _______ _______ _______ _____ _____    ______ ____
ROOT
ATOM      1  C   UNL     1       2.792   4.748  18.463  0.00  0.00    +0.000 C 
ENDROOT
BRANCH   1   2
ATOM      2  N   UNL     1       2.454   6.140  18.749  0.00  0.00    +0.000 N 
ATOM      3  C   UNL     1       2.059   6.552  20.005  0.00  0.00    +0.000 C 
ATOM      4  O   UNL     1       1.923   5.768  20.947  0.00  0.00    +0.000 OA
ATOM      5  H   UNL     1       2.648   6.865  18.057  0.00  0.00    +0.000 HD
BRANCH   3   6
ATOM      6  C   UNL     1       1.770   8.054  20.148  0.00  0.00    +0.000 C 
ATOM      7  C   UNL     1       0.495   8.238  20.989  0.00  0.00    +0.000 C 
ATOM      8  C   UNL     1       0.195   9.708  21.098  0.00  0.00    +0.000 A 
ATOM      9  C   UNL     1      -0.236  10.303  22.284  0.00  0.00    +0.000 A 
ATOM     10  C   UNL     1      -0.483  11.674  22.320  0.00  0.00    +0.000 A 
ATOM     11  C   UNL     1      -0.312  12.446  21.171  0.00  0.00    +0.000 A 
ATOM     12  C   UNL     1       0.100  11.850  19.975  0.00  0.00    +0.000 A 
ATOM     13  C   UNL     1       0.360  10.478  19.932  0.00  0.00    +0.000 A 
ATOM     14  C   UNL     1       0.723   9.750  18.661  0.00  0.00    +0.000 C 
ATOM     15  N   UNL     1       1.784   8.742  18.819  0.00  0.00    +0.000 NA
ATOM     16  H   UNL     1       2.683   9.219  18.740  0.00  0.00    +0.000 HD
ENDBRANCH   3   6
ENDBRANCH   1   2
BRANCH   1  17
ATOM     17  C   UNL     1       4.015   4.646  17.522  0.00  0.00    +0.000 C 
ATOM     18  O   UNL     1       3.944   4.098  16.413  0.00  0.00    +0.000 OA
ATOM     19  N   UNL     1       5.192   5.156  18.037  0.00  0.00    +0.000 N 
ATOM     20  H   UNL     1       5.158   5.652  18.925  0.00  0.00    +0.000 HD
BRANCH  19  21
ATOM     21  C   UNL     1       6.457   5.137  17.301  0.00  0.00    +0.000 C 
ATOM     22  C   UNL     1       6.690   6.445  16.531  0.00  0.00    +0.000 C 
ATOM     23  C   UNL     1       7.006   7.620  17.455  0.00  0.00    +0.000 C 
ATOM     24  C   UNL     1       8.182   7.310  18.378  0.00  0.00    +0.000 C 
ATOM     25  C   UNL     1       7.957   6.021  19.164  0.00  0.00    +0.000 C 
ATOM     26  C   UNL     1       7.634   4.848  18.239  0.00  0.00    +0.000 C 
ENDBRANCH  19  21
ENDBRANCH   1  17
BRANCH   1  27
ATOM     27  C   UNL     1       1.573   4.012  17.885  0.00  0.00    +0.000 C 
BRANCH  27  28
ATOM     28  C   UNL     1       1.025   2.898  18.779  0.00  0.00    +0.000 C 
BRANCH  28  30
ATOM     29  C   UNL     1       1.494   2.572  21.508  0.00  0.00    +0.000 C 
ATOM     30  S   UNL     1       2.298   2.235  19.908  0.00  0.00    +0.000 S 
ENDBRANCH  28  30
ENDBRANCH  27  28
ENDBRANCH   1  27
TORSDOF 7
ENDMDL
MODEL 2
REMARK VINA RESULT:      -7.4      2.083      4.551
REMARK  Name = 
REMARK  8 active torsions:
REMARK  status: ('A' for Active; 'I' for Inactive)
REMARK    1  A    between atoms: C_1  and  S_2
REMARK    2  A    between atoms: S_2  and  C_3
REMARK    3  A    between atoms: C_3  and  C_4
REMARK    4  A    between atoms: C_4  and  C_5
REMARK    5  A    between atoms: C_5  and  N_6
REMARK    6  A    between atoms: C_5  and  C_19
REMARK    7  A    between atoms: C_7  and  C_9
REMARK    8  A    between atoms: N_21  and  C_22
REMARK                            x       y       z     vdW  Elec       q    Type
REMARK                         _______ _______ _______ _____ _____    ______ ____
ROOT
ATOM      1  C   UNL     1       4.965   5.639  17.809  0.00  0.00    +0.000 C 
ENDROOT
BRANCH   1   2
ATOM      2  N   UNL     1       4.260   6.760  18.426  0.00  0.00    +0.000 N 
ATOM      3  C   UNL     1       2.884   6.856  18.406  0.00  0.00    +0.000 C 
ATOM      4  O   UNL     1       2.170   6.031  17.832  0.00  0.00    +0.000 OA
ATOM      5  H   UNL     1       4.768   7.422  19.014  0.00  0.00    +0.000 HD
BRANCH   3   6
ATOM      6  C   UNL     1       2.297   8.079  19.126  0.00  0.00    +0.000 C 
ATOM      7  C   UNL     1       1.320   7.595  20.213  0.00  0.00    +0.000 C 
ATOM      8  C   UNL     1       0.720   8.795  20.894  0.00  0.00    +0.000 A 
ATOM      9  C   UNL     1       0.527   8.859  22.274  0.00  0.00    +0.000 A 
ATOM     10  C   UNL     1      -0.023  10.007  22.842  0.00  0.00    +0.000 A 
ATOM     11  C   UNL     1      -0.389  11.082  22.032  0.00  0.00    +0.000 A 
ATOM     12  C   UNL     1      -0.216  11.013  20.646  0.00  0.00    +0.000 A 
ATOM     13  C   UNL     1       0.343   9.870  20.069  0.00  0.00    +0.000 A 
ATOM     14  C   UNL     1       0.481   9.687  18.577  0.00  0.00    +0.000 C 
ATOM     15  N   UNL     1       1.752   9.077  18.153  0.00  0.00    +0.000 NA
ATOM     16  H   UNL     1       2.445   9.823  18.072  0.00  0.00    +0.000 HD
ENDBRANCH   3   6
ENDBRANCH   1   2
BRANCH   1  17
ATOM     17  C   UNL     1       4.856   4.361  18.673  0.00  0.00    +0.000 C 
ATOM     18  O   UNL     1       5.809   3.940  19.344  0.00  0.00    +0.000 OA
ATOM     19  N   UNL     1       3.644   3.701  18.589  0.00  0.00    +0.000 N 
ATOM     20  H   UNL     1       2.887   4.142  18.072  0.00  0.00    +0.000 HD
BRANCH  19  21
ATOM     21  C   UNL     1       3.358   2.467  19.322  0.00  0.00    +0.000 C 
ATOM     22  C   UNL     1       3.438   2.672  20.841  0.00  0.00    +0.000 C 
ATOM     23  C   UNL     1       2.278   3.508  21.381  0.00  0.00    +0.000 C 
ATOM     24  C   UNL     1       0.927   2.923  20.977  0.00  0.00    +0.000 C 
ATOM     25  C   UNL     1       0.825   2.729  19.467  0.00  0.00    +0.000 C 
ATOM     26  C   UNL     1       1.990   1.898  18.927  0.00  0.00    +0.000 C 
ENDBRANCH  19  21
ENDBRANCH   1  17
BRANCH   1  27
ATOM     27  C   UNL     1       6.431   6.015  17.541  0.00  0.00    +0.000 C 
BRANCH  27  28
ATOM     28  C   UNL     1       6.953   5.582  16.169  0.00  0.00    +0.000 C 
BRANCH  28  30
ATOM     29  C   UNL     1       6.328   3.889  14.043  0.00  0.00    +0.000 C 
ATOM     30  S   UNL     1       5.597   5.265  14.987  0.00  0.00    +0.000 S 
ENDBRANCH  28  30
ENDBRANCH  27  28
ENDBRANCH   1  27
TORSDOF 7
ENDMDL
MODEL 3
REMARK VINA RESULT:      -7.3      2.136      4.661
REMARK  Name = 
REMARK  8 active torsions:
REMARK  status: ('A' for Active; 'I' for Inactive)
REMARK    1  A    between atoms: C_1  and  S_2
REMARK    2  A    between atoms: S_2  and  C_3
REMARK    3  A    between atoms: C_3  and  C_4
REMARK    4  A    between atoms: C_4  and  C_5
REMARK    5  A    between atoms: C_5  and  N_6
REMARK    6  A    between atoms: C_5  and  C_19
REMARK    7  A    between atoms: C_7  and  C_9
REMARK    8  A    between atoms: N_21  and  C_22
REMARK                            x       y       z     vdW  Elec       q    Type
REMARK                         _______ _______ _______ _____ _____    ______ ____
ROOT
ATOM      1  C   UNL     1       3.566   6.569  17.580  0.00  0.00    +0.000 C 
ENDROOT
BRANCH   1   2
ATOM      2  N   UNL     1       2.672   7.123  18.595  0.00  0.00    +0.000 N 
ATOM      3  C   UNL     1       2.057   8.348  18.435  0.00  0.00    +0.000 C 
ATOM      4  O   UNL     1       2.257   9.067  17.454  0.00  0.00    +0.000 OA
ATOM      5  H   UNL     1       2.368   6.545  19.379  0.00  0.00    +0.000 HD
BRANCH   3   6
ATOM      6  C   UNL     1       1.123   8.772  19.579  0.00  0.00    +0.000 C 
ATOM      7  C   UNL     1       0.994  10.305  19.573  0.00  0.00    +0.000 C 
ATOM      8  C   UNL     1       0.107  10.721  20.715  0.00  0.00    +0.000 A 
ATOM      9  C   UNL     1      -0.859  11.720  20.592  0.00  0.00    +0.000 A 
ATOM     10  C   UNL     1      -1.658  12.047  21.687  0.00  0.00    +0.000 A 
ATOM     11  C   UNL     1      -1.483  11.386  22.903  0.00  0.00    +0.000 A 
ATOM     12  C   UNL     1      -0.501  10.399  23.035  0.00  0.00    +0.000 A 
ATOM     13  C   UNL     1       0.297  10.057  21.940  0.00  0.00    +0.000 A 
ATOM     14  C   UNL     1       1.431   9.066  22.029  0.00  0.00    +0.000 C 
ATOM     15  N   UNL     1       1.534   8.153  20.878  0.00  0.00    +0.000 NA
ATOM     16  H   UNL     1       0.904   7.367  21.046  0.00  0.00    +0.000 HD
ENDBRANCH   3   6
ENDBRANCH   1   2
BRANCH   1  17
ATOM     17  C   UNL     1       3.531   5.023  17.581  0.00  0.00    +0.000 C 
ATOM     18  O   UNL     1       4.026   4.356  16.663  0.00  0.00    +0.000 OA
ATOM     19  N   UNL     1       2.858   4.456  18.648  0.00  0.00    +0.000 N 
ATOM     20  H   UNL     1       2.538   5.063  19.398  0.00  0.00    +0.000 HD
BRANCH  19  21
ATOM     21  C   UNL     1       2.707   3.009  18.814  0.00  0.00    +0.000 C 
ATOM     22  C   UNL     1       3.491   2.488  20.026  0.00  0.00    +0.000 C 
ATOM     23  C   UNL     1       2.868   2.915  21.354  0.00  0.00    +0.000 C 
ATOM     24  C   UNL     1       1.397   2.516  21.440  0.00  0.00    +0.000 C 
ATOM     25  C   UNL     1       0.599   3.043  20.250  0.00  0.00    +0.000 C 
ATOM     26  C   UNL     1       1.228   2.620  18.921  0.00  0.00    +0.000 C 
ENDBRANCH  19  21
ENDBRANCH   1  17
BRANCH   1  27
ATOM     27  C   UNL     1       4.994   7.101  17.782  0.00  0.00    +0.000 C 
BRANCH  27  28
ATOM     28  C   UNL     1       5.909   6.165  18.575  0.00  0.00    +0.000 C 
BRANCH  28  30
ATOM     29  C   UNL     1       7.777   8.023  17.659  0.00  0.00    +0.000 C 
ATOM     30  S   UNL     1       7.638   6.236  17.987  0.00  0.00    +0.000 S 
ENDBRANCH  28  30
ENDBRANCH  27  28
ENDBRANCH   1  27
TORSDOF 7
ENDMDL
MODEL 4
REMARK VINA RESULT:      -7.2      3.924      5.669
REMARK  Name = 
REMARK  8 active torsions:
REMARK  status: ('A' for Active; 'I' for Inactive)
REMARK    1  A    between atoms: C_1  and  S_2
REMARK    2  A    between atoms: S_2  and  C_3
REMARK    3  A    between atoms: C_3  and  C_4
REMARK    4  A    between atoms: C_4  and  C_5
REMARK    5  A    between atoms: C_5  and  N_6
REMARK    6  A    between atoms: C_5  and  C_19
REMARK    7  A    between atoms: C_7  and  C_9
REMARK    8  A    between atoms: N_21  and  C_22
REMARK                            x       y       z     vdW  Elec       q    Type
REMARK                         _______ _______ _______ _____ _____    ______ ____
ROOT
ATOM      1  C   UNL     1       1.268   9.488  19.551  0.00  0.00    +0.000 C 
ENDROOT
BRANCH   1   2
ATOM      2  N   UNL     1       0.011  10.094  19.118  0.00  0.00    +0.000 N 
ATOM      3  C   UNL     1      -0.060  11.405  18.697  0.00  0.00    +0.000 C 
ATOM      4  O   UNL     1       0.918  12.157  18.701  0.00  0.00    +0.000 OA
ATOM      5  H   UNL     1      -0.815   9.511  18.979  0.00  0.00    +0.000 HD
BRANCH   3   6
ATOM      6  C   UNL     1      -1.449  11.880  18.244  0.00  0.00    +0.000 C 
ATOM      7  C   UNL     1      -2.493  11.422  19.278  0.00  0.00    +0.000 C 
ATOM      8  C   UNL     1      -3.856  11.858  18.816  0.00  0.00    +0.000 A 
ATOM      9  C   UNL     1      -4.813  12.383  19.684  0.00  0.00    +0.000 A 
ATOM     10  C   UNL     1      -6.053  12.779  19.187  0.00  0.00    +0.000 A 
ATOM     11  C   UNL     1      -6.340  12.641  17.828  0.00  0.00    +0.000 A 
ATOM     12  C   UNL     1      -5.390  12.096  16.958  0.00  0.00    +0.000 A 
ATOM     13  C   UNL     1      -4.140  11.705  17.446  0.00  0.00    +0.000 A 
ATOM     14  C   UNL     1      -3.098  11.031  16.588  0.00  0.00    +0.000 C 
ATOM     15  N   UNL     1      -1.721  11.496  16.824  0.00  0.00    +0.000 NA
ATOM     16  H   UNL     1      -1.573  12.332  16.255  0.00  0.00    +0.000 HD
ENDBRANCH   3   6
ENDBRANCH   1   2
BRANCH   1  17
ATOM     17  C   UNL     1       1.894   8.626  18.430  0.00  0.00    +0.000 C 
ATOM     18  O   UNL     1       2.024   9.048  17.273  0.00  0.00    +0.000 OA
ATOM     19  N   UNL     1       2.236   7.339  18.806  0.00  0.00    +0.000 N 
ATOM     20  H   UNL     1       2.163   7.086  19.788  0.00  0.00    +0.000 HD
BRANCH  19  21
ATOM     21  C   UNL     1       2.827   6.371  17.881  0.00  0.00    +0.000 C 
ATOM     22  C   UNL     1       4.307   6.110  18.195  0.00  0.00    +0.000 C 
ATOM     23  C   UNL     1       4.499   5.310  19.483  0.00  0.00    +0.000 C 
ATOM     24  C   UNL     1       3.705   4.007  19.461  0.00  0.00    +0.000 C 
ATOM     25  C   UNL     1       2.227   4.252  19.167  0.00  0.00    +0.000 C 
ATOM     26  C   UNL     1       2.037   5.058  17.881  0.00  0.00    +0.000 C 
ENDBRANCH  19  21
ENDBRANCH   1  17
BRANCH   1  27
ATOM     27  C   UNL     1       1.052   8.672  20.835  0.00  0.00    +0.000 C 
BRANCH  27  28
ATOM     28  C   UNL     1      -0.325   8.858  21.477  0.00  0.00    +0.000 C 
BRANCH  28  30
ATOM     29  C   UNL     1      -0.924  11.288  22.706  0.00  0.00    +0.000 C 
ATOM     30  S   UNL     1      -0.216   9.660  23.115  0.00  0.00    +0.000 S 
ENDBRANCH  28  30
ENDBRANCH  27  28
ENDBRANCH   1  27
TORSDOF 7
ENDMDL
MODEL 5
REMARK VINA RESULT:      -7.1      1.649      2.325
REMARK  Name = 
REMARK  8 active torsions:
REMARK  status: ('A' for Active; 'I' for Inactive)
REMARK    1  A    between atoms: C_1  and  S_2
REMARK    2  A    between atoms: S_2  and  C_3
REMARK    3  A    between atoms: C_3  and  C_4
REMARK    4  A    between atoms: C_4  and  C_5
REMARK    5  A    between atoms: C_5  and  N_6
REMARK    6  A    between atoms: C_5  and  C_19
REMARK    7  A    between atoms: C_7  and  C_9
REMARK    8  A    between atoms: N_21  and  C_22
REMARK                            x       y       z     vdW  Elec       q    Type
REMARK                         _______ _______ _______ _____ _____    ______ ____
ROOT
ATOM      1  C   UNL     1       3.073   5.156  19.476  0.00  0.00    +0.000 C 
ENDROOT
BRANCH   1   2
ATOM      2  N   UNL     1       2.480   6.399  19.962  0.00  0.00    +0.000 N 
ATOM      3  C   UNL     1       2.308   7.495  19.143  0.00  0.00    +0.000 C 
ATOM      4  O   UNL     1       2.683   7.510  17.968  0.00  0.00    +0.000 OA
ATOM      5  H   UNL     1       2.044   6.431  20.885  0.00  0.00    +0.000 HD
BRANCH   3   6
ATOM      6  C   UNL     1       1.640   8.713  19.799  0.00  0.00    +0.000 C 
ATOM      7  C   UNL     1       0.589   8.220  20.810  0.00  0.00    +0.000 C 
ATOM      8  C   UNL     1      -0.088   9.414  21.426  0.00  0.00    +0.000 A 
ATOM      9  C   UNL     1      -0.391   9.489  22.785  0.00  0.00    +0.000 A 
ATOM     10  C   UNL     1      -1.008  10.631  23.293  0.00  0.00    +0.000 A 
ATOM     11  C   UNL     1      -1.330  11.689  22.444  0.00  0.00    +0.000 A 
ATOM     12  C   UNL     1      -1.046  11.609  21.077  0.00  0.00    +0.000 A 
ATOM     13  C   UNL     1      -0.419  10.472  20.560  0.00  0.00    +0.000 A 
ATOM     14  C   UNL     1      -0.159  10.276  19.087  0.00  0.00    +0.000 C 
ATOM     15  N   UNL     1       1.154   9.689  18.773  0.00  0.00    +0.000 NA
ATOM     16  H   UNL     1       1.836  10.448  18.738  0.00  0.00    +0.000 HD
ENDBRANCH   3   6
ENDBRANCH   1   2
BRANCH   1  17
ATOM     17  C   UNL     1       4.537   5.369  19.024  0.00  0.00    +0.000 C 
ATOM     18  O   UNL     1       5.465   5.477  19.837  0.00  0.00    +0.000 OA
ATOM     19  N   UNL     1       4.714   5.487  17.658  0.00  0.00    +0.000 N 
ATOM     20  H   UNL     1       3.917   5.319  17.049  0.00  0.00    +0.000 HD
BRANCH  19  21
ATOM     21  C   UNL     1       6.023   5.706  17.042  0.00  0.00    +0.000 C 
ATOM     22  C   UNL     1       6.779   4.388  16.820  0.00  0.00    +0.000 C 
ATOM     23  C   UNL     1       6.164   3.542  15.706  0.00  0.00    +0.000 C 
ATOM     24  C   UNL     1       6.041   4.329  14.404  0.00  0.00    +0.000 C 
ATOM     25  C   UNL     1       5.277   5.635  14.604  0.00  0.00    +0.000 C 
ATOM     26  C   UNL     1       5.889   6.478  15.724  0.00  0.00    +0.000 C 
ENDBRANCH  19  21
ENDBRANCH   1  17
BRANCH   1  27
ATOM     27  C   UNL     1       2.216   4.563  18.346  0.00  0.00    +0.000 C 
BRANCH  27  28
ATOM     28  C   UNL     1       1.376   3.352  18.760  0.00  0.00    +0.000 C 
BRANCH  28  30
ATOM     29  C   UNL     1       1.366   2.724  21.477  0.00  0.00    +0.000 C 
ATOM     30  S   UNL     1       2.256   2.281  19.951  0.00  0.00    +0.000 S 
ENDBRANCH  28  30
ENDBRANCH  27  28
ENDBRANCH   1  27
TORSDOF 7
ENDMDL
MODEL 6
REMARK VINA RESULT:      -7.1      2.214      4.515
REMARK  Name = 
REMARK  8 active torsions:
REMARK  status: ('A' for Active; 'I' for Inactive)
REMARK    1  A    between atoms: C_1  and  S_2
REMARK    2  A    between atoms: S_2  and  C_3
REMARK    3  A    between atoms: C_3  and  C_4
REMARK    4  A    between atoms: C_4  and  C_5
REMARK    5  A    between atoms: C_5  and  N_6
REMARK    6  A    between atoms: C_5  and  C_19
REMARK    7  A    between atoms: C_7  and  C_9
REMARK    8  A    between atoms: N_21  and  C_22
REMARK                            x       y       z     vdW  Elec       q    Type
REMARK                         _______ _______ _______ _____ _____    ______ ____
ROOT
ATOM      1  C   UNL     1       3.076   6.515  17.844  0.00  0.00    +0.000 C 
ENDROOT
BRANCH   1   2
ATOM      2  N   UNL     1       2.430   7.528  18.674  0.00  0.00    +0.000 N 
ATOM      3  C   UNL     1       2.089   8.769  18.177  0.00  0.00    +0.000 C 
ATOM      4  O   UNL     1       2.348   9.115  17.022  0.00  0.00    +0.000 OA
ATOM      5  H   UNL     1       2.082   7.283  19.602  0.00  0.00    +0.000 HD
BRANCH   3   6
ATOM      6  C   UNL     1       1.387   9.708  19.169  0.00  0.00    +0.000 C 
ATOM      7  C   UNL     1       0.553   8.864  20.149  0.00  0.00    +0.000 C 
ATOM      8  C   UNL     1      -0.162   9.787  21.098  0.00  0.00    +0.000 A 
ATOM      9  C   UNL     1      -0.277   9.522  22.463  0.00  0.00    +0.000 A 
ATOM     10  C   UNL     1      -0.941  10.427  23.288  0.00  0.00    +0.000 A 
ATOM     11  C   UNL     1      -1.498  11.587  22.750  0.00  0.00    +0.000 A 
ATOM     12  C   UNL     1      -1.402  11.846  21.379  0.00  0.00    +0.000 A 
ATOM     13  C   UNL     1      -0.730  10.949  20.545  0.00  0.00    +0.000 A 
ATOM     14  C   UNL     1      -0.660  11.116  19.047  0.00  0.00    +0.000 C 
ATOM     15  N   UNL     1       0.654  10.803  18.460  0.00  0.00    +0.000 NA
ATOM     16  H   UNL     1       1.233  11.642  18.527  0.00  0.00    +0.000 HD
ENDBRANCH   3   6
ENDBRANCH   1   2
BRANCH   1  17
ATOM     17  C   UNL     1       2.335   5.160  17.928  0.00  0.00    +0.000 C 
ATOM     18  O   UNL     1       1.197   5.005  17.464  0.00  0.00    +0.000 OA
ATOM     19  N   UNL     1       3.014   4.165  18.608  0.00  0.00    +0.000 N 
ATOM     20  H   UNL     1       3.971   4.345  18.901  0.00  0.00    +0.000 HD
BRANCH  19  21
ATOM     21  C   UNL     1       2.469   2.821  18.804  0.00  0.00    +0.000 C 
ATOM     22  C   UNL     1       3.326   1.991  19.769  0.00  0.00    +0.000 C 
ATOM     23  C   UNL     1       3.212   2.473  21.215  0.00  0.00    +0.000 C 
ATOM     24  C   UNL     1       1.758   2.525  21.678  0.00  0.00    +0.000 C 
ATOM     25  C   UNL     1       0.896   3.362  20.737  0.00  0.00    +0.000 C 
ATOM     26  C   UNL     1       1.016   2.883  19.290  0.00  0.00    +0.000 C 
ENDBRANCH  19  21
ENDBRANCH   1  17
BRANCH   1  27
ATOM     27  C   UNL     1       4.556   6.372  18.234  0.00  0.00    +0.000 C 
BRANCH  27  28
ATOM     28  C   UNL     1       5.541   6.790  17.139  0.00  0.00    +0.000 C 
BRANCH  28  30
ATOM     29  C   UNL     1       7.104   4.577  16.477  0.00  0.00    +0.000 C 
ATOM     30  S   UNL     1       7.217   6.124  17.432  0.00  0.00    +0.000 S 
ENDBRANCH  28  30
ENDBRANCH  27  28
ENDBRANCH   1  27
TORSDOF 7
ENDMDL
MODEL 7
REMARK VINA RESULT:      -7.1      2.188      4.705
REMARK  Name = 
REMARK  8 active torsions:
REMARK  status: ('A' for Active; 'I' for Inactive)
REMARK    1  A    between atoms: C_1  and  S_2
REMARK    2  A    between atoms: S_2  and  C_3
REMARK    3  A    between atoms: C_3  and  C_4
REMARK    4  A    between atoms: C_4  and  C_5
REMARK    5  A    between atoms: C_5  and  N_6
REMARK    6  A    between atoms: C_5  and  C_19
REMARK    7  A    between atoms: C_7  and  C_9
REMARK    8  A    between atoms: N_21  and  C_22
REMARK                            x       y       z     vdW  Elec       q    Type
REMARK                         _______ _______ _______ _____ _____    ______ ____
ROOT
ATOM      1  C   UNL     1       4.937   5.531  17.387  0.00  0.00    +0.000 C 
ENDROOT
BRANCH   1   2
ATOM      2  N   UNL     1       4.287   6.693  17.988  0.00  0.00    +0.000 N 
ATOM      3  C   UNL     1       2.920   6.754  18.164  0.00  0.00    +0.000 C 
ATOM      4  O   UNL     1       2.162   5.858  17.787  0.00  0.00    +0.000 OA
ATOM      5  H   UNL     1       4.849   7.423  18.426  0.00  0.00    +0.000 HD
BRANCH   3   6
ATOM      6  C   UNL     1       2.398   8.031  18.840  0.00  0.00    +0.000 C 
ATOM      7  C   UNL     1       1.424   7.637  19.965  0.00  0.00    +0.000 C 
ATOM      8  C   UNL     1       0.887   8.889  20.602  0.00  0.00    +0.000 A 
ATOM      9  C   UNL     1       0.725   9.022  21.981  0.00  0.00    +0.000 A 
ATOM     10  C   UNL     1       0.234  10.216  22.507  0.00  0.00    +0.000 A 
ATOM     11  C   UNL     1      -0.104  11.269  21.656  0.00  0.00    +0.000 A 
ATOM     12  C   UNL     1       0.038  11.132  20.272  0.00  0.00    +0.000 A 
ATOM     13  C   UNL     1       0.538   9.942  19.736  0.00  0.00    +0.000 A 
ATOM     14  C   UNL     1       0.638   9.688  18.252  0.00  0.00    +0.000 C 
ATOM     15  N   UNL     1       1.875   9.007  17.833  0.00  0.00    +0.000 NA
ATOM     16  H   UNL     1       2.596   9.720  17.706  0.00  0.00    +0.000 HD
ENDBRANCH   3   6
ENDBRANCH   1   2
BRANCH   1  17
ATOM     17  C   UNL     1       4.882   4.305  18.328  0.00  0.00    +0.000 C 
ATOM     18  O   UNL     1       5.842   3.983  19.043  0.00  0.00    +0.000 OA
ATOM     19  N   UNL     1       3.712   3.571  18.264  0.00  0.00    +0.000 N 
ATOM     20  H   UNL     1       2.942   3.934  17.706  0.00  0.00    +0.000 HD
BRANCH  19  21
ATOM     21  C   UNL     1       3.480   2.370  19.068  0.00  0.00    +0.000 C 
ATOM     22  C   UNL     1       3.595   2.658  20.572  0.00  0.00    +0.000 C 
ATOM     23  C   UNL     1       2.426   3.490  21.099  0.00  0.00    +0.000 C 
ATOM     24  C   UNL     1       1.082   2.848  20.764  0.00  0.00    +0.000 C 
ATOM     25  C   UNL     1       0.946   2.571  19.270  0.00  0.00    +0.000 C 
ATOM     26  C   UNL     1       2.119   1.745  18.742  0.00  0.00    +0.000 C 
ENDBRANCH  19  21
ENDBRANCH   1  17
BRANCH   1  27
ATOM     27  C   UNL     1       6.382   5.874  16.993  0.00  0.00    +0.000 C 
BRANCH  27  28
ATOM     28  C   UNL     1       6.751   7.349  17.166  0.00  0.00    +0.000 C 
BRANCH  28  30
ATOM     29  C   UNL     1       8.394   9.371  18.159  0.00  0.00    +0.000 C 
ATOM     30  S   UNL     1       8.127   7.578  18.346  0.00  0.00    +0.000 S 
ENDBRANCH  28  30
ENDBRANCH  27  28
ENDBRANCH   1  27
TORSDOF 7
ENDMDL
MODEL 8
REMARK VINA RESULT:      -7.1      1.728      4.251
REMARK  Name = 
REMARK  8 active torsions:
REMARK  status: ('A' for Active; 'I' for Inactive)
REMARK    1  A    between atoms: C_1  and  S_2
REMARK    2  A    between atoms: S_2  and  C_3
REMARK    3  A    between atoms: C_3  and  C_4
REMARK    4  A    between atoms: C_4  and  C_5
REMARK    5  A    between atoms: C_5  and  N_6
REMARK    6  A    between atoms: C_5  and  C_19
REMARK    7  A    between atoms: C_7  and  C_9
REMARK    8  A    between atoms: N_21  and  C_22
REMARK                            x       y       z     vdW  Elec       q    Type
REMARK                         _______ _______ _______ _____ _____    ______ ____
ROOT
ATOM      1  C   UNL     1       3.355   6.071  17.542  0.00  0.00    +0.000 C 
ENDROOT
BRANCH   1   2
ATOM      2  N   UNL     1       2.686   7.204  18.177  0.00  0.00    +0.000 N 
ATOM      3  C   UNL     1       2.354   7.198  19.516  0.00  0.00    +0.000 C 
ATOM      4  O   UNL     1       2.559   6.225  20.246  0.00  0.00    +0.000 OA
ATOM      5  H   UNL     1       2.583   8.086  17.673  0.00  0.00    +0.000 HD
BRANCH   3   6
ATOM      6  C   UNL     1       1.684   8.479  20.037  0.00  0.00    +0.000 C 
ATOM      7  C   UNL     1       0.568   8.091  21.023  0.00  0.00    +0.000 C 
ATOM      8  C   UNL     1      -0.110   9.345  21.505  0.00  0.00    +0.000 A 
ATOM      9  C   UNL     1      -0.484   9.535  22.835  0.00  0.00    +0.000 A 
ATOM     10  C   UNL     1      -1.097  10.727  23.217  0.00  0.00    +0.000 A 
ATOM     11  C   UNL     1      -1.345  11.721  22.270  0.00  0.00    +0.000 A 
ATOM     12  C   UNL     1      -0.989  11.526  20.932  0.00  0.00    +0.000 A 
ATOM     13  C   UNL     1      -0.365  10.338  20.542  0.00  0.00    +0.000 A 
ATOM     14  C   UNL     1      -0.031  10.020  19.105  0.00  0.00    +0.000 C 
ATOM     15  N   UNL     1       1.281   9.380  18.912  0.00  0.00    +0.000 NA
ATOM     16  H   UNL     1       1.983  10.120  18.856  0.00  0.00    +0.000 HD
ENDBRANCH   3   6
ENDBRANCH   1   2
BRANCH   1  17
ATOM     17  C   UNL     1       2.557   4.762  17.742  0.00  0.00    +0.000 C 
ATOM     18  O   UNL     1       1.440   4.591  17.236  0.00  0.00    +0.000 OA
ATOM     19  N   UNL     1       3.160   3.832  18.570  0.00  0.00    +0.000 N 
ATOM     20  H   UNL     1       4.107   4.013  18.893  0.00  0.00    +0.000 HD
BRANCH  19  21
ATOM     21  C   UNL     1       2.552   2.539  18.889  0.00  0.00    +0.000 C 
ATOM     22  C   UNL     1       3.247   1.858  20.076  0.00  0.00    +0.000 C 
ATOM     23  C   UNL     1       2.957   2.558  21.404  0.00  0.00    +0.000 C 
ATOM     24  C   UNL     1       1.457   2.695  21.651  0.00  0.00    +0.000 C 
ATOM     25  C   UNL     1       0.754   3.386  20.487  0.00  0.00    +0.000 C 
ATOM     26  C   UNL     1       1.050   2.690  19.158  0.00  0.00    +0.000 C 
ENDBRANCH  19  21
ENDBRANCH   1  17
BRANCH   1  27
ATOM     27  C   UNL     1       4.794   5.940  18.067  0.00  0.00    +0.000 C 
BRANCH  27  28
ATOM     28  C   UNL     1       5.849   5.746  16.975  0.00  0.00    +0.000 C 
BRANCH  28  30
ATOM     29  C   UNL     1       7.710   5.784  19.051  0.00  0.00    +0.000 C 
ATOM     30  S   UNL     1       7.292   4.801  17.576  0.00  0.00    +0.000 S 
ENDBRANCH  28  30
ENDBRANCH  27  28
ENDBRANCH   1  27
TORSDOF 7
ENDMDL
MODEL 9
REMARK VINA RESULT:      -7.1      3.554      8.877
REMARK  Name = 
REMARK  8 active torsions:
REMARK  status: ('A' for Active; 'I' for Inactive)
REMARK    1  A    between atoms: C_1  and  S_2
REMARK    2  A    between atoms: S_2  and  C_3
REMARK    3  A    between atoms: C_3  and  C_4
REMARK    4  A    between atoms: C_4  and  C_5
REMARK    5  A    between atoms: C_5  and  N_6
REMARK    6  A    between atoms: C_5  and  C_19
REMARK    7  A    between atoms: C_7  and  C_9
REMARK    8  A    between atoms: N_21  and  C_22
REMARK                            x       y       z     vdW  Elec       q    Type
REMARK                         _______ _______ _______ _____ _____    ______ ____
ROOT
ATOM      1  C   UNL     1       0.424  10.313  19.378  0.00  0.00    +0.000 C 
ENDROOT
BRANCH   1   2
ATOM      2  N   UNL     1       1.073   9.018  19.569  0.00  0.00    +0.000 N 
ATOM      3  C   UNL     1       1.922   8.481  18.624  0.00  0.00    +0.000 C 
ATOM      4  O   UNL     1       2.149   9.034  17.546  0.00  0.00    +0.000 OA
ATOM      5  H   UNL     1       1.026   8.552  20.476  0.00  0.00    +0.000 HD
BRANCH   3   6
ATOM      6  C   UNL     1       2.548   7.127  18.992  0.00  0.00    +0.000 C 
ATOM      7  C   UNL     1       2.133   6.084  17.939  0.00  0.00    +0.000 C 
ATOM      8  C   UNL     1       2.719   4.752  18.320  0.00  0.00    +0.000 A 
ATOM      9  C   UNL     1       3.282   3.882  17.386  0.00  0.00    +0.000 A 
ATOM     10  C   UNL     1       3.819   2.668  17.809  0.00  0.00    +0.000 A 
ATOM     11  C   UNL     1       3.784   2.319  19.159  0.00  0.00    +0.000 A 
ATOM     12  C   UNL     1       3.201   3.179  20.095  0.00  0.00    +0.000 A 
ATOM     13  C   UNL     1       2.669   4.403  19.682  0.00  0.00    +0.000 A 
ATOM     14  C   UNL     1       1.949   5.343  20.618  0.00  0.00    +0.000 C 
ATOM     15  N   UNL     1       2.271   6.766  20.417  0.00  0.00    +0.000 NA
ATOM     16  H   UNL     1       3.119   6.972  20.948  0.00  0.00    +0.000 HD
ENDBRANCH   3   6
ENDBRANCH   1   2
BRANCH   1  17
ATOM     17  C   UNL     1       0.531  11.191  20.646  0.00  0.00    +0.000 C 
ATOM     18  O   UNL     1       1.436  11.034  21.477  0.00  0.00    +0.000 OA
ATOM     19  N   UNL     1      -0.487  12.113  20.805  0.00  0.00    +0.000 N 
ATOM     20  H   UNL     1      -1.157  12.231  20.049  0.00  0.00    +0.000 HD
BRANCH  19  21
ATOM     21  C   UNL     1      -0.565  13.022  21.949  0.00  0.00    +0.000 C 
ATOM     22  C   UNL     1      -1.164  14.381  21.560  0.00  0.00    +0.000 C 
ATOM     23  C   UNL     1      -2.660  14.297  21.260  0.00  0.00    +0.000 C 
ATOM     24  C   UNL     1      -3.432  13.669  22.417  0.00  0.00    +0.000 C 
ATOM     25  C   UNL     1      -2.860  12.309  22.804  0.00  0.00    +0.000 C 
ATOM     26  C   UNL     1      -1.361  12.392  23.098  0.00  0.00    +0.000 C 
ENDBRANCH  19  21
ENDBRANCH   1  17
BRANCH   1  27
ATOM     27  C   UNL     1      -1.040  10.116  18.951  0.00  0.00    +0.000 C 
BRANCH  27  28
ATOM     28  C   UNL     1      -1.257  10.085  17.436  0.00  0.00    +0.000 C 
BRANCH  28  30
ATOM     29  C   UNL     1      -2.925  10.450  15.232  0.00  0.00    +0.000 C 
ATOM     30  S   UNL     1      -3.030  10.016  16.998  0.00  0.00    +0.000 S 
ENDBRANCH  28  30
ENDBRANCH  27  28
ENDBRANCH   1  27
TORSDOF 7
ENDMDL
