MODEL 1
REMARK VINA RESULT:      -7.9      0.000      0.000
REMARK  Name = 
REMARK  8 active torsions:
REMARK  status: ('A' for Active; 'I' for Inactive)
REMARK    1  A    between atoms: C_1  and  N_2
REMARK    2  A    between atoms: N_2  and  C_3
REMARK    3  A    between atoms: N_2  and  C_4
REMARK    4  A    between atoms: C_7  and  C_8
REMARK    5  A    between atoms: N_11  and  C_12
REMARK    6  A    between atoms: C_12  and  C_13
REMARK    7  A    between atoms: N_15  and  C_16
REMARK    8  A    between atoms: C_21  and  N_22
REMARK                            x       y       z     vdW  Elec       q    Type
REMARK                         _______ _______ _______ _____ _____    ______ ____
ROOT
ATOM      1  C   UNL     1       3.126   5.955  19.553  0.00  0.00    +0.000 C 
ATOM      2  O   UNL     1       4.225   5.753  20.071  0.00  0.00    +0.000 OA
ATOM      3  N   UNL     1       2.890   5.870  18.184  0.00  0.00    +0.000 N 
ATOM      4  H   UNL     1       1.942   5.772  17.831  0.00  0.00    +0.000 HD
ENDROOT
BRANCH   3   5
ATOM      5  C   UNL     1       3.919   5.430  17.318  0.00  0.00    +0.000 A 
ATOM      6  C   UNL     1       4.562   6.443  16.579  0.00  0.00    +0.000 A 
ATOM      7  C   UNL     1       5.529   6.137  15.629  0.00  0.00    +0.000 A 
ATOM      8  C   UNL     1       5.890   4.815  15.439  0.00  0.00    +0.000 A 
ATOM      9  C   UNL     1       5.259   3.805  16.177  0.00  0.00    +0.000 A 
ATOM     10  C   UNL     1       4.226   4.061  17.114  0.00  0.00    +0.000 A 
BRANCH  10  11
ATOM     11  N   UNL     1       3.641   2.995  17.788  0.00  0.00    +0.000 N 
ATOM     12  C   UNL     1       2.351   2.391  17.423  0.00  0.00    +0.000 C 
ATOM     13  C   UNL     1       1.399   2.327  18.635  0.00  0.00    +0.000 C 
ATOM     14  O   UNL     1       2.008   1.726  19.787  0.00  0.00    +0.000 OA
ATOM     15  C   UNL     1       3.182   2.463  20.159  0.00  0.00    +0.000 C 
ATOM     16  C   UNL     1       4.219   2.435  19.027  0.00  0.00    +0.000 C 
ENDBRANCH  10  11
ENDBRANCH   3   5
BRANCH   1  17
ATOM     17  C   UNL     1       1.986   6.409  20.426  0.00  0.00    +0.000 C 
BRANCH  17  21
ATOM     18  C   UNL     1       0.590   9.535  20.635  0.00  0.00    +0.000 A 
ATOM     19  N   UNL     1       1.107   9.613  19.365  0.00  0.00    +0.000 NA
ATOM     20  N   UNL     1       1.810   8.498  19.174  0.00  0.00    +0.000 NA
ATOM     21  N   UNL     1       1.673   7.810  20.316  0.00  0.00    +0.000 N 
ATOM     22  N   UNL     1       0.987   8.438  21.288  0.00  0.00    +0.000 NA
BRANCH  18  26
ATOM     23  C   UNL     1      -2.184  12.369  22.390  0.00  0.00    +0.000 A 
ATOM     24  C   UNL     1      -1.935  12.343  21.006  0.00  0.00    +0.000 A 
ATOM     25  C   UNL     1      -1.024  11.444  20.418  0.00  0.00    +0.000 A 
ATOM     26  C   UNL     1      -0.340  10.517  21.205  0.00  0.00    +0.000 A 
ATOM     27  C   UNL     1      -0.589  10.510  22.580  0.00  0.00    +0.000 A 
ATOM     28  C   UNL     1      -1.492  11.414  23.151  0.00  0.00    +0.000 A 
BRANCH  23  30
ATOM     29  C   UNL     1      -4.106  12.790  23.900  0.00  0.00    +0.000 C 
ATOM     30  N   UNL     1      -3.073  13.261  22.986  0.00  0.00    +0.000 N 
ATOM     31  C   UNL     1      -3.265  14.583  22.393  0.00  0.00    +0.000 C 
ENDBRANCH  23  30
ENDBRANCH  18  26
ENDBRANCH  17  21
ENDBRANCH   1  17
TORSDOF 6
ENDMDL
MODEL 2
REMARK VINA RESULT:      -7.8      2.946      4.513
REMARK  Name = 
REMARK  8 active torsions:
REMARK  status: ('A' for Active; 'I' for Inactive)
REMARK    1  A    between atoms: C_1  and  N_2
REMARK    2  A    between atoms: N_2  and  C_3
REMARK    3  A    between atoms: N_2  and  C_4
REMARK    4  A    between atoms: C_7  and  C_8
REMARK    5  A    between atoms: N_11  and  C_12
REMARK    6  A    between atoms: C_12  and  C_13
REMARK    7  A    between atoms: N_15  and  C_16
REMARK    8  A    between atoms: C_21  and  N_22
REMARK                            x       y       z     vdW  Elec       q    Type
REMARK                         _______ _______ _______ _____ _____    ______ ____
ROOT
ATOM      1  C   UNL     1       2.552   7.025  18.259  0.00  0.00    +0.000 C 
ATOM      2  O   UNL     1       1.914   6.263  17.531  0.00  0.00    +0.000 OA
ATOM      3  N   UNL     1       3.093   6.649  19.485  0.00  0.00    +0.000 N 
ATOM      4  H   UNL     1       3.826   7.205  19.915  0.00  0.00    +0.000 HD
ENDROOT
BRANCH   3   5
ATOM      5  C   UNL     1       3.013   5.301  19.906  0.00  0.00    +0.000 A 
ATOM      6  C   UNL     1       1.978   5.012  20.817  0.00  0.00    +0.000 A 
ATOM      7  C   UNL     1       1.844   3.746  21.375  0.00  0.00    +0.000 A 
ATOM      8  C   UNL     1       2.723   2.747  20.995  0.00  0.00    +0.000 A 
ATOM      9  C   UNL     1       3.748   3.028  20.084  0.00  0.00    +0.000 A 
ATOM     10  C   UNL     1       3.963   4.317  19.532  0.00  0.00    +0.000 A 
BRANCH  10  11
ATOM     11  N   UNL     1       5.019   4.511  18.649  0.00  0.00    +0.000 N 
ATOM     12  C   UNL     1       6.260   5.223  18.985  0.00  0.00    +0.000 C 
ATOM     13  C   UNL     1       6.564   6.334  17.960  0.00  0.00    +0.000 C 
ATOM     14  O   UNL     1       6.522   5.864  16.604  0.00  0.00    +0.000 OA
ATOM     15  C   UNL     1       5.227   5.313  16.319  0.00  0.00    +0.000 C 
ATOM     16  C   UNL     1       4.941   4.110  17.229  0.00  0.00    +0.000 C 
ENDBRANCH  10  11
ENDBRANCH   3   5
BRANCH   1  17
ATOM     17  C   UNL     1       2.686   8.469  17.856  0.00  0.00    +0.000 C 
BRANCH  17  21
ATOM     18  C   UNL     1      -0.182  10.254  18.455  0.00  0.00    +0.000 A 
ATOM     19  N   UNL     1       0.738  11.156  18.930  0.00  0.00    +0.000 NA
ATOM     20  N   UNL     1       1.922  10.547  18.886  0.00  0.00    +0.000 NA
ATOM     21  N   UNL     1       1.661   9.332  18.384  0.00  0.00    +0.000 N 
ATOM     22  N   UNL     1       0.360   9.067  18.165  0.00  0.00    +0.000 NA
BRANCH  18  26
ATOM     23  C   UNL     1      -4.377  11.202  17.898  0.00  0.00    +0.000 A 
ATOM     24  C   UNL     1      -3.772  10.121  17.232  0.00  0.00    +0.000 A 
ATOM     25  C   UNL     1      -2.408   9.808  17.384  0.00  0.00    +0.000 A 
ATOM     26  C   UNL     1      -1.599  10.564  18.235  0.00  0.00    +0.000 A 
ATOM     27  C   UNL     1      -2.186  11.628  18.924  0.00  0.00    +0.000 A 
ATOM     28  C   UNL     1      -3.542  11.932  18.758  0.00  0.00    +0.000 A 
BRANCH  23  30
ATOM     29  C   UNL     1      -6.124  12.839  17.251  0.00  0.00    +0.000 C 
ATOM     30  N   UNL     1      -5.723  11.530  17.748  0.00  0.00    +0.000 N 
ATOM     31  C   UNL     1      -6.732  10.757  18.470  0.00  0.00    +0.000 C 
ENDBRANCH  23  30
ENDBRANCH  18  26
ENDBRANCH  17  21
ENDBRANCH   1  17
TORSDOF 6
ENDMDL
MODEL 3
REMARK VINA RESULT:      -7.7      2.824      4.335
REMARK  Name = 
REMARK  8 active torsions:
REMARK  status: ('A' for Active; 'I' for Inactive)
REMARK    1  A    between atoms: C_1  and  N_2
REMARK    2  A    between atoms: N_2  and  C_3
REMARK    3  A    between atoms: N_2  and  C_4
REMARK    4  A    between atoms: C_7  and  C_8
REMARK    5  A    between atoms: N_11  and  C_12
REMARK    6  A    between atoms: C_12  and  C_13
REMARK    7  A    between atoms: N_15  and  C_16
REMARK    8  A    between atoms: C_21  and  N_22
REMARK                            x       y       z     vdW  Elec       q    Type
REMARK                         _______ _______ _______ _____ _____    ______ ____
ROOT
ATOM      1  C   UNL     1       2.596   7.043  18.579  0.00  0.00    +0.000 C 
ATOM      2  O   UNL     1       3.117   7.204  19.683  0.00  0.00    +0.000 OA
ATOM      3  N   UNL     1       2.207   5.802  18.081  0.00  0.00    +0.000 N 
ATOM      4  H   UNL     1       1.549   5.742  17.311  0.00  0.00    +0.000 HD
ENDROOT
BRANCH   3   5
ATOM      5  C   UNL     1       2.308   4.653  18.900  0.00  0.00    +0.000 A 
ATOM      6  C   UNL     1       1.165   4.356  19.668  0.00  0.00    +0.000 A 
ATOM      7  C   UNL     1       1.162   3.306  20.580  0.00  0.00    +0.000 A 
ATOM      8  C   UNL     1       2.294   2.519  20.700  0.00  0.00    +0.000 A 
ATOM      9  C   UNL     1       3.430   2.807  19.934  0.00  0.00    +0.000 A 
ATOM     10  C   UNL     1       3.502   3.901  19.035  0.00  0.00    +0.000 A 
BRANCH  10  11
ATOM     11  N   UNL     1       4.678   4.124  18.328  0.00  0.00    +0.000 N 
ATOM     12  C   UNL     1       5.838   4.856  18.857  0.00  0.00    +0.000 C 
ATOM     13  C   UNL     1       6.274   5.983  17.899  0.00  0.00    +0.000 C 
ATOM     14  O   UNL     1       6.452   5.526  16.550  0.00  0.00    +0.000 OA
ATOM     15  C   UNL     1       5.229   4.952  16.063  0.00  0.00    +0.000 C 
ATOM     16  C   UNL     1       4.830   3.735  16.910  0.00  0.00    +0.000 C 
ENDBRANCH  10  11
ENDBRANCH   3   5
BRANCH   1  17
ATOM     17  C   UNL     1       2.445   8.233  17.668  0.00  0.00    +0.000 C 
BRANCH  17  21
ATOM     18  C   UNL     1      -0.190  10.314  18.368  0.00  0.00    +0.000 A 
ATOM     19  N   UNL     1       0.835  11.222  18.466  0.00  0.00    +0.000 NA
ATOM     20  N   UNL     1       1.966  10.529  18.344  0.00  0.00    +0.000 NA
ATOM     21  N   UNL     1       1.572   9.261  18.171  0.00  0.00    +0.000 N 
ATOM     22  N   UNL     1       0.244   9.055  18.251  0.00  0.00    +0.000 NA
BRANCH  18  26
ATOM     23  C   UNL     1      -4.393  11.368  18.194  0.00  0.00    +0.000 A 
ATOM     24  C   UNL     1      -3.501  12.038  19.050  0.00  0.00    +0.000 A 
ATOM     25  C   UNL     1      -2.137  11.699  19.136  0.00  0.00    +0.000 A 
ATOM     26  C   UNL     1      -1.612  10.678  18.342  0.00  0.00    +0.000 A 
ATOM     27  C   UNL     1      -2.476  10.015  17.469  0.00  0.00    +0.000 A 
ATOM     28  C   UNL     1      -3.831  10.358  17.398  0.00  0.00    +0.000 A 
BRANCH  23  30
ATOM     29  C   UNL     1      -6.767  10.745  18.554  0.00  0.00    +0.000 C 
ATOM     30  N   UNL     1      -5.747  11.686  18.108  0.00  0.00    +0.000 N 
ATOM     31  C   UNL     1      -6.176  12.748  17.201  0.00  0.00    +0.000 C 
ENDBRANCH  23  30
ENDBRANCH  18  26
ENDBRANCH  17  21
ENDBRANCH   1  17
TORSDOF 6
ENDMDL
MODEL 4
REMARK VINA RESULT:      -7.7      3.047      4.583
REMARK  Name = 
REMARK  8 active torsions:
REMARK  status: ('A' for Active; 'I' for Inactive)
REMARK    1  A    between atoms: C_1  and  N_2
REMARK    2  A    between atoms: N_2  and  C_3
REMARK    3  A    between atoms: N_2  and  C_4
REMARK    4  A    between atoms: C_7  and  C_8
REMARK    5  A    between atoms: N_11  and  C_12
REMARK    6  A    between atoms: C_12  and  C_13
REMARK    7  A    between atoms: N_15  and  C_16
REMARK    8  A    between atoms: C_21  and  N_22
REMARK                            x       y       z     vdW  Elec       q    Type
REMARK                         _______ _______ _______ _____ _____    ______ ____
ROOT
ATOM      1  C   UNL     1       2.696   6.604  18.271  0.00  0.00    +0.000 C 
ATOM      2  O   UNL     1       1.943   5.863  17.638  0.00  0.00    +0.000 OA
ATOM      3  N   UNL     1       3.294   6.250  19.477  0.00  0.00    +0.000 N 
ATOM      4  H   UNL     1       4.103   6.761  19.820  0.00  0.00    +0.000 HD
ENDROOT
BRANCH   3   5
ATOM      5  C   UNL     1       3.132   4.940  19.985  0.00  0.00    +0.000 A 
ATOM      6  C   UNL     1       2.185   4.805  21.020  0.00  0.00    +0.000 A 
ATOM      7  C   UNL     1       1.992   3.589  21.665  0.00  0.00    +0.000 A 
ATOM      8  C   UNL     1       2.719   2.486  21.252  0.00  0.00    +0.000 A 
ATOM      9  C   UNL     1       3.656   2.614  20.219  0.00  0.00    +0.000 A 
ATOM     10  C   UNL     1       3.931   3.845  19.570  0.00  0.00    +0.000 A 
BRANCH  10  11
ATOM     11  N   UNL     1       4.892   3.884  18.566  0.00  0.00    +0.000 N 
ATOM     12  C   UNL     1       6.222   4.493  18.715  0.00  0.00    +0.000 C 
ATOM     13  C   UNL     1       6.503   5.507  17.587  0.00  0.00    +0.000 C 
ATOM     14  O   UNL     1       6.265   4.963  16.280  0.00  0.00    +0.000 OA
ATOM     15  C   UNL     1       4.903   4.521  16.176  0.00  0.00    +0.000 C 
ATOM     16  C   UNL     1       4.618   3.407  17.195  0.00  0.00    +0.000 C 
ENDBRANCH  10  11
ENDBRANCH   3   5
BRANCH   1  17
ATOM     17  C   UNL     1       2.923   8.006  17.771  0.00  0.00    +0.000 C 
BRANCH  17  21
ATOM     18  C   UNL     1       1.356  10.875  18.812  0.00  0.00    +0.000 A 
ATOM     19  N   UNL     1       0.952  10.030  19.817  0.00  0.00    +0.000 NA
ATOM     20  N   UNL     1       1.382   8.814  19.484  0.00  0.00    +0.000 NA
ATOM     21  N   UNL     1       2.022   8.987  18.319  0.00  0.00    +0.000 N 
ATOM     22  N   UNL     1       1.975  10.234  17.816  0.00  0.00    +0.000 NA
BRANCH  18  26
ATOM     23  C   UNL     1       0.754  15.169  18.838  0.00  0.00    +0.000 A 
ATOM     24  C   UNL     1       2.039  14.606  18.933  0.00  0.00    +0.000 A 
ATOM     25  C   UNL     1       2.254  13.214  18.945  0.00  0.00    +0.000 A 
ATOM     26  C   UNL     1       1.178  12.331  18.841  0.00  0.00    +0.000 A 
ATOM     27  C   UNL     1      -0.105  12.871  18.724  0.00  0.00    +0.000 A 
ATOM     28  C   UNL     1      -0.305  14.256  18.719  0.00  0.00    +0.000 A 
BRANCH  23  30
ATOM     29  C   UNL     1      -0.599  17.115  18.106  0.00  0.00    +0.000 C 
ATOM     30  N   UNL     1       0.525  16.544  18.836  0.00  0.00    +0.000 N 
ATOM     31  C   UNL     1       1.615  17.451  19.190  0.00  0.00    +0.000 C 
ENDBRANCH  23  30
ENDBRANCH  18  26
ENDBRANCH  17  21
ENDBRANCH   1  17
TORSDOF 6
ENDMDL
MODEL 5
REMARK VINA RESULT:      -7.7      0.836      1.222
REMARK  Name = 
REMARK  8 active torsions:
REMARK  status: ('A' for Active; 'I' for Inactive)
REMARK    1  A    between atoms: C_1  and  N_2
REMARK    2  A    between atoms: N_2  and  C_3
REMARK    3  A    between atoms: N_2  and  C_4
REMARK    4  A    between atoms: C_7  and  C_8
REMARK    5  A    between atoms: N_11  and  C_12
REMARK    6  A    between atoms: C_12  and  C_13
REMARK    7  A    between atoms: N_15  and  C_16
REMARK    8  A    between atoms: C_21  and  N_22
REMARK                            x       y       z     vdW  Elec       q    Type
REMARK                         _______ _______ _______ _____ _____    ______ ____
ROOT
ATOM      1  C   UNL     1       2.578   6.001  19.001  0.00  0.00    +0.000 C 
ATOM      2  O   UNL     1       1.789   5.596  18.147  0.00  0.00    +0.000 OA
ATOM      3  N   UNL     1       3.962   5.888  18.892  0.00  0.00    +0.000 N 
ATOM      4  H   UNL     1       4.571   6.463  19.465  0.00  0.00    +0.000 HD
ENDROOT
BRANCH   3   5
ATOM      5  C   UNL     1       4.533   5.377  17.703  0.00  0.00    +0.000 A 
ATOM      6  C   UNL     1       5.077   6.341  16.831  0.00  0.00    +0.000 A 
ATOM      7  C   UNL     1       5.590   5.982  15.590  0.00  0.00    +0.000 A 
ATOM      8  C   UNL     1       5.599   4.646  15.228  0.00  0.00    +0.000 A 
ATOM      9  C   UNL     1       5.065   3.684  16.094  0.00  0.00    +0.000 A 
ATOM     10  C   UNL     1       4.478   4.007  17.344  0.00  0.00    +0.000 A 
BRANCH  10  11
ATOM     11  N   UNL     1       3.955   2.989  18.133  0.00  0.00    +0.000 N 
ATOM     12  C   UNL     1       2.777   2.186  17.776  0.00  0.00    +0.000 C 
ATOM     13  C   UNL     1       1.733   2.185  18.912  0.00  0.00    +0.000 C 
ATOM     14  O   UNL     1       2.300   1.838  20.184  0.00  0.00    +0.000 OA
ATOM     15  C   UNL     1       3.349   2.759  20.520  0.00  0.00    +0.000 C 
ATOM     16  C   UNL     1       4.479   2.690  19.482  0.00  0.00    +0.000 C 
ENDBRANCH  10  11
ENDBRANCH   3   5
BRANCH   1  17
ATOM     17  C   UNL     1       2.030   6.572  20.282  0.00  0.00    +0.000 C 
BRANCH  17  21
ATOM     18  C   UNL     1       0.589   9.670  20.588  0.00  0.00    +0.000 A 
ATOM     19  N   UNL     1       1.104   9.795  19.322  0.00  0.00    +0.000 NA
ATOM     20  N   UNL     1       1.823   8.696  19.096  0.00  0.00    +0.000 NA
ATOM     21  N   UNL     1       1.697   7.971  20.216  0.00  0.00    +0.000 N 
ATOM     22  N   UNL     1       1.001   8.559  21.207  0.00  0.00    +0.000 NA
BRANCH  18  26
ATOM     23  C   UNL     1      -2.165  12.548  22.304  0.00  0.00    +0.000 A 
ATOM     24  C   UNL     1      -1.624  11.500  23.070  0.00  0.00    +0.000 A 
ATOM     25  C   UNL     1      -0.744  10.544  22.528  0.00  0.00    +0.000 A 
ATOM     26  C   UNL     1      -0.355  10.620  21.189  0.00  0.00    +0.000 A 
ATOM     27  C   UNL     1      -0.863  11.667  20.416  0.00  0.00    +0.000 A 
ATOM     28  C   UNL     1      -1.743  12.606  20.967  0.00  0.00    +0.000 A 
BRANCH  23  30
ATOM     29  C   UNL     1      -2.701  14.263  24.013  0.00  0.00    +0.000 C 
ATOM     30  N   UNL     1      -3.046  13.493  22.825  0.00  0.00    +0.000 N 
ATOM     31  C   UNL     1      -4.461  13.428  22.465  0.00  0.00    +0.000 C 
ENDBRANCH  23  30
ENDBRANCH  18  26
ENDBRANCH  17  21
ENDBRANCH   1  17
TORSDOF 6
ENDMDL
MODEL 6
REMARK VINA RESULT:      -7.7      1.139      1.530
REMARK  Name = 
REMARK  8 active torsions:
REMARK  status: ('A' for Active; 'I' for Inactive)
REMARK    1  A    between atoms: C_1  and  N_2
REMARK    2  A    between atoms: N_2  and  C_3
REMARK    3  A    between atoms: N_2  and  C_4
REMARK    4  A    between atoms: C_7  and  C_8
REMARK    5  A    between atoms: N_11  and  C_12
REMARK    6  A    between atoms: C_12  and  C_13
REMARK    7  A    between atoms: N_15  and  C_16
REMARK    8  A    between atoms: C_21  and  N_22
REMARK                            x       y       z     vdW  Elec       q    Type
REMARK                         _______ _______ _______ _____ _____    ______ ____
ROOT
ATOM      1  C   UNL     1       3.358   6.057  19.254  0.00  0.00    +0.000 C 
ATOM      2  O   UNL     1       4.444   5.868  19.804  0.00  0.00    +0.000 OA
ATOM      3  N   UNL     1       3.125   5.820  17.902  0.00  0.00    +0.000 N 
ATOM      4  H   UNL     1       2.176   5.724  17.554  0.00  0.00    +0.000 HD
ENDROOT
BRANCH   3   5
ATOM      5  C   UNL     1       4.137   5.234  17.107  0.00  0.00    +0.000 A 
ATOM      6  C   UNL     1       4.852   6.126  16.283  0.00  0.00    +0.000 A 
ATOM      7  C   UNL     1       5.812   5.669  15.388  0.00  0.00    +0.000 A 
ATOM      8  C   UNL     1       6.094   4.315  15.339  0.00  0.00    +0.000 A 
ATOM      9  C   UNL     1       5.391   3.425  16.161  0.00  0.00    +0.000 A 
ATOM     10  C   UNL     1       4.362   3.836  17.047  0.00  0.00    +0.000 A 
BRANCH  10  11
ATOM     11  N   UNL     1       3.703   2.880  17.812  0.00  0.00    +0.000 N 
ATOM     12  C   UNL     1       2.388   2.315  17.479  0.00  0.00    +0.000 C 
ATOM     13  C   UNL     1       1.410   2.431  18.667  0.00  0.00    +0.000 C 
ATOM     14  O   UNL     1       1.961   1.920  19.890  0.00  0.00    +0.000 OA
ATOM     15  C   UNL     1       3.169   2.625  20.213  0.00  0.00    +0.000 C 
ATOM     16  C   UNL     1       4.224   2.420  19.116  0.00  0.00    +0.000 C 
ENDBRANCH  10  11
ENDBRANCH   3   5
BRANCH   1  17
ATOM     17  C   UNL     1       2.236   6.663  20.054  0.00  0.00    +0.000 C 
BRANCH  17  21
ATOM     18  C   UNL     1       0.711   9.697  19.569  0.00  0.00    +0.000 A 
ATOM     19  N   UNL     1       1.347   9.577  18.358  0.00  0.00    +0.000 NA
ATOM     20  N   UNL     1       2.105   8.485  18.435  0.00  0.00    +0.000 NA
ATOM     21  N   UNL     1       1.883   8.003  19.666  0.00  0.00    +0.000 N 
ATOM     22  N   UNL     1       1.081   8.755  20.442  0.00  0.00    +0.000 NA
BRANCH  18  26
ATOM     23  C   UNL     1      -2.305  12.713  20.351  0.00  0.00    +0.000 A 
ATOM     24  C   UNL     1      -1.238  12.492  21.239  0.00  0.00    +0.000 A 
ATOM     25  C   UNL     1      -0.259  11.505  21.014  0.00  0.00    +0.000 A 
ATOM     26  C   UNL     1      -0.307  10.712  19.866  0.00  0.00    +0.000 A 
ATOM     27  C   UNL     1      -1.346  10.931  18.959  0.00  0.00    +0.000 A 
ATOM     28  C   UNL     1      -2.316  11.911  19.199  0.00  0.00    +0.000 A 
BRANCH  23  30
ATOM     29  C   UNL     1      -2.996  14.882  21.336  0.00  0.00    +0.000 C 
ATOM     30  N   UNL     1      -3.286  13.679  20.567  0.00  0.00    +0.000 N 
ATOM     31  C   UNL     1      -4.694  13.317  20.410  0.00  0.00    +0.000 C 
ENDBRANCH  23  30
ENDBRANCH  18  26
ENDBRANCH  17  21
ENDBRANCH   1  17
TORSDOF 6
ENDMDL
MODEL 7
REMARK VINA RESULT:      -7.7      3.008      4.537
REMARK  Name = 
REMARK  8 active torsions:
REMARK  status: ('A' for Active; 'I' for Inactive)
REMARK    1  A    between atoms: C_1  and  N_2
REMARK    2  A    between atoms: N_2  and  C_3
REMARK    3  A    between atoms: N_2  and  C_4
REMARK    4  A    between atoms: C_7  and  C_8
REMARK    5  A    between atoms: N_11  and  C_12
REMARK    6  A    between atoms: C_12  and  C_13
REMARK    7  A    between atoms: N_15  and  C_16
REMARK    8  A    between atoms: C_21  and  N_22
REMARK                            x       y       z     vdW  Elec       q    Type
REMARK                         _______ _______ _______ _____ _____    ______ ____
ROOT
ATOM      1  C   UNL     1       2.696   6.627  18.277  0.00  0.00    +0.000 C 
ATOM      2  O   UNL     1       1.934   5.890  17.650  0.00  0.00    +0.000 OA
ATOM      3  N   UNL     1       3.312   6.265  19.472  0.00  0.00    +0.000 N 
ATOM      4  H   UNL     1       4.124   6.774  19.806  0.00  0.00    +0.000 HD
ENDROOT
BRANCH   3   5
ATOM      5  C   UNL     1       3.158   4.951  19.972  0.00  0.00    +0.000 A 
ATOM      6  C   UNL     1       2.213   4.804  21.006  0.00  0.00    +0.000 A 
ATOM      7  C   UNL     1       2.028   3.583  21.645  0.00  0.00    +0.000 A 
ATOM      8  C   UNL     1       2.761   2.487  21.225  0.00  0.00    +0.000 A 
ATOM      9  C   UNL     1       3.697   2.627  20.192  0.00  0.00    +0.000 A 
ATOM     10  C   UNL     1       3.964   3.863  19.550  0.00  0.00    +0.000 A 
BRANCH  10  11
ATOM     11  N   UNL     1       4.924   3.914  18.546  0.00  0.00    +0.000 N 
ATOM     12  C   UNL     1       6.262   4.502  18.708  0.00  0.00    +0.000 C 
ATOM     13  C   UNL     1       6.555   5.539  17.605  0.00  0.00    +0.000 C 
ATOM     14  O   UNL     1       6.308   5.030  16.286  0.00  0.00    +0.000 OA
ATOM     15  C   UNL     1       4.941   4.609  16.173  0.00  0.00    +0.000 C 
ATOM     16  C   UNL     1       4.642   3.475  17.164  0.00  0.00    +0.000 C 
ENDBRANCH  10  11
ENDBRANCH   3   5
BRANCH   1  17
ATOM     17  C   UNL     1       2.914   8.033  17.784  0.00  0.00    +0.000 C 
BRANCH  17  21
ATOM     18  C   UNL     1       1.289  10.884  18.785  0.00  0.00    +0.000 A 
ATOM     19  N   UNL     1       0.926  10.054  19.817  0.00  0.00    +0.000 NA
ATOM     20  N   UNL     1       1.382   8.842  19.505  0.00  0.00    +0.000 NA
ATOM     21  N   UNL     1       1.997   9.003  18.325  0.00  0.00    +0.000 N 
ATOM     22  N   UNL     1       1.908  10.236  17.793  0.00  0.00    +0.000 NA
BRANCH  18  26
ATOM     23  C   UNL     1       0.735  15.185  18.834  0.00  0.00    +0.000 A 
ATOM     24  C   UNL     1      -0.359  14.302  18.827  0.00  0.00    +0.000 A 
ATOM     25  C   UNL     1      -0.202  12.903  18.792  0.00  0.00    +0.000 A 
ATOM     26  C   UNL     1       1.074  12.336  18.783  0.00  0.00    +0.000 A 
ATOM     27  C   UNL     1       2.175  13.195  18.812  0.00  0.00    +0.000 A 
ATOM     28  C   UNL     1       2.003  14.584  18.841  0.00  0.00    +0.000 A 
BRANCH  23  30
ATOM     29  C   UNL     1       1.090  17.356  19.980  0.00  0.00    +0.000 C 
ATOM     30  N   UNL     1       0.593  16.571  18.857  0.00  0.00    +0.000 N 
ATOM     31  C   UNL     1      -0.406  17.202  17.997  0.00  0.00    +0.000 C 
ENDBRANCH  23  30
ENDBRANCH  18  26
ENDBRANCH  17  21
ENDBRANCH   1  17
TORSDOF 6
ENDMDL
MODEL 8
REMARK VINA RESULT:      -7.6      2.060      3.608
REMARK  Name = 
REMARK  8 active torsions:
REMARK  status: ('A' for Active; 'I' for Inactive)
REMARK    1  A    between atoms: C_1  and  N_2
REMARK    2  A    between atoms: N_2  and  C_3
REMARK    3  A    between atoms: N_2  and  C_4
REMARK    4  A    between atoms: C_7  and  C_8
REMARK    5  A    between atoms: N_11  and  C_12
REMARK    6  A    between atoms: C_12  and  C_13
REMARK    7  A    between atoms: N_15  and  C_16
REMARK    8  A    between atoms: C_21  and  N_22
REMARK                            x       y       z     vdW  Elec       q    Type
REMARK                         _______ _______ _______ _____ _____    ______ ____
ROOT
ATOM      1  C   UNL     1       2.395   6.739  18.811  0.00  0.00    +0.000 C 
ATOM      2  O   UNL     1       1.881   6.051  17.929  0.00  0.00    +0.000 OA
ATOM      3  N   UNL     1       3.090   6.212  19.896  0.00  0.00    +0.000 N 
ATOM      4  H   UNL     1       3.718   6.798  20.437  0.00  0.00    +0.000 HD
ENDROOT
BRANCH   3   5
ATOM      5  C   UNL     1       3.326   4.820  19.970  0.00  0.00    +0.000 A 
ATOM      6  C   UNL     1       2.501   4.113  20.868  0.00  0.00    +0.000 A 
ATOM      7  C   UNL     1       2.688   2.755  21.100  0.00  0.00    +0.000 A 
ATOM      8  C   UNL     1       3.679   2.084  20.406  0.00  0.00    +0.000 A 
ATOM      9  C   UNL     1       4.497   2.781  19.507  0.00  0.00    +0.000 A 
ATOM     10  C   UNL     1       4.384   4.177  19.280  0.00  0.00    +0.000 A 
BRANCH  10  11
ATOM     11  N   UNL     1       5.252   4.791  18.384  0.00  0.00    +0.000 N 
ATOM     12  C   UNL     1       5.064   4.806  16.926  0.00  0.00    +0.000 C 
ATOM     13  C   UNL     1       6.324   4.303  16.193  0.00  0.00    +0.000 C 
ATOM     14  O   UNL     1       7.519   4.971  16.623  0.00  0.00    +0.000 OA
ATOM     15  C   UNL     1       7.700   4.786  18.035  0.00  0.00    +0.000 C 
ATOM     16  C   UNL     1       6.528   5.399  18.814  0.00  0.00    +0.000 C 
ENDBRANCH  10  11
ENDBRANCH   3   5
BRANCH   1  17
ATOM     17  C   UNL     1       2.192   8.231  18.777  0.00  0.00    +0.000 C 
BRANCH  17  21
ATOM     18  C   UNL     1       0.521  10.182  21.050  0.00  0.00    +0.000 A 
ATOM     19  N   UNL     1       0.705   9.060  21.820  0.00  0.00    +0.000 NA
ATOM     20  N   UNL     1       1.240   8.137  21.023  0.00  0.00    +0.000 NA
ATOM     21  N   UNL     1       1.360   8.744  19.834  0.00  0.00    +0.000 N 
ATOM     22  N   UNL     1       0.862   9.993  19.771  0.00  0.00    +0.000 NA
BRANCH  18  26
ATOM     23  C   UNL     1      -0.771  14.025  22.588  0.00  0.00    +0.000 A 
ATOM     24  C   UNL     1      -1.363  12.824  23.018  0.00  0.00    +0.000 A 
ATOM     25  C   UNL     1      -0.971  11.567  22.518  0.00  0.00    +0.000 A 
ATOM     26  C   UNL     1       0.052  11.470  21.573  0.00  0.00    +0.000 A 
ATOM     27  C   UNL     1       0.669  12.650  21.150  0.00  0.00    +0.000 A 
ATOM     28  C   UNL     1       0.265  13.893  21.651  0.00  0.00    +0.000 A 
BRANCH  23  30
ATOM     29  C   UNL     1      -1.075  15.591  24.487  0.00  0.00    +0.000 C 
ATOM     30  N   UNL     1      -1.157  15.275  23.067  0.00  0.00    +0.000 N 
ATOM     31  C   UNL     1      -2.030  16.116  22.250  0.00  0.00    +0.000 C 
ENDBRANCH  23  30
ENDBRANCH  18  26
ENDBRANCH  17  21
ENDBRANCH   1  17
TORSDOF 6
ENDMDL
MODEL 9
REMARK VINA RESULT:      -7.6      1.846      3.281
REMARK  Name = 
REMARK  8 active torsions:
REMARK  status: ('A' for Active; 'I' for Inactive)
REMARK    1  A    between atoms: C_1  and  N_2
REMARK    2  A    between atoms: N_2  and  C_3
REMARK    3  A    between atoms: N_2  and  C_4
REMARK    4  A    between atoms: C_7  and  C_8
REMARK    5  A    between atoms: N_11  and  C_12
REMARK    6  A    between atoms: C_12  and  C_13
REMARK    7  A    between atoms: N_15  and  C_16
REMARK    8  A    between atoms: C_21  and  N_22
REMARK                            x       y       z     vdW  Elec       q    Type
REMARK                         _______ _______ _______ _____ _____    ______ ____
ROOT
ATOM      1  C   UNL     1       2.286   7.326  18.629  0.00  0.00    +0.000 C 
ATOM      2  O   UNL     1       2.647   7.486  19.796  0.00  0.00    +0.000 OA
ATOM      3  N   UNL     1       2.339   6.105  17.964  0.00  0.00    +0.000 N 
ATOM      4  H   UNL     1       1.791   5.954  17.122  0.00  0.00    +0.000 HD
ENDROOT
BRANCH   3   5
ATOM      5  C   UNL     1       2.728   4.939  18.665  0.00  0.00    +0.000 A 
ATOM      6  C   UNL     1       1.760   4.408  19.540  0.00  0.00    +0.000 A 
ATOM      7  C   UNL     1       2.046   3.317  20.353  0.00  0.00    +0.000 A 
ATOM      8  C   UNL     1       3.293   2.723  20.267  0.00  0.00    +0.000 A 
ATOM      9  C   UNL     1       4.256   3.244  19.393  0.00  0.00    +0.000 A 
ATOM     10  C   UNL     1       4.032   4.390  18.588  0.00  0.00    +0.000 A 
BRANCH  10  11
ATOM     11  N   UNL     1       5.053   4.849  17.763  0.00  0.00    +0.000 N 
ATOM     12  C   UNL     1       5.065   4.703  16.300  0.00  0.00    +0.000 C 
ATOM     13  C   UNL     1       6.376   4.053  15.812  0.00  0.00    +0.000 C 
ATOM     14  O   UNL     1       7.545   4.704  16.333  0.00  0.00    +0.000 OA
ATOM     15  C   UNL     1       7.520   4.676  17.768  0.00  0.00    +0.000 C 
ATOM     16  C   UNL     1       6.297   5.436  18.302  0.00  0.00    +0.000 C 
ENDBRANCH  10  11
ENDBRANCH   3   5
BRANCH   1  17
ATOM     17  C   UNL     1       1.843   8.528  17.837  0.00  0.00    +0.000 C 
BRANCH  17  21
ATOM     18  C   UNL     1       0.340  10.954  19.739  0.00  0.00    +0.000 A 
ATOM     19  N   UNL     1       1.245  11.736  19.066  0.00  0.00    +0.000 NA
ATOM     20  N   UNL     1       2.013  10.906  18.362  0.00  0.00    +0.000 NA
ATOM     21  N   UNL     1       1.532   9.685  18.634  0.00  0.00    +0.000 N 
ATOM     22  N   UNL     1       0.538   9.647  19.541  0.00  0.00    +0.000 NA
BRANCH  18  26
ATOM     23  C   UNL     1      -2.911  12.444  22.193  0.00  0.00    +0.000 A 
ATOM     24  C   UNL     1      -2.886  12.648  20.802  0.00  0.00    +0.000 A 
ATOM     25  C   UNL     1      -1.831  12.189  19.989  0.00  0.00    +0.000 A 
ATOM     26  C   UNL     1      -0.764  11.485  20.549  0.00  0.00    +0.000 A 
ATOM     27  C   UNL     1      -0.780  11.252  21.926  0.00  0.00    +0.000 A 
ATOM     28  C   UNL     1      -1.832  11.719  22.722  0.00  0.00    +0.000 A 
BRANCH  23  30
ATOM     29  C   UNL     1      -3.985  12.561  24.425  0.00  0.00    +0.000 C 
ATOM     30  N   UNL     1      -3.943  12.903  23.009  0.00  0.00    +0.000 N 
ATOM     31  C   UNL     1      -5.192  13.354  22.399  0.00  0.00    +0.000 C 
ENDBRANCH  23  30
ENDBRANCH  18  26
ENDBRANCH  17  21
ENDBRANCH   1  17
TORSDOF 6
ENDMDL
