MODEL 1
REMARK VINA RESULT:      -8.2      0.000      0.000
REMARK  Name = 
REMARK  8 active torsions:
REMARK  status: ('A' for Active; 'I' for Inactive)
REMARK    1  A    between atoms: C_1  and  O_2
REMARK    2  A    between atoms: O_2  and  C_3
REMARK    3  A    between atoms: C_8  and  C_9
REMARK    4  A    between atoms: C_10  and  C_11
REMARK    5  A    between atoms: C_14  and  C_15
REMARK    6  A    between atoms: C_21  and  C_22
REMARK    7  A    between atoms: C_23  and  C_24
REMARK    8  A    between atoms: C_27  and  C_28
REMARK                            x       y       z     vdW  Elec       q    Type
REMARK                         _______ _______ _______ _____ _____    ______ ____
ROOT
ATOM      1  C   UNL     1       2.168   8.642  18.231  0.00  0.00    +0.000 A 
ATOM      2  C   UNL     1       2.970   7.512  18.025  0.00  0.00    +0.000 A 
ATOM      3  C   UNL     1       2.976   6.435  18.937  0.00  0.00    +0.000 A 
ATOM      4  C   UNL     1       2.067   6.474  19.991  0.00  0.00    +0.000 A 
ATOM      5  C   UNL     1       1.229   7.572  20.215  0.00  0.00    +0.000 A 
ATOM      6  C   UNL     1       1.271   8.666  19.315  0.00  0.00    +0.000 A 
ATOM      7  N   UNL     1       2.171   5.279  20.661  0.00  0.00    +0.000 N 
ATOM      8  C   UNL     1       3.188   4.530  20.130  0.00  0.00    +0.000 A 
ATOM      9  N   UNL     1       3.549   3.317  20.578  0.00  0.00    +0.000 NA
ATOM     10  C   UNL     1       4.615   2.841  19.916  0.00  0.00    +0.000 A 
ATOM     11  N   UNL     1       5.321   3.448  18.947  0.00  0.00    +0.000 NA
ATOM     12  C   UNL     1       4.922   4.681  18.539  0.00  0.00    +0.000 A 
ATOM     13  C   UNL     1       3.771   5.252  19.098  0.00  0.00    +0.000 A 
ATOM     14  H   UNL     1       1.609   4.976  21.442  0.00  0.00    +0.000 HD
ENDROOT
BRANCH  12  15
ATOM     15  C   UNL     1       5.768   5.381  17.588  0.00  0.00    +0.000 A 
ATOM     16  C   UNL     1       6.976   6.126  17.758  0.00  0.00    +0.000 A 
ATOM     17  C   UNL     1       7.777   6.408  18.976  0.00  0.00    +0.000 C 
ATOM     18  N   UNL     1       7.416   6.631  16.599  0.00  0.00    +0.000 NA
ATOM     19  N   UNL     1       6.585   6.114  15.683  0.00  0.00    +0.000 N 
ATOM     20  C   UNL     1       5.601   5.330  16.212  0.00  0.00    +0.000 A 
ATOM     21  C   UNL     1       4.639   4.617  15.337  0.00  0.00    +0.000 C 
ATOM     22  H   UNL     1       6.763   6.327  14.709  0.00  0.00    +0.000 HD
ENDBRANCH  12  15
BRANCH   6  23
ATOM     23  C   UNL     1       0.321   9.764  19.518  0.00  0.00    +0.000 A 
ATOM     24  C   UNL     1      -0.766  10.271  18.755  0.00  0.00    +0.000 A 
ATOM     25  C   UNL     1      -1.294   9.869  17.427  0.00  0.00    +0.000 C 
ATOM     26  N   UNL     1      -1.365  11.292  19.381  0.00  0.00    +0.000 NA
ATOM     27  O   UNL     1      -0.705  11.450  20.576  0.00  0.00    +0.000 OA
ATOM     28  C   UNL     1       0.295  10.536  20.663  0.00  0.00    +0.000 A 
ATOM     29  C   UNL     1       1.079  10.569  21.914  0.00  0.00    +0.000 C 
ENDBRANCH   6  23
BRANCH   1  31
ATOM     30  C   UNL     1       2.672  10.960  17.877  0.00  0.00    +0.000 C 
ATOM     31  O   UNL     1       2.181   9.718  17.375  0.00  0.00    +0.000 OA
ENDBRANCH   1  31
TORSDOF 3
ENDMDL
MODEL 2
REMARK VINA RESULT:      -7.9      0.488      1.521
REMARK  Name = 
REMARK  8 active torsions:
REMARK  status: ('A' for Active; 'I' for Inactive)
REMARK    1  A    between atoms: C_1  and  O_2
REMARK    2  A    between atoms: O_2  and  C_3
REMARK    3  A    between atoms: C_8  and  C_9
REMARK    4  A    between atoms: C_10  and  C_11
REMARK    5  A    between atoms: C_14  and  C_15
REMARK    6  A    between atoms: C_21  and  C_22
REMARK    7  A    between atoms: C_23  and  C_24
REMARK    8  A    between atoms: C_27  and  C_28
REMARK                            x       y       z     vdW  Elec       q    Type
REMARK                         _______ _______ _______ _____ _____    ______ ____
ROOT
ATOM      1  C   UNL     1       2.202   8.836  18.147  0.00  0.00    +0.000 A 
ATOM      2  C   UNL     1       2.972   7.679  17.970  0.00  0.00    +0.000 A 
ATOM      3  C   UNL     1       2.938   6.620  18.902  0.00  0.00    +0.000 A 
ATOM      4  C   UNL     1       2.019   6.705  19.946  0.00  0.00    +0.000 A 
ATOM      5  C   UNL     1       1.212   7.831  20.141  0.00  0.00    +0.000 A 
ATOM      6  C   UNL     1       1.295   8.906  19.222  0.00  0.00    +0.000 A 
ATOM      7  N   UNL     1       2.082   5.520  20.639  0.00  0.00    +0.000 N 
ATOM      8  C   UNL     1       3.082   4.732  20.132  0.00  0.00    +0.000 A 
ATOM      9  N   UNL     1       3.402   3.518  20.606  0.00  0.00    +0.000 NA
ATOM     10  C   UNL     1       4.461   2.999  19.964  0.00  0.00    +0.000 A 
ATOM     11  N   UNL     1       5.193   3.566  18.991  0.00  0.00    +0.000 NA
ATOM     12  C   UNL     1       4.834   4.802  18.556  0.00  0.00    +0.000 A 
ATOM     13  C   UNL     1       3.696   5.418  19.093  0.00  0.00    +0.000 A 
ATOM     14  H   UNL     1       1.504   5.249  21.420  0.00  0.00    +0.000 HD
ENDROOT
BRANCH  12  15
ATOM     15  C   UNL     1       5.710   5.459  17.600  0.00  0.00    +0.000 A 
ATOM     16  C   UNL     1       6.930   6.184  17.771  0.00  0.00    +0.000 A 
ATOM     17  C   UNL     1       7.718   6.481  18.994  0.00  0.00    +0.000 C 
ATOM     18  N   UNL     1       7.399   6.649  16.606  0.00  0.00    +0.000 NA
ATOM     19  N   UNL     1       6.571   6.125  15.691  0.00  0.00    +0.000 N 
ATOM     20  C   UNL     1       5.563   5.376  16.224  0.00  0.00    +0.000 A 
ATOM     21  C   UNL     1       4.600   4.659  15.353  0.00  0.00    +0.000 C 
ATOM     22  H   UNL     1       6.769   6.308  14.715  0.00  0.00    +0.000 HD
ENDBRANCH  12  15
BRANCH   6  23
ATOM     23  C   UNL     1       0.376  10.035  19.394  0.00  0.00    +0.000 A 
ATOM     24  C   UNL     1       0.330  11.130  20.299  0.00  0.00    +0.000 A 
ATOM     25  C   UNL     1       1.210  11.486  21.441  0.00  0.00    +0.000 C 
ATOM     26  N   UNL     1      -0.710  11.933  20.039  0.00  0.00    +0.000 NA
ATOM     27  O   UNL     1      -1.344  11.397  18.944  0.00  0.00    +0.000 OA
ATOM     28  C   UNL     1      -0.694  10.271  18.552  0.00  0.00    +0.000 A 
ATOM     29  C   UNL     1      -1.251   9.598  17.363  0.00  0.00    +0.000 C 
ENDBRANCH   6  23
BRANCH   1  31
ATOM     30  C   UNL     1       2.805  11.122  17.747  0.00  0.00    +0.000 C 
ATOM     31  O   UNL     1       2.254   9.894  17.271  0.00  0.00    +0.000 OA
ENDBRANCH   1  31
TORSDOF 3
ENDMDL
MODEL 3
REMARK VINA RESULT:      -7.6      2.452      7.697
REMARK  Name = 
REMARK  8 active torsions:
REMARK  status: ('A' for Active; 'I' for Inactive)
REMARK    1  A    between atoms: C_1  and  O_2
REMARK    2  A    between atoms: O_2  and  C_3
REMARK    3  A    between atoms: C_8  and  C_9
REMARK    4  A    between atoms: C_10  and  C_11
REMARK    5  A    between atoms: C_14  and  C_15
REMARK    6  A    between atoms: C_21  and  C_22
REMARK    7  A    between atoms: C_23  and  C_24
REMARK    8  A    between atoms: C_27  and  C_28
REMARK                            x       y       z     vdW  Elec       q    Type
REMARK                         _______ _______ _______ _____ _____    ______ ____
ROOT
ATOM      1  C   UNL     1       1.833   7.739  18.881  0.00  0.00    +0.000 A 
ATOM      2  C   UNL     1       1.234   8.971  19.174  0.00  0.00    +0.000 A 
ATOM      3  C   UNL     1       0.763   9.273  20.469  0.00  0.00    +0.000 A 
ATOM      4  C   UNL     1       1.020   8.354  21.482  0.00  0.00    +0.000 A 
ATOM      5  C   UNL     1       1.641   7.124  21.236  0.00  0.00    +0.000 A 
ATOM      6  C   UNL     1       2.065   6.818  19.920  0.00  0.00    +0.000 A 
ATOM      7  N   UNL     1       0.584   8.914  22.659  0.00  0.00    +0.000 N 
ATOM      8  C   UNL     1      -0.034  10.111  22.408  0.00  0.00    +0.000 A 
ATOM      9  N   UNL     1      -0.581  10.893  23.352  0.00  0.00    +0.000 NA
ATOM     10  C   UNL     1      -1.174  11.973  22.818  0.00  0.00    +0.000 A 
ATOM     11  N   UNL     1      -1.293  12.289  21.518  0.00  0.00    +0.000 NA
ATOM     12  C   UNL     1      -0.733  11.456  20.602  0.00  0.00    +0.000 A 
ATOM     13  C   UNL     1      -0.015  10.335  21.039  0.00  0.00    +0.000 A 
ATOM     14  H   UNL     1       0.676   8.520  23.583  0.00  0.00    +0.000 HD
ENDROOT
BRANCH  12  15
ATOM     15  C   UNL     1      -0.982  11.737  19.198  0.00  0.00    +0.000 A 
ATOM     16  C   UNL     1      -1.755  11.047  18.213  0.00  0.00    +0.000 A 
ATOM     17  C   UNL     1      -2.582   9.818  18.316  0.00  0.00    +0.000 C 
ATOM     18  N   UNL     1      -1.689  11.649  17.019  0.00  0.00    +0.000 NA
ATOM     19  N   UNL     1      -0.998  12.772  17.259  0.00  0.00    +0.000 N 
ATOM     20  C   UNL     1      -0.580  12.896  18.552  0.00  0.00    +0.000 A 
ATOM     21  C   UNL     1       0.134  14.112  19.012  0.00  0.00    +0.000 C 
ATOM     22  H   UNL     1      -0.866  13.419  16.491  0.00  0.00    +0.000 HD
ENDBRANCH  12  15
BRANCH   6  23
ATOM     23  C   UNL     1       2.793   5.564  19.703  0.00  0.00    +0.000 A 
ATOM     24  C   UNL     1       4.145   5.259  19.391  0.00  0.00    +0.000 A 
ATOM     25  C   UNL     1       5.307   6.146  19.128  0.00  0.00    +0.000 C 
ATOM     26  N   UNL     1       4.342   3.937  19.318  0.00  0.00    +0.000 NA
ATOM     27  O   UNL     1       3.134   3.352  19.612  0.00  0.00    +0.000 OA
ATOM     28  C   UNL     1       2.210   4.320  19.850  0.00  0.00    +0.000 A 
ATOM     29  C   UNL     1       0.862   3.837  20.208  0.00  0.00    +0.000 C 
ENDBRANCH   6  23
BRANCH   1  31
ATOM     30  C   UNL     1       3.395   8.107  17.099  0.00  0.00    +0.000 C 
ATOM     31  O   UNL     1       2.260   7.412  17.616  0.00  0.00    +0.000 OA
ENDBRANCH   1  31
TORSDOF 3
ENDMDL
MODEL 4
REMARK VINA RESULT:      -7.5      6.488     10.894
REMARK  Name = 
REMARK  8 active torsions:
REMARK  status: ('A' for Active; 'I' for Inactive)
REMARK    1  A    between atoms: C_1  and  O_2
REMARK    2  A    between atoms: O_2  and  C_3
REMARK    3  A    between atoms: C_8  and  C_9
REMARK    4  A    between atoms: C_10  and  C_11
REMARK    5  A    between atoms: C_14  and  C_15
REMARK    6  A    between atoms: C_21  and  C_22
REMARK    7  A    between atoms: C_23  and  C_24
REMARK    8  A    between atoms: C_27  and  C_28
REMARK                            x       y       z     vdW  Elec       q    Type
REMARK                         _______ _______ _______ _____ _____    ______ ____
ROOT
ATOM      1  C   UNL     1      -2.141  12.991  20.126  0.00  0.00    +0.000 A 
ATOM      2  C   UNL     1      -3.538  12.998  20.224  0.00  0.00    +0.000 A 
ATOM      3  C   UNL     1      -4.193  12.771  21.452  0.00  0.00    +0.000 A 
ATOM      4  C   UNL     1      -3.405  12.660  22.595  0.00  0.00    +0.000 A 
ATOM      5  C   UNL     1      -2.007  12.676  22.543  0.00  0.00    +0.000 A 
ATOM      6  C   UNL     1      -1.366  12.857  21.293  0.00  0.00    +0.000 A 
ATOM      7  N   UNL     1      -4.258  12.570  23.669  0.00  0.00    +0.000 N 
ATOM      8  C   UNL     1      -5.556  12.515  23.234  0.00  0.00    +0.000 A 
ATOM      9  N   UNL     1      -6.621  12.409  24.044  0.00  0.00    +0.000 NA
ATOM     10  C   UNL     1      -7.765  12.312  23.347  0.00  0.00    +0.000 A 
ATOM     11  N   UNL     1      -7.916  12.273  22.013  0.00  0.00    +0.000 NA
ATOM     12  C   UNL     1      -6.804  12.371  21.238  0.00  0.00    +0.000 A 
ATOM     13  C   UNL     1      -5.555  12.558  21.847  0.00  0.00    +0.000 A 
ATOM     14  H   UNL     1      -3.997  12.530  24.643  0.00  0.00    +0.000 HD
ENDROOT
BRANCH  12  15
ATOM     15  C   UNL     1      -6.965  12.195  19.806  0.00  0.00    +0.000 A 
ATOM     16  C   UNL     1      -6.960  13.132  18.726  0.00  0.00    +0.000 A 
ATOM     17  C   UNL     1      -6.762  14.604  18.720  0.00  0.00    +0.000 C 
ATOM     18  N   UNL     1      -7.171  12.533  17.547  0.00  0.00    +0.000 NA
ATOM     19  N   UNL     1      -7.181  11.226  17.844  0.00  0.00    +0.000 N 
ATOM     20  C   UNL     1      -7.027  10.962  19.174  0.00  0.00    +0.000 A 
ATOM     21  C   UNL     1      -6.938   9.568  19.672  0.00  0.00    +0.000 C 
ATOM     22  H   UNL     1      -7.280  10.569  17.080  0.00  0.00    +0.000 HD
ENDBRANCH  12  15
BRANCH   6  23
ATOM     23  C   UNL     1       0.096  12.962  21.275  0.00  0.00    +0.000 A 
ATOM     24  C   UNL     1       1.006  14.010  21.581  0.00  0.00    +0.000 A 
ATOM     25  C   UNL     1       0.768  15.415  21.996  0.00  0.00    +0.000 C 
ATOM     26  N   UNL     1       2.276  13.609  21.438  0.00  0.00    +0.000 NA
ATOM     27  O   UNL     1       2.222  12.287  21.068  0.00  0.00    +0.000 OA
ATOM     28  C   UNL     1       0.924  11.896  20.978  0.00  0.00    +0.000 A 
ATOM     29  C   UNL     1       0.710  10.482  20.613  0.00  0.00    +0.000 C 
ENDBRANCH   6  23
BRANCH   1  31
ATOM     30  C   UNL     1      -1.477  12.078  18.010  0.00  0.00    +0.000 C 
ATOM     31  O   UNL     1      -1.487  13.170  18.929  0.00  0.00    +0.000 OA
ENDBRANCH   1  31
TORSDOF 3
ENDMDL
MODEL 5
REMARK VINA RESULT:      -7.3      0.357      1.540
REMARK  Name = 
REMARK  8 active torsions:
REMARK  status: ('A' for Active; 'I' for Inactive)
REMARK    1  A    between atoms: C_1  and  O_2
REMARK    2  A    between atoms: O_2  and  C_3
REMARK    3  A    between atoms: C_8  and  C_9
REMARK    4  A    between atoms: C_10  and  C_11
REMARK    5  A    between atoms: C_14  and  C_15
REMARK    6  A    between atoms: C_21  and  C_22
REMARK    7  A    between atoms: C_23  and  C_24
REMARK    8  A    between atoms: C_27  and  C_28
REMARK                            x       y       z     vdW  Elec       q    Type
REMARK                         _______ _______ _______ _____ _____    ______ ____
ROOT
ATOM      1  C   UNL     1       2.242   8.392  18.306  0.00  0.00    +0.000 A 
ATOM      2  C   UNL     1       3.005   7.227  18.148  0.00  0.00    +0.000 A 
ATOM      3  C   UNL     1       2.952   6.178  19.089  0.00  0.00    +0.000 A 
ATOM      4  C   UNL     1       2.023   6.279  20.121  0.00  0.00    +0.000 A 
ATOM      5  C   UNL     1       1.223   7.413  20.297  0.00  0.00    +0.000 A 
ATOM      6  C   UNL     1       1.324   8.479  19.369  0.00  0.00    +0.000 A 
ATOM      7  N   UNL     1       2.069   5.100  20.825  0.00  0.00    +0.000 N 
ATOM      8  C   UNL     1       3.068   4.299  20.337  0.00  0.00    +0.000 A 
ATOM      9  N   UNL     1       3.374   3.088  20.826  0.00  0.00    +0.000 NA
ATOM     10  C   UNL     1       4.436   2.554  20.200  0.00  0.00    +0.000 A 
ATOM     11  N   UNL     1       5.184   3.108  19.230  0.00  0.00    +0.000 NA
ATOM     12  C   UNL     1       4.839   4.342  18.780  0.00  0.00    +0.000 A 
ATOM     13  C   UNL     1       3.699   4.971  19.299  0.00  0.00    +0.000 A 
ATOM     14  H   UNL     1       1.480   4.840  21.602  0.00  0.00    +0.000 HD
ENDROOT
BRANCH  12  15
ATOM     15  C   UNL     1       5.730   4.984  17.829  0.00  0.00    +0.000 A 
ATOM     16  C   UNL     1       5.617   5.206  16.421  0.00  0.00    +0.000 A 
ATOM     17  C   UNL     1       4.528   4.868  15.471  0.00  0.00    +0.000 C 
ATOM     18  N   UNL     1       6.697   5.824  15.928  0.00  0.00    +0.000 NA
ATOM     19  N   UNL     1       7.431   6.112  17.012  0.00  0.00    +0.000 N 
ATOM     20  C   UNL     1       6.885   5.665  18.180  0.00  0.00    +0.000 A 
ATOM     21  C   UNL     1       7.525   5.961  19.485  0.00  0.00    +0.000 C 
ATOM     22  H   UNL     1       8.288   6.634  16.878  0.00  0.00    +0.000 HD
ENDBRANCH  12  15
BRANCH   6  23
ATOM     23  C   UNL     1       0.411   9.616  19.521  0.00  0.00    +0.000 A 
ATOM     24  C   UNL     1      -0.631  10.149  18.715  0.00  0.00    +0.000 A 
ATOM     25  C   UNL     1      -1.134   9.741  17.379  0.00  0.00    +0.000 C 
ATOM     26  N   UNL     1      -1.209  11.204  19.303  0.00  0.00    +0.000 NA
ATOM     27  O   UNL     1      -0.580  11.362  20.515  0.00  0.00    +0.000 OA
ATOM     28  C   UNL     1       0.381  10.411  20.651  0.00  0.00    +0.000 A 
ATOM     29  C   UNL     1       1.127  10.440  21.924  0.00  0.00    +0.000 C 
ENDBRANCH   6  23
BRANCH   1  31
ATOM     30  C   UNL     1       2.746  10.705  17.924  0.00  0.00    +0.000 C 
ATOM     31  O   UNL     1       2.312   9.442  17.421  0.00  0.00    +0.000 OA
ENDBRANCH   1  31
TORSDOF 3
ENDMDL
MODEL 6
REMARK VINA RESULT:      -7.3      0.988      1.053
REMARK  Name = 
REMARK  8 active torsions:
REMARK  status: ('A' for Active; 'I' for Inactive)
REMARK    1  A    between atoms: C_1  and  O_2
REMARK    2  A    between atoms: O_2  and  C_3
REMARK    3  A    between atoms: C_8  and  C_9
REMARK    4  A    between atoms: C_10  and  C_11
REMARK    5  A    between atoms: C_14  and  C_15
REMARK    6  A    between atoms: C_21  and  C_22
REMARK    7  A    between atoms: C_23  and  C_24
REMARK    8  A    between atoms: C_27  and  C_28
REMARK                            x       y       z     vdW  Elec       q    Type
REMARK                         _______ _______ _______ _____ _____    ______ ____
ROOT
ATOM      1  C   UNL     1       2.148   8.335  19.262  0.00  0.00    +0.000 A 
ATOM      2  C   UNL     1       2.917   7.221  18.899  0.00  0.00    +0.000 A 
ATOM      3  C   UNL     1       2.839   6.007  19.612  0.00  0.00    +0.000 A 
ATOM      4  C   UNL     1       1.882   5.906  20.618  0.00  0.00    +0.000 A 
ATOM      5  C   UNL     1       1.075   6.986  20.992  0.00  0.00    +0.000 A 
ATOM      6  C   UNL     1       1.200   8.214  20.296  0.00  0.00    +0.000 A 
ATOM      7  N   UNL     1       1.909   4.611  21.077  0.00  0.00    +0.000 N 
ATOM      8  C   UNL     1       2.923   3.919  20.467  0.00  0.00    +0.000 A 
ATOM      9  N   UNL     1       3.217   2.633  20.715  0.00  0.00    +0.000 NA
ATOM     10  C   UNL     1       4.296   2.229  20.026  0.00  0.00    +0.000 A 
ATOM     11  N   UNL     1       5.070   2.960  19.205  0.00  0.00    +0.000 NA
ATOM     12  C   UNL     1       4.736   4.261  18.999  0.00  0.00    +0.000 A 
ATOM     13  C   UNL     1       3.581   4.779  19.600  0.00  0.00    +0.000 A 
ATOM     14  H   UNL     1       1.299   4.206  21.770  0.00  0.00    +0.000 HD
ENDROOT
BRANCH  12  15
ATOM     15  C   UNL     1       5.652   5.074  18.218  0.00  0.00    +0.000 A 
ATOM     16  C   UNL     1       6.884   5.713  18.560  0.00  0.00    +0.000 A 
ATOM     17  C   UNL     1       7.645   5.732  19.835  0.00  0.00    +0.000 C 
ATOM     18  N   UNL     1       7.395   6.393  17.526  0.00  0.00    +0.000 NA
ATOM     19  N   UNL     1       6.581   6.090  16.505  0.00  0.00    +0.000 N 
ATOM     20  C   UNL     1       5.542   5.277  16.851  0.00  0.00    +0.000 A 
ATOM     21  C   UNL     1       4.586   4.782  15.830  0.00  0.00    +0.000 C 
ATOM     22  H   UNL     1       6.810   6.464  15.592  0.00  0.00    +0.000 HD
ENDBRANCH  12  15
BRANCH   6  23
ATOM     23  C   UNL     1       0.283   9.303  20.645  0.00  0.00    +0.000 A 
ATOM     24  C   UNL     1      -0.629  10.092  19.893  0.00  0.00    +0.000 A 
ATOM     25  C   UNL     1      -0.937  10.106  18.441  0.00  0.00    +0.000 C 
ATOM     26  N   UNL     1      -1.279  10.963  20.676  0.00  0.00    +0.000 NA
ATOM     27  O   UNL     1      -0.830  10.738  21.956  0.00  0.00    +0.000 OA
ATOM     28  C   UNL     1       0.095   9.743  21.941  0.00  0.00    +0.000 A 
ATOM     29  C   UNL     1       0.649   9.372  23.257  0.00  0.00    +0.000 C 
ENDBRANCH   6  23
BRANCH   1  31
ATOM     30  C   UNL     1       2.507   9.510  17.203  0.00  0.00    +0.000 C 
ATOM     31  O   UNL     1       2.242   9.539  18.605  0.00  0.00    +0.000 OA
ENDBRANCH   1  31
TORSDOF 3
ENDMDL
MODEL 7
REMARK VINA RESULT:      -7.2      4.925     10.378
REMARK  Name = 
REMARK  8 active torsions:
REMARK  status: ('A' for Active; 'I' for Inactive)
REMARK    1  A    between atoms: C_1  and  O_2
REMARK    2  A    between atoms: O_2  and  C_3
REMARK    3  A    between atoms: C_8  and  C_9
REMARK    4  A    between atoms: C_10  and  C_11
REMARK    5  A    between atoms: C_14  and  C_15
REMARK    6  A    between atoms: C_21  and  C_22
REMARK    7  A    between atoms: C_23  and  C_24
REMARK    8  A    between atoms: C_27  and  C_28
REMARK                            x       y       z     vdW  Elec       q    Type
REMARK                         _______ _______ _______ _____ _____    ______ ____
ROOT
ATOM      1  C   UNL     1      -1.681  12.189  18.869  0.00  0.00    +0.000 A 
ATOM      2  C   UNL     1      -2.840  12.526  19.580  0.00  0.00    +0.000 A 
ATOM      3  C   UNL     1      -2.917  12.377  20.980  0.00  0.00    +0.000 A 
ATOM      4  C   UNL     1      -1.759  11.998  21.655  0.00  0.00    +0.000 A 
ATOM      5  C   UNL     1      -0.573  11.680  20.984  0.00  0.00    +0.000 A 
ATOM      6  C   UNL     1      -0.529  11.790  19.572  0.00  0.00    +0.000 A 
ATOM      7  N   UNL     1      -2.040  12.041  22.999  0.00  0.00    +0.000 N 
ATOM      8  C   UNL     1      -3.365  12.333  23.193  0.00  0.00    +0.000 A 
ATOM      9  N   UNL     1      -3.951  12.430  24.396  0.00  0.00    +0.000 NA
ATOM     10  C   UNL     1      -5.269  12.661  24.289  0.00  0.00    +0.000 A 
ATOM     11  N   UNL     1      -6.000  12.754  23.165  0.00  0.00    +0.000 NA
ATOM     12  C   UNL     1      -5.360  12.635  21.972  0.00  0.00    +0.000 A 
ATOM     13  C   UNL     1      -3.969  12.472  21.951  0.00  0.00    +0.000 A 
ATOM     14  H   UNL     1      -1.394  11.872  23.755  0.00  0.00    +0.000 HD
ENDROOT
BRANCH  12  15
ATOM     15  C   UNL     1      -6.177  12.605  20.771  0.00  0.00    +0.000 A 
ATOM     16  C   UNL     1      -7.052  11.606  20.241  0.00  0.00    +0.000 A 
ATOM     17  C   UNL     1      -7.429  10.270  20.768  0.00  0.00    +0.000 C 
ATOM     18  N   UNL     1      -7.595  11.987  19.079  0.00  0.00    +0.000 NA
ATOM     19  N   UNL     1      -7.184  13.254  18.929  0.00  0.00    +0.000 N 
ATOM     20  C   UNL     1      -6.363  13.689  19.927  0.00  0.00    +0.000 A 
ATOM     21  C   UNL     1      -5.874  15.089  19.961  0.00  0.00    +0.000 C 
ATOM     22  H   UNL     1      -7.521  13.768  18.123  0.00  0.00    +0.000 HD
ENDBRANCH  12  15
BRANCH   6  23
ATOM     23  C   UNL     1       0.749  11.539  18.899  0.00  0.00    +0.000 A 
ATOM     24  C   UNL     1       1.319  10.396  18.276  0.00  0.00    +0.000 A 
ATOM     25  C   UNL     1       0.807   9.010  18.131  0.00  0.00    +0.000 C 
ATOM     26  N   UNL     1       2.526  10.671  17.767  0.00  0.00    +0.000 NA
ATOM     27  O   UNL     1       2.755  12.003  18.018  0.00  0.00    +0.000 OA
ATOM     28  C   UNL     1       1.693  12.524  18.686  0.00  0.00    +0.000 A 
ATOM     29  C   UNL     1       1.787  13.963  19.002  0.00  0.00    +0.000 C 
ENDBRANCH   6  23
BRANCH   1  31
ATOM     30  C   UNL     1      -2.314  11.323  16.724  0.00  0.00    +0.000 C 
ATOM     31  O   UNL     1      -1.604  12.288  17.500  0.00  0.00    +0.000 OA
ENDBRANCH   1  31
TORSDOF 3
ENDMDL
MODEL 8
REMARK VINA RESULT:      -7.2      2.330      7.366
REMARK  Name = 
REMARK  8 active torsions:
REMARK  status: ('A' for Active; 'I' for Inactive)
REMARK    1  A    between atoms: C_1  and  O_2
REMARK    2  A    between atoms: O_2  and  C_3
REMARK    3  A    between atoms: C_8  and  C_9
REMARK    4  A    between atoms: C_10  and  C_11
REMARK    5  A    between atoms: C_14  and  C_15
REMARK    6  A    between atoms: C_21  and  C_22
REMARK    7  A    between atoms: C_23  and  C_24
REMARK    8  A    between atoms: C_27  and  C_28
REMARK                            x       y       z     vdW  Elec       q    Type
REMARK                         _______ _______ _______ _____ _____    ______ ____
ROOT
ATOM      1  C   UNL     1       2.295   7.865  18.323  0.00  0.00    +0.000 A 
ATOM      2  C   UNL     1       1.703   9.002  18.887  0.00  0.00    +0.000 A 
ATOM      3  C   UNL     1       1.138   8.976  20.179  0.00  0.00    +0.000 A 
ATOM      4  C   UNL     1       1.294   7.814  20.931  0.00  0.00    +0.000 A 
ATOM      5  C   UNL     1       1.904   6.666  20.414  0.00  0.00    +0.000 A 
ATOM      6  C   UNL     1       2.424   6.696  19.096  0.00  0.00    +0.000 A 
ATOM      7  N   UNL     1       0.779   8.067  22.179  0.00  0.00    +0.000 N 
ATOM      8  C   UNL     1       0.209   9.313  22.210  0.00  0.00    +0.000 A 
ATOM      9  N   UNL     1      -0.392   9.845  23.285  0.00  0.00    +0.000 NA
ATOM     10  C   UNL     1      -0.917  11.050  23.014  0.00  0.00    +0.000 A 
ATOM     11  N   UNL     1      -0.926  11.699  21.837  0.00  0.00    +0.000 NA
ATOM     12  C   UNL     1      -0.314  11.111  20.776  0.00  0.00    +0.000 A 
ATOM     13  C   UNL     1       0.342   9.885  20.952  0.00  0.00    +0.000 A 
ATOM     14  H   UNL     1       0.788   7.442  22.971  0.00  0.00    +0.000 HD
ENDROOT
BRANCH  12  15
ATOM     15  C   UNL     1      -0.445  11.758  19.482  0.00  0.00    +0.000 A 
ATOM     16  C   UNL     1       0.256  12.856  18.893  0.00  0.00    +0.000 A 
ATOM     17  C   UNL     1       1.373  13.684  19.413  0.00  0.00    +0.000 C 
ATOM     18  N   UNL     1      -0.210  13.144  17.671  0.00  0.00    +0.000 NA
ATOM     19  N   UNL     1      -1.100  12.172  17.425  0.00  0.00    +0.000 N 
ATOM     20  C   UNL     1      -1.256  11.294  18.457  0.00  0.00    +0.000 A 
ATOM     21  C   UNL     1      -2.145  10.114  18.329  0.00  0.00    +0.000 C 
ATOM     22  H   UNL     1      -1.551  12.163  16.518  0.00  0.00    +0.000 HD
ENDBRANCH  12  15
BRANCH   6  23
ATOM     23  C   UNL     1       3.138   5.512  18.609  0.00  0.00    +0.000 A 
ATOM     24  C   UNL     1       4.483   5.067  18.720  0.00  0.00    +0.000 A 
ATOM     25  C   UNL     1       5.668   5.697  19.354  0.00  0.00    +0.000 C 
ATOM     26  N   UNL     1       4.655   3.883  18.118  0.00  0.00    +0.000 NA
ATOM     27  O   UNL     1       3.422   3.517  17.632  0.00  0.00    +0.000 OA
ATOM     28  C   UNL     1       2.515   4.483  17.930  0.00  0.00    +0.000 A 
ATOM     29  C   UNL     1       1.132   4.212  17.491  0.00  0.00    +0.000 C 
ENDBRANCH   6  23
BRANCH   1  31
ATOM     30  C   UNL     1       4.231   7.957  16.910  0.00  0.00    +0.000 C 
ATOM     31  O   UNL     1       2.814   7.861  17.049  0.00  0.00    +0.000 OA
ENDBRANCH   1  31
TORSDOF 3
ENDMDL
MODEL 9
REMARK VINA RESULT:      -7.1      6.204      9.158
REMARK  Name = 
REMARK  8 active torsions:
REMARK  status: ('A' for Active; 'I' for Inactive)
REMARK    1  A    between atoms: C_1  and  O_2
REMARK    2  A    between atoms: O_2  and  C_3
REMARK    3  A    between atoms: C_8  and  C_9
REMARK    4  A    between atoms: C_10  and  C_11
REMARK    5  A    between atoms: C_14  and  C_15
REMARK    6  A    between atoms: C_21  and  C_22
REMARK    7  A    between atoms: C_23  and  C_24
REMARK    8  A    between atoms: C_27  and  C_28
REMARK                            x       y       z     vdW  Elec       q    Type
REMARK                         _______ _______ _______ _____ _____    ______ ____
ROOT
ATOM      1  C   UNL     1      -3.955  13.865  21.784  0.00  0.00    +0.000 A 
ATOM      2  C   UNL     1      -3.015  13.264  20.936  0.00  0.00    +0.000 A 
ATOM      3  C   UNL     1      -3.412  12.452  19.853  0.00  0.00    +0.000 A 
ATOM      4  C   UNL     1      -4.774  12.364  19.574  0.00  0.00    +0.000 A 
ATOM      5  C   UNL     1      -5.742  12.973  20.380  0.00  0.00    +0.000 A 
ATOM      6  C   UNL     1      -5.326  13.745  21.493  0.00  0.00    +0.000 A 
ATOM      7  N   UNL     1      -4.905  11.633  18.418  0.00  0.00    +0.000 N 
ATOM      8  C   UNL     1      -3.681  11.167  18.015  0.00  0.00    +0.000 A 
ATOM      9  N   UNL     1      -3.481  10.407  16.927  0.00  0.00    +0.000 NA
ATOM     10  C   UNL     1      -2.194  10.043  16.807  0.00  0.00    +0.000 A 
ATOM     11  N   UNL     1      -1.178  10.319  17.643  0.00  0.00    +0.000 NA
ATOM     12  C   UNL     1      -1.437  11.082  18.737  0.00  0.00    +0.000 A 
ATOM     13  C   UNL     1      -2.728  11.592  18.931  0.00  0.00    +0.000 A 
ATOM     14  H   UNL     1      -5.763  11.435  17.926  0.00  0.00    +0.000 HD
ENDROOT
BRANCH  12  15
ATOM     15  C   UNL     1      -0.365  11.263  19.700  0.00  0.00    +0.000 A 
ATOM     16  C   UNL     1       0.119  10.425  20.753  0.00  0.00    +0.000 A 
ATOM     17  C   UNL     1      -0.311   9.073  21.191  0.00  0.00    +0.000 C 
ATOM     18  N   UNL     1       1.126  11.001  21.422  0.00  0.00    +0.000 NA
ATOM     19  N   UNL     1       1.373  12.125  20.735  0.00  0.00    +0.000 N 
ATOM     20  C   UNL     1       0.536  12.317  19.674  0.00  0.00    +0.000 A 
ATOM     21  C   UNL     1       0.714  13.470  18.759  0.00  0.00    +0.000 C 
ATOM     22  H   UNL     1       2.144  12.706  21.040  0.00  0.00    +0.000 HD
ENDBRANCH  12  15
BRANCH   6  23
ATOM     23  C   UNL     1      -6.353  14.448  22.268  0.00  0.00    +0.000 A 
ATOM     24  C   UNL     1      -7.016  15.695  22.111  0.00  0.00    +0.000 A 
ATOM     25  C   UNL     1      -6.852  16.762  21.091  0.00  0.00    +0.000 C 
ATOM     26  N   UNL     1      -7.916  15.894  23.082  0.00  0.00    +0.000 NA
ATOM     27  O   UNL     1      -7.882  14.770  23.873  0.00  0.00    +0.000 OA
ATOM     28  C   UNL     1      -6.957  13.903  23.385  0.00  0.00    +0.000 A 
ATOM     29  C   UNL     1      -6.829  12.631  24.122  0.00  0.00    +0.000 C 
ENDBRANCH   6  23
BRANCH   1  31
ATOM     30  C   UNL     1      -3.137  13.939  24.037  0.00  0.00    +0.000 C 
ATOM     31  O   UNL     1      -3.585  14.625  22.869  0.00  0.00    +0.000 OA
ENDBRANCH   1  31
TORSDOF 3
ENDMDL
