MODEL 1
REMARK VINA RESULT:      -8.4      0.000      0.000
REMARK  Name = 
REMARK  7 active torsions:
REMARK  status: ('A' for Active; 'I' for Inactive)
REMARK    1  A    between atoms: N_1  and  C_2
REMARK    2  A    between atoms: C_2  and  C_3
REMARK    3  A    between atoms: C_2  and  C_22
REMARK    4  A    between atoms: C_3  and  C_4
REMARK    5  A    between atoms: N_9  and  C_10
REMARK    6  A    between atoms: C_13  and  N_14
REMARK    7  A    between atoms: C_22  and  C_23
REMARK                            x       y       z     vdW  Elec       q    Type
REMARK                         _______ _______ _______ _____ _____    ______ ____
ROOT
ATOM      1  C   UNL     1       1.863   2.771  19.295  0.00  0.00    +0.000 C 
ATOM      2  O   UNL     1       1.815   2.164  20.363  0.00  0.00    +0.000 OA
ATOM      3  N   UNL     1       1.548   4.117  19.206  0.00  0.00    +0.000 N 
ATOM      4  C   UNL     1       1.234   4.874  20.426  0.00  0.00    +0.000 C 
ATOM      5  C   UNL     1       2.175   6.083  20.571  0.00  0.00    +0.000 C 
ATOM      6  N   UNL     1       2.170   6.901  19.342  0.00  0.00    +0.000 N 
ATOM      7  C   UNL     1       2.424   6.172  18.088  0.00  0.00    +0.000 C 
ATOM      8  C   UNL     1       1.519   4.926  17.981  0.00  0.00    +0.000 C 
ENDROOT
BRANCH   6   9
ATOM      9  C   UNL     1       1.795   8.234  19.333  0.00  0.00    +0.000 A 
ATOM     10  C   UNL     1       2.110   9.055  18.232  0.00  0.00    +0.000 A 
ATOM     11  C   UNL     1       1.733  10.399  18.179  0.00  0.00    +0.000 A 
ATOM     12  C   UNL     1       1.027  10.961  19.249  0.00  0.00    +0.000 A 
ATOM     13  C   UNL     1       0.715  10.192  20.366  0.00  0.00    +0.000 A 
ATOM     14  C   UNL     1       1.097   8.856  20.393  0.00  0.00    +0.000 A 
ATOM     15  F   UNL     1       0.719   8.137  21.465  0.00  0.00    +0.000 F 
BRANCH  12  16
ATOM     16  N   UNL     1       0.603  12.364  19.185  0.00  0.00    +0.000 N 
ATOM     17  O   UNL     1      -0.194  12.765  20.045  0.00  0.00    +0.000 OA
ATOM     18  O   UNL     1       1.076  13.066  18.282  0.00  0.00    +0.000 OA
ENDBRANCH  12  16
ENDBRANCH   6   9
BRANCH   1  19
ATOM     19  C   UNL     1       2.310   2.087  18.011  0.00  0.00    +0.000 C 
BRANCH  19  20
ATOM     20  C   UNL     1       3.835   1.961  17.872  0.00  0.00    +0.000 C 
BRANCH  20  21
ATOM     21  N   UNL     1       4.315   0.861  18.736  0.00  0.00    +0.000 NA
ATOM     22  H   UNL     1       4.716   1.229  19.597  0.00  0.00    +0.000 HD
ATOM     23  H   UNL     1       5.051   0.334  18.262  0.00  0.00    +0.000 HD
ENDBRANCH  20  21
BRANCH  20  24
ATOM     24  C   UNL     1       4.580   3.269  18.241  0.00  0.00    +0.000 C 
BRANCH  24  25
ATOM     25  C   UNL     1       5.370   3.850  17.088  0.00  0.00    +0.000 A 
ATOM     26  C   UNL     1       4.920   3.710  15.763  0.00  0.00    +0.000 A 
ATOM     27  C   UNL     1       5.688   4.208  14.716  0.00  0.00    +0.000 A 
ATOM     28  F   UNL     1       5.265   4.043  13.455  0.00  0.00    +0.000 F 
ATOM     29  C   UNL     1       6.886   4.870  14.971  0.00  0.00    +0.000 A 
ATOM     30  F   UNL     1       7.620   5.347  13.957  0.00  0.00    +0.000 F 
ATOM     31  C   UNL     1       7.331   5.044  16.274  0.00  0.00    +0.000 A 
ATOM     32  C   UNL     1       6.573   4.530  17.320  0.00  0.00    +0.000 A 
ATOM     33  F   UNL     1       7.015   4.697  18.575  0.00  0.00    +0.000 F 
ENDBRANCH  24  25
ENDBRANCH  20  24
ENDBRANCH  19  20
ENDBRANCH   1  19
TORSDOF 7
ENDMDL
MODEL 2
REMARK VINA RESULT:      -8.3      1.017      1.421
REMARK  Name = 
REMARK  7 active torsions:
REMARK  status: ('A' for Active; 'I' for Inactive)
REMARK    1  A    between atoms: N_1  and  C_2
REMARK    2  A    between atoms: C_2  and  C_3
REMARK    3  A    between atoms: C_2  and  C_22
REMARK    4  A    between atoms: C_3  and  C_4
REMARK    5  A    between atoms: N_9  and  C_10
REMARK    6  A    between atoms: C_13  and  N_14
REMARK    7  A    between atoms: C_22  and  C_23
REMARK                            x       y       z     vdW  Elec       q    Type
REMARK                         _______ _______ _______ _____ _____    ______ ____
ROOT
ATOM      1  C   UNL     1       2.219   2.962  19.427  0.00  0.00    +0.000 C 
ATOM      2  O   UNL     1       1.978   2.300  20.435  0.00  0.00    +0.000 OA
ATOM      3  N   UNL     1       1.802   4.276  19.301  0.00  0.00    +0.000 N 
ATOM      4  C   UNL     1       1.131   4.940  20.428  0.00  0.00    +0.000 C 
ATOM      5  C   UNL     1       1.884   6.220  20.830  0.00  0.00    +0.000 C 
ATOM      6  N   UNL     1       2.093   7.095  19.660  0.00  0.00    +0.000 N 
ATOM      7  C   UNL     1       2.712   6.456  18.486  0.00  0.00    +0.000 C 
ATOM      8  C   UNL     1       1.987   5.141  18.128  0.00  0.00    +0.000 C 
ENDROOT
BRANCH   6   9
ATOM      9  C   UNL     1       1.600   8.388  19.596  0.00  0.00    +0.000 A 
ATOM     10  C   UNL     1       1.021   8.986  20.732  0.00  0.00    +0.000 A 
ATOM     11  C   UNL     1       0.530  10.294  20.710  0.00  0.00    +0.000 A 
ATOM     12  C   UNL     1       0.605  11.040  19.528  0.00  0.00    +0.000 A 
ATOM     13  C   UNL     1       1.148  10.480  18.376  0.00  0.00    +0.000 A 
ATOM     14  C   UNL     1       1.634   9.179  18.425  0.00  0.00    +0.000 A 
ATOM     15  F   UNL     1       2.207   8.701  17.306  0.00  0.00    +0.000 F 
BRANCH  12  16
ATOM     16  N   UNL     1       0.117  12.424  19.508  0.00  0.00    +0.000 N 
ATOM     17  O   UNL     1      -0.102  12.942  18.405  0.00  0.00    +0.000 OA
ATOM     18  O   UNL     1      -0.055  12.987  20.597  0.00  0.00    +0.000 OA
ENDBRANCH  12  16
ENDBRANCH   6   9
BRANCH   1  19
ATOM     19  C   UNL     1       3.028   2.387  18.273  0.00  0.00    +0.000 C 
BRANCH  19  20
ATOM     20  C   UNL     1       4.547   2.435  18.492  0.00  0.00    +0.000 C 
BRANCH  20  21
ATOM     21  N   UNL     1       4.870   1.837  19.807  0.00  0.00    +0.000 NA
ATOM     22  H   UNL     1       4.877   0.821  19.747  0.00  0.00    +0.000 HD
ATOM     23  H   UNL     1       4.162   2.094  20.496  0.00  0.00    +0.000 HD
ENDBRANCH  20  21
BRANCH  20  24
ATOM     24  C   UNL     1       5.117   3.874  18.428  0.00  0.00    +0.000 C 
BRANCH  24  25
ATOM     25  C   UNL     1       5.712   4.220  17.080  0.00  0.00    +0.000 A 
ATOM     26  C   UNL     1       4.965   4.058  15.899  0.00  0.00    +0.000 A 
ATOM     27  C   UNL     1       5.551   4.334  14.668  0.00  0.00    +0.000 A 
ATOM     28  F   UNL     1       4.840   4.148  13.548  0.00  0.00    +0.000 F 
ATOM     29  C   UNL     1       6.862   4.796  14.597  0.00  0.00    +0.000 A 
ATOM     30  F   UNL     1       7.418   5.059  13.407  0.00  0.00    +0.000 F 
ATOM     31  C   UNL     1       7.605   4.989  15.753  0.00  0.00    +0.000 A 
ATOM     32  C   UNL     1       7.026   4.697  16.983  0.00  0.00    +0.000 A 
ATOM     33  F   UNL     1       7.755   4.881  18.094  0.00  0.00    +0.000 F 
ENDBRANCH  24  25
ENDBRANCH  20  24
ENDBRANCH  19  20
ENDBRANCH   1  19
TORSDOF 7
ENDMDL
MODEL 3
REMARK VINA RESULT:      -8.3      1.702      2.711
REMARK  Name = 
REMARK  7 active torsions:
REMARK  status: ('A' for Active; 'I' for Inactive)
REMARK    1  A    between atoms: N_1  and  C_2
REMARK    2  A    between atoms: C_2  and  C_3
REMARK    3  A    between atoms: C_2  and  C_22
REMARK    4  A    between atoms: C_3  and  C_4
REMARK    5  A    between atoms: N_9  and  C_10
REMARK    6  A    between atoms: C_13  and  N_14
REMARK    7  A    between atoms: C_22  and  C_23
REMARK                            x       y       z     vdW  Elec       q    Type
REMARK                         _______ _______ _______ _____ _____    ______ ____
ROOT
ATOM      1  C   UNL     1       2.333   2.880  18.825  0.00  0.00    +0.000 C 
ATOM      2  O   UNL     1       2.169   2.030  19.699  0.00  0.00    +0.000 OA
ATOM      3  N   UNL     1       1.881   4.180  18.979  0.00  0.00    +0.000 N 
ATOM      4  C   UNL     1       1.267   4.593  20.249  0.00  0.00    +0.000 C 
ATOM      5  C   UNL     1       2.015   5.797  20.847  0.00  0.00    +0.000 C 
ATOM      6  N   UNL     1       2.131   6.886  19.857  0.00  0.00    +0.000 N 
ATOM      7  C   UNL     1       2.690   6.504  18.548  0.00  0.00    +0.000 C 
ATOM      8  C   UNL     1       1.973   5.258  17.986  0.00  0.00    +0.000 C 
ENDROOT
BRANCH   6   9
ATOM      9  C   UNL     1       1.608   8.150  20.072  0.00  0.00    +0.000 A 
ATOM     10  C   UNL     1       1.268   8.569  21.373  0.00  0.00    +0.000 A 
ATOM     11  C   UNL     1       0.755   9.842  21.631  0.00  0.00    +0.000 A 
ATOM     12  C   UNL     1       0.561  10.736  20.571  0.00  0.00    +0.000 A 
ATOM     13  C   UNL     1       0.862  10.355  19.266  0.00  0.00    +0.000 A 
ATOM     14  C   UNL     1       1.376   9.085  19.037  0.00  0.00    +0.000 A 
ATOM     15  F   UNL     1       1.710   8.783  17.770  0.00  0.00    +0.000 F 
BRANCH  12  16
ATOM     16  N   UNL     1       0.050  12.085  20.839  0.00  0.00    +0.000 N 
ATOM     17  O   UNL     1       0.516  12.695  21.811  0.00  0.00    +0.000 OA
ATOM     18  O   UNL     1      -0.810  12.535  20.072  0.00  0.00    +0.000 OA
ENDBRANCH  12  16
ENDBRANCH   6   9
BRANCH   1  19
ATOM     19  C   UNL     1       3.080   2.563  17.537  0.00  0.00    +0.000 C 
BRANCH  19  20
ATOM     20  C   UNL     1       4.580   2.890  17.592  0.00  0.00    +0.000 C 
BRANCH  20  21
ATOM     21  N   UNL     1       4.930   3.355  18.952  0.00  0.00    +0.000 NA
ATOM     22  H   UNL     1       4.163   3.887  19.358  0.00  0.00    +0.000 HD
ATOM     23  H   UNL     1       5.742   3.973  18.917  0.00  0.00    +0.000 HD
ENDBRANCH  20  21
BRANCH  20  24
ATOM     24  C   UNL     1       4.997   3.966  16.557  0.00  0.00    +0.000 C 
BRANCH  24  25
ATOM     25  C   UNL     1       5.962   4.988  17.117  0.00  0.00    +0.000 A 
ATOM     26  C   UNL     1       6.939   4.618  18.059  0.00  0.00    +0.000 A 
ATOM     27  C   UNL     1       7.782   5.585  18.597  0.00  0.00    +0.000 A 
ATOM     28  F   UNL     1       8.689   5.226  19.516  0.00  0.00    +0.000 F 
ATOM     29  C   UNL     1       7.685   6.912  18.190  0.00  0.00    +0.000 A 
ATOM     30  F   UNL     1       8.501   7.837  18.714  0.00  0.00    +0.000 F 
ATOM     31  C   UNL     1       6.747   7.291  17.240  0.00  0.00    +0.000 A 
ATOM     32  C   UNL     1       5.892   6.329  16.715  0.00  0.00    +0.000 A 
ATOM     33  F   UNL     1       4.985   6.707  15.802  0.00  0.00    +0.000 F 
ENDBRANCH  24  25
ENDBRANCH  20  24
ENDBRANCH  19  20
ENDBRANCH   1  19
TORSDOF 7
ENDMDL
MODEL 4
REMARK VINA RESULT:      -8.0      1.388      1.808
REMARK  Name = 
REMARK  7 active torsions:
REMARK  status: ('A' for Active; 'I' for Inactive)
REMARK    1  A    between atoms: N_1  and  C_2
REMARK    2  A    between atoms: C_2  and  C_3
REMARK    3  A    between atoms: C_2  and  C_22
REMARK    4  A    between atoms: C_3  and  C_4
REMARK    5  A    between atoms: N_9  and  C_10
REMARK    6  A    between atoms: C_13  and  N_14
REMARK    7  A    between atoms: C_22  and  C_23
REMARK                            x       y       z     vdW  Elec       q    Type
REMARK                         _______ _______ _______ _____ _____    ______ ____
ROOT
ATOM      1  C   UNL     1       1.765   2.753  18.751  0.00  0.00    +0.000 C 
ATOM      2  O   UNL     1       1.450   1.878  19.555  0.00  0.00    +0.000 OA
ATOM      3  N   UNL     1       1.458   4.086  18.967  0.00  0.00    +0.000 N 
ATOM      4  C   UNL     1       0.819   4.493  20.227  0.00  0.00    +0.000 C 
ATOM      5  C   UNL     1       1.664   5.560  20.944  0.00  0.00    +0.000 C 
ATOM      6  N   UNL     1       1.967   6.684  20.038  0.00  0.00    +0.000 N 
ATOM      7  C   UNL     1       2.558   6.318  18.739  0.00  0.00    +0.000 C 
ATOM      8  C   UNL     1       1.738   5.203  18.056  0.00  0.00    +0.000 C 
ENDROOT
BRANCH   6   9
ATOM      9  C   UNL     1       1.582   7.987  20.308  0.00  0.00    +0.000 A 
ATOM     10  C   UNL     1       1.348   8.400  21.634  0.00  0.00    +0.000 A 
ATOM     11  C   UNL     1       0.976   9.710  21.947  0.00  0.00    +0.000 A 
ATOM     12  C   UNL     1       0.821  10.648  20.920  0.00  0.00    +0.000 A 
ATOM     13  C   UNL     1       1.020  10.276  19.593  0.00  0.00    +0.000 A 
ATOM     14  C   UNL     1       1.394   8.969  19.308  0.00  0.00    +0.000 A 
ATOM     15  F   UNL     1       1.636   8.672  18.019  0.00  0.00    +0.000 F 
BRANCH  12  16
ATOM     16  N   UNL     1       0.459  12.032  21.245  0.00  0.00    +0.000 N 
ATOM     17  O   UNL     1      -0.685  12.244  21.670  0.00  0.00    +0.000 OA
ATOM     18  O   UNL     1       1.323  12.904  21.084  0.00  0.00    +0.000 OA
ENDBRANCH  12  16
ENDBRANCH   6   9
BRANCH   1  19
ATOM     19  C   UNL     1       2.549   2.427  17.488  0.00  0.00    +0.000 C 
BRANCH  19  20
ATOM     20  C   UNL     1       4.040   2.150  17.735  0.00  0.00    +0.000 C 
BRANCH  20  21
ATOM     21  N   UNL     1       4.202   0.774  18.253  0.00  0.00    +0.000 NA
ATOM     22  H   UNL     1       5.172   0.599  18.509  0.00  0.00    +0.000 HD
ATOM     23  H   UNL     1       3.951   0.093  17.534  0.00  0.00    +0.000 HD
ENDBRANCH  20  21
BRANCH  20  24
ATOM     24  C   UNL     1       4.680   3.152  18.728  0.00  0.00    +0.000 C 
BRANCH  24  25
ATOM     25  C   UNL     1       5.503   4.224  18.047  0.00  0.00    +0.000 A 
ATOM     26  C   UNL     1       5.536   4.324  16.644  0.00  0.00    +0.000 A 
ATOM     27  C   UNL     1       6.341   5.284  16.039  0.00  0.00    +0.000 A 
ATOM     28  F   UNL     1       6.388   5.352  14.702  0.00  0.00    +0.000 F 
ATOM     29  C   UNL     1       7.091   6.166  16.812  0.00  0.00    +0.000 A 
ATOM     30  F   UNL     1       7.863   7.088  16.221  0.00  0.00    +0.000 F 
ATOM     31  C   UNL     1       7.048   6.101  18.198  0.00  0.00    +0.000 A 
ATOM     32  C   UNL     1       6.259   5.130  18.803  0.00  0.00    +0.000 A 
ATOM     33  F   UNL     1       6.229   5.071  20.143  0.00  0.00    +0.000 F 
ENDBRANCH  24  25
ENDBRANCH  20  24
ENDBRANCH  19  20
ENDBRANCH   1  19
TORSDOF 7
ENDMDL
MODEL 5
REMARK VINA RESULT:      -8.0      3.126      4.892
REMARK  Name = 
REMARK  7 active torsions:
REMARK  status: ('A' for Active; 'I' for Inactive)
REMARK    1  A    between atoms: N_1  and  C_2
REMARK    2  A    between atoms: C_2  and  C_3
REMARK    3  A    between atoms: C_2  and  C_22
REMARK    4  A    between atoms: C_3  and  C_4
REMARK    5  A    between atoms: N_9  and  C_10
REMARK    6  A    between atoms: C_13  and  N_14
REMARK    7  A    between atoms: C_22  and  C_23
REMARK                            x       y       z     vdW  Elec       q    Type
REMARK                         _______ _______ _______ _____ _____    ______ ____
ROOT
ATOM      1  C   UNL     1       5.209   6.080  16.876  0.00  0.00    +0.000 C 
ATOM      2  O   UNL     1       5.304   6.387  15.689  0.00  0.00    +0.000 OA
ATOM      3  N   UNL     1       4.498   6.856  17.775  0.00  0.00    +0.000 N 
ATOM      4  C   UNL     1       3.755   8.031  17.297  0.00  0.00    +0.000 C 
ATOM      5  C   UNL     1       2.268   7.925  17.677  0.00  0.00    +0.000 C 
ATOM      6  N   UNL     1       2.114   7.669  19.122  0.00  0.00    +0.000 N 
ATOM      7  C   UNL     1       2.885   6.533  19.656  0.00  0.00    +0.000 C 
ATOM      8  C   UNL     1       4.363   6.616  19.218  0.00  0.00    +0.000 C 
ENDROOT
BRANCH   6   9
ATOM      9  C   UNL     1       1.422   8.524  19.963  0.00  0.00    +0.000 A 
ATOM     10  C   UNL     1       1.353   8.262  21.346  0.00  0.00    +0.000 A 
ATOM     11  C   UNL     1       0.680   9.111  22.227  0.00  0.00    +0.000 A 
ATOM     12  C   UNL     1       0.045  10.257  21.733  0.00  0.00    +0.000 A 
ATOM     13  C   UNL     1       0.069  10.542  20.371  0.00  0.00    +0.000 A 
ATOM     14  C   UNL     1       0.749   9.684  19.515  0.00  0.00    +0.000 A 
ATOM     15  F   UNL     1       0.798  10.032  18.217  0.00  0.00    +0.000 F 
BRANCH  12  16
ATOM     16  N   UNL     1      -0.639  11.167  22.659  0.00  0.00    +0.000 N 
ATOM     17  O   UNL     1      -0.262  12.347  22.691  0.00  0.00    +0.000 OA
ATOM     18  O   UNL     1      -1.559  10.703  23.345  0.00  0.00    +0.000 OA
ENDBRANCH  12  16
ENDBRANCH   6   9
BRANCH   1  19
ATOM     19  C   UNL     1       5.838   4.805  17.420  0.00  0.00    +0.000 C 
BRANCH  19  20
ATOM     20  C   UNL     1       5.179   3.517  16.903  0.00  0.00    +0.000 C 
BRANCH  20  21
ATOM     21  N   UNL     1       5.722   3.194  15.565  0.00  0.00    +0.000 NA
ATOM     22  H   UNL     1       6.350   2.394  15.616  0.00  0.00    +0.000 HD
ATOM     23  H   UNL     1       6.263   3.981  15.203  0.00  0.00    +0.000 HD
ENDBRANCH  20  21
BRANCH  20  24
ATOM     24  C   UNL     1       3.636   3.624  16.819  0.00  0.00    +0.000 C 
BRANCH  24  25
ATOM     25  C   UNL     1       2.949   3.386  18.146  0.00  0.00    +0.000 A 
ATOM     26  C   UNL     1       3.662   2.871  19.245  0.00  0.00    +0.000 A 
ATOM     27  C   UNL     1       2.998   2.612  20.439  0.00  0.00    +0.000 A 
ATOM     28  F   UNL     1       3.680   2.094  21.469  0.00  0.00    +0.000 F 
ATOM     29  C   UNL     1       1.639   2.886  20.566  0.00  0.00    +0.000 A 
ATOM     30  F   UNL     1       1.007   2.633  21.720  0.00  0.00    +0.000 F 
ATOM     31  C   UNL     1       0.925   3.421  19.502  0.00  0.00    +0.000 A 
ATOM     32  C   UNL     1       1.585   3.663  18.302  0.00  0.00    +0.000 A 
ATOM     33  F   UNL     1       0.884   4.175  17.279  0.00  0.00    +0.000 F 
ENDBRANCH  24  25
ENDBRANCH  20  24
ENDBRANCH  19  20
ENDBRANCH   1  19
TORSDOF 7
ENDMDL
MODEL 6
REMARK VINA RESULT:      -8.0      1.123      1.944
REMARK  Name = 
REMARK  7 active torsions:
REMARK  status: ('A' for Active; 'I' for Inactive)
REMARK    1  A    between atoms: N_1  and  C_2
REMARK    2  A    between atoms: C_2  and  C_3
REMARK    3  A    between atoms: C_2  and  C_22
REMARK    4  A    between atoms: C_3  and  C_4
REMARK    5  A    between atoms: N_9  and  C_10
REMARK    6  A    between atoms: C_13  and  N_14
REMARK    7  A    between atoms: C_22  and  C_23
REMARK                            x       y       z     vdW  Elec       q    Type
REMARK                         _______ _______ _______ _____ _____    ______ ____
ROOT
ATOM      1  C   UNL     1       1.740   2.835  19.377  0.00  0.00    +0.000 C 
ATOM      2  O   UNL     1       1.540   2.246  20.438  0.00  0.00    +0.000 OA
ATOM      3  N   UNL     1       1.462   4.184  19.229  0.00  0.00    +0.000 N 
ATOM      4  C   UNL     1       1.000   4.965  20.386  0.00  0.00    +0.000 C 
ATOM      5  C   UNL     1       1.932   6.163  20.639  0.00  0.00    +0.000 C 
ATOM      6  N   UNL     1       2.105   6.960  19.410  0.00  0.00    +0.000 N 
ATOM      7  C   UNL     1       2.514   6.209  18.211  0.00  0.00    +0.000 C 
ATOM      8  C   UNL     1       1.611   4.975  18.000  0.00  0.00    +0.000 C 
ENDROOT
BRANCH   6   9
ATOM      9  C   UNL     1       1.757   8.299  19.332  0.00  0.00    +0.000 A 
ATOM     10  C   UNL     1       2.057   9.047  18.178  0.00  0.00    +0.000 A 
ATOM     11  C   UNL     1       1.706  10.394  18.056  0.00  0.00    +0.000 A 
ATOM     12  C   UNL     1       1.040  11.032  19.109  0.00  0.00    +0.000 A 
ATOM     13  C   UNL     1       0.744  10.336  20.277  0.00  0.00    +0.000 A 
ATOM     14  C   UNL     1       1.100   8.996  20.372  0.00  0.00    +0.000 A 
ATOM     15  F   UNL     1       0.738   8.348  21.494  0.00  0.00    +0.000 F 
BRANCH  12  16
ATOM     16  N   UNL     1       0.643  12.438  18.975  0.00  0.00    +0.000 N 
ATOM     17  O   UNL     1      -0.489  12.757  19.365  0.00  0.00    +0.000 OA
ATOM     18  O   UNL     1       1.467  13.223  18.488  0.00  0.00    +0.000 OA
ENDBRANCH  12  16
ENDBRANCH   6   9
BRANCH   1  19
ATOM     19  C   UNL     1       2.345   2.125  18.174  0.00  0.00    +0.000 C 
BRANCH  19  20
ATOM     20  C   UNL     1       3.880   2.069  18.191  0.00  0.00    +0.000 C 
BRANCH  20  21
ATOM     21  N   UNL     1       4.315   0.710  18.579  0.00  0.00    +0.000 NA
ATOM     22  H   UNL     1       3.597   0.024  18.351  0.00  0.00    +0.000 HD
ATOM     23  H   UNL     1       4.469   0.661  19.588  0.00  0.00    +0.000 HD
ENDBRANCH  20  21
BRANCH  20  24
ATOM     24  C   UNL     1       4.507   3.105  19.158  0.00  0.00    +0.000 C 
BRANCH  24  25
ATOM     25  C   UNL     1       5.402   4.106  18.461  0.00  0.00    +0.000 A 
ATOM     26  C   UNL     1       6.396   4.802  19.172  0.00  0.00    +0.000 A 
ATOM     27  C   UNL     1       7.173   5.754  18.520  0.00  0.00    +0.000 A 
ATOM     28  F   UNL     1       8.097   6.433  19.214  0.00  0.00    +0.000 F 
ATOM     29  C   UNL     1       6.994   6.004  17.163  0.00  0.00    +0.000 A 
ATOM     30  F   UNL     1       7.747   6.922  16.543  0.00  0.00    +0.000 F 
ATOM     31  C   UNL     1       6.038   5.306  16.438  0.00  0.00    +0.000 A 
ATOM     32  C   UNL     1       5.249   4.367  17.093  0.00  0.00    +0.000 A 
ATOM     33  F   UNL     1       4.323   3.702  16.385  0.00  0.00    +0.000 F 
ENDBRANCH  24  25
ENDBRANCH  20  24
ENDBRANCH  19  20
ENDBRANCH   1  19
TORSDOF 7
ENDMDL
MODEL 7
REMARK VINA RESULT:      -7.8      2.790      4.277
REMARK  Name = 
REMARK  7 active torsions:
REMARK  status: ('A' for Active; 'I' for Inactive)
REMARK    1  A    between atoms: N_1  and  C_2
REMARK    2  A    between atoms: C_2  and  C_3
REMARK    3  A    between atoms: C_2  and  C_22
REMARK    4  A    between atoms: C_3  and  C_4
REMARK    5  A    between atoms: N_9  and  C_10
REMARK    6  A    between atoms: C_13  and  N_14
REMARK    7  A    between atoms: C_22  and  C_23
REMARK                            x       y       z     vdW  Elec       q    Type
REMARK                         _______ _______ _______ _____ _____    ______ ____
ROOT
ATOM      1  C   UNL     1       2.193   6.992  19.428  0.00  0.00    +0.000 C 
ATOM      2  O   UNL     1       2.536   6.964  18.248  0.00  0.00    +0.000 OA
ATOM      3  N   UNL     1       1.704   8.146  20.018  0.00  0.00    +0.000 N 
ATOM      4  C   UNL     1       1.498   9.351  19.201  0.00  0.00    +0.000 C 
ATOM      5  C   UNL     1       0.038   9.827  19.294  0.00  0.00    +0.000 C 
ATOM      6  N   UNL     1      -0.374   9.982  20.703  0.00  0.00    +0.000 N 
ATOM      7  C   UNL     1      -0.134   8.817  21.571  0.00  0.00    +0.000 C 
ATOM      8  C   UNL     1       1.316   8.309  21.425  0.00  0.00    +0.000 C 
ENDROOT
BRANCH   6   9
ATOM      9  C   UNL     1      -0.810  11.188  21.225  0.00  0.00    +0.000 A 
ATOM     10  C   UNL     1      -0.983  12.307  20.387  0.00  0.00    +0.000 A 
ATOM     11  C   UNL     1      -1.439  13.534  20.875  0.00  0.00    +0.000 A 
ATOM     12  C   UNL     1      -1.728  13.671  22.238  0.00  0.00    +0.000 A 
ATOM     13  C   UNL     1      -1.548  12.598  23.106  0.00  0.00    +0.000 A 
ATOM     14  C   UNL     1      -1.099  11.386  22.595  0.00  0.00    +0.000 A 
ATOM     15  F   UNL     1      -1.000  10.361  23.459  0.00  0.00    +0.000 F 
BRANCH  12  16
ATOM     16  N   UNL     1      -2.233  14.949  22.750  0.00  0.00    +0.000 N 
ATOM     17  O   UNL     1      -3.367  14.962  23.250  0.00  0.00    +0.000 OA
ATOM     18  O   UNL     1      -1.492  15.937  22.662  0.00  0.00    +0.000 OA
ENDBRANCH  12  16
ENDBRANCH   6   9
BRANCH   1  19
ATOM     19  C   UNL     1       2.249   5.748  20.303  0.00  0.00    +0.000 C 
BRANCH  19  20
ATOM     20  C   UNL     1       1.827   4.460  19.580  0.00  0.00    +0.000 C 
BRANCH  20  21
ATOM     21  N   UNL     1       0.670   3.862  20.281  0.00  0.00    +0.000 NA
ATOM     22  H   UNL     1      -0.161   4.438  20.158  0.00  0.00    +0.000 HD
ATOM     23  H   UNL     1       0.853   3.807  21.285  0.00  0.00    +0.000 HD
ENDBRANCH  20  21
BRANCH  20  24
ATOM     24  C   UNL     1       2.971   3.418  19.495  0.00  0.00    +0.000 C 
BRANCH  24  25
ATOM     25  C   UNL     1       4.075   3.821  18.542  0.00  0.00    +0.000 A 
ATOM     26  C   UNL     1       5.317   4.272  19.027  0.00  0.00    +0.000 A 
ATOM     27  C   UNL     1       6.298   4.686  18.133  0.00  0.00    +0.000 A 
ATOM     28  F   UNL     1       7.466   5.142  18.606  0.00  0.00    +0.000 F 
ATOM     29  C   UNL     1       6.073   4.630  16.760  0.00  0.00    +0.000 A 
ATOM     30  F   UNL     1       7.024   5.031  15.906  0.00  0.00    +0.000 F 
ATOM     31  C   UNL     1       4.865   4.160  16.263  0.00  0.00    +0.000 A 
ATOM     32  C   UNL     1       3.877   3.764  17.157  0.00  0.00    +0.000 A 
ATOM     33  F   UNL     1       2.711   3.317  16.666  0.00  0.00    +0.000 F 
ENDBRANCH  24  25
ENDBRANCH  20  24
ENDBRANCH  19  20
ENDBRANCH   1  19
TORSDOF 7
ENDMDL
MODEL 8
REMARK VINA RESULT:      -7.7      2.998      4.740
REMARK  Name = 
REMARK  7 active torsions:
REMARK  status: ('A' for Active; 'I' for Inactive)
REMARK    1  A    between atoms: N_1  and  C_2
REMARK    2  A    between atoms: C_2  and  C_3
REMARK    3  A    between atoms: C_2  and  C_22
REMARK    4  A    between atoms: C_3  and  C_4
REMARK    5  A    between atoms: N_9  and  C_10
REMARK    6  A    between atoms: C_13  and  N_14
REMARK    7  A    between atoms: C_22  and  C_23
REMARK                            x       y       z     vdW  Elec       q    Type
REMARK                         _______ _______ _______ _____ _____    ______ ____
ROOT
ATOM      1  C   UNL     1       5.273   6.073  16.781  0.00  0.00    +0.000 C 
ATOM      2  O   UNL     1       5.374   6.347  15.586  0.00  0.00    +0.000 OA
ATOM      3  N   UNL     1       4.545   6.867  17.652  0.00  0.00    +0.000 N 
ATOM      4  C   UNL     1       3.792   8.019  17.133  0.00  0.00    +0.000 C 
ATOM      5  C   UNL     1       2.303   7.906  17.504  0.00  0.00    +0.000 C 
ATOM      6  N   UNL     1       2.140   7.689  18.955  0.00  0.00    +0.000 N 
ATOM      7  C   UNL     1       2.920   6.579  19.528  0.00  0.00    +0.000 C 
ATOM      8  C   UNL     1       4.400   6.667  19.099  0.00  0.00    +0.000 C 
ENDROOT
BRANCH   6   9
ATOM      9  C   UNL     1       1.431   8.560  19.765  0.00  0.00    +0.000 A 
ATOM     10  C   UNL     1       1.080   9.842  19.298  0.00  0.00    +0.000 A 
ATOM     11  C   UNL     1       0.349  10.741  20.079  0.00  0.00    +0.000 A 
ATOM     12  C   UNL     1      -0.046  10.370  21.370  0.00  0.00    +0.000 A 
ATOM     13  C   UNL     1       0.299   9.122  21.880  0.00  0.00    +0.000 A 
ATOM     14  C   UNL     1       1.022   8.244  21.081  0.00  0.00    +0.000 A 
ATOM     15  F   UNL     1       1.279   7.027  21.592  0.00  0.00    +0.000 F 
BRANCH  12  16
ATOM     16  N   UNL     1      -0.838  11.299  22.184  0.00  0.00    +0.000 N 
ATOM     17  O   UNL     1      -1.629  12.050  21.597  0.00  0.00    +0.000 OA
ATOM     18  O   UNL     1      -0.675  11.269  23.411  0.00  0.00    +0.000 OA
ENDBRANCH  12  16
ENDBRANCH   6   9
BRANCH   1  19
ATOM     19  C   UNL     1       5.912   4.822  17.367  0.00  0.00    +0.000 C 
BRANCH  19  20
ATOM     20  C   UNL     1       5.254   3.513  16.905  0.00  0.00    +0.000 C 
BRANCH  20  21
ATOM     21  N   UNL     1       5.807   3.127  15.588  0.00  0.00    +0.000 NA
ATOM     22  H   UNL     1       5.143   2.549  15.075  0.00  0.00    +0.000 HD
ATOM     23  H   UNL     1       6.658   2.575  15.709  0.00  0.00    +0.000 HD
ENDBRANCH  20  21
BRANCH  20  24
ATOM     24  C   UNL     1       3.711   3.621  16.803  0.00  0.00    +0.000 C 
BRANCH  24  25
ATOM     25  C   UNL     1       3.010   3.402  18.126  0.00  0.00    +0.000 A 
ATOM     26  C   UNL     1       3.700   2.861  19.227  0.00  0.00    +0.000 A 
ATOM     27  C   UNL     1       3.021   2.622  20.417  0.00  0.00    +0.000 A 
ATOM     28  F   UNL     1       3.680   2.078  21.449  0.00  0.00    +0.000 F 
ATOM     29  C   UNL     1       1.672   2.940  20.538  0.00  0.00    +0.000 A 
ATOM     30  F   UNL     1       1.026   2.706  21.688  0.00  0.00    +0.000 F 
ATOM     31  C   UNL     1       0.982   3.502  19.472  0.00  0.00    +0.000 A 
ATOM     32  C   UNL     1       1.655   3.724  18.276  0.00  0.00    +0.000 A 
ATOM     33  F   UNL     1       0.978   4.262  17.250  0.00  0.00    +0.000 F 
ENDBRANCH  24  25
ENDBRANCH  20  24
ENDBRANCH  19  20
ENDBRANCH   1  19
TORSDOF 7
ENDMDL
MODEL 9
REMARK VINA RESULT:      -7.7      2.337      3.128
REMARK  Name = 
REMARK  7 active torsions:
REMARK  status: ('A' for Active; 'I' for Inactive)
REMARK    1  A    between atoms: N_1  and  C_2
REMARK    2  A    between atoms: C_2  and  C_3
REMARK    3  A    between atoms: C_2  and  C_22
REMARK    4  A    between atoms: C_3  and  C_4
REMARK    5  A    between atoms: N_9  and  C_10
REMARK    6  A    between atoms: C_13  and  N_14
REMARK    7  A    between atoms: C_22  and  C_23
REMARK                            x       y       z     vdW  Elec       q    Type
REMARK                         _______ _______ _______ _____ _____    ______ ____
ROOT
ATOM      1  C   UNL     1       3.461   5.889  19.119  0.00  0.00    +0.000 C 
ATOM      2  O   UNL     1       3.674   5.140  20.070  0.00  0.00    +0.000 OA
ATOM      3  N   UNL     1       2.411   6.792  19.123  0.00  0.00    +0.000 N 
ATOM      4  C   UNL     1       1.575   6.933  20.325  0.00  0.00    +0.000 C 
ATOM      5  C   UNL     1       1.575   8.391  20.818  0.00  0.00    +0.000 C 
ATOM      6  N   UNL     1       1.211   9.313  19.725  0.00  0.00    +0.000 N 
ATOM      7  C   UNL     1       1.986   9.169  18.480  0.00  0.00    +0.000 C 
ATOM      8  C   UNL     1       2.032   7.694  18.028  0.00  0.00    +0.000 C 
ENDROOT
BRANCH   6   9
ATOM      9  C   UNL     1       0.113  10.154  19.792  0.00  0.00    +0.000 A 
ATOM     10  C   UNL     1      -0.129  10.921  20.948  0.00  0.00    +0.000 A 
ATOM     11  C   UNL     1      -1.215  11.793  21.046  0.00  0.00    +0.000 A 
ATOM     12  C   UNL     1      -2.102  11.914  19.969  0.00  0.00    +0.000 A 
ATOM     13  C   UNL     1      -1.914  11.158  18.816  0.00  0.00    +0.000 A 
ATOM     14  C   UNL     1      -0.823  10.301  18.742  0.00  0.00    +0.000 A 
ATOM     15  F   UNL     1      -0.647   9.638  17.585  0.00  0.00    +0.000 F 
BRANCH  12  16
ATOM     16  N   UNL     1      -3.229  12.850  20.055  0.00  0.00    +0.000 N 
ATOM     17  O   UNL     1      -4.296  12.518  19.521  0.00  0.00    +0.000 OA
ATOM     18  O   UNL     1      -3.047  13.912  20.665  0.00  0.00    +0.000 OA
ENDBRANCH  12  16
ENDBRANCH   6   9
BRANCH   1  19
ATOM     19  C   UNL     1       4.364   5.897  17.894  0.00  0.00    +0.000 C 
BRANCH  19  20
ATOM     20  C   UNL     1       4.086   4.752  16.909  0.00  0.00    +0.000 C 
BRANCH  20  21
ATOM     21  N   UNL     1       3.021   3.884  17.456  0.00  0.00    +0.000 NA
ATOM     22  H   UNL     1       3.401   2.983  17.739  0.00  0.00    +0.000 HD
ATOM     23  H   UNL     1       2.311   3.702  16.744  0.00  0.00    +0.000 HD
ENDBRANCH  20  21
BRANCH  20  24
ATOM     24  C   UNL     1       5.344   3.897  16.612  0.00  0.00    +0.000 C 
BRANCH  24  25
ATOM     25  C   UNL     1       5.905   4.123  15.225  0.00  0.00    +0.000 A 
ATOM     26  C   UNL     1       5.354   3.467  14.109  0.00  0.00    +0.000 A 
ATOM     27  C   UNL     1       5.919   3.650  12.852  0.00  0.00    +0.000 A 
ATOM     28  F   UNL     1       5.405   2.997  11.800  0.00  0.00    +0.000 F 
ATOM     29  C   UNL     1       7.008   4.500  12.683  0.00  0.00    +0.000 A 
ATOM     30  F   UNL     1       7.546   4.671  11.468  0.00  0.00    +0.000 F 
ATOM     31  C   UNL     1       7.547   5.178  13.768  0.00  0.00    +0.000 A 
ATOM     32  C   UNL     1       6.994   4.981  15.028  0.00  0.00    +0.000 A 
ATOM     33  F   UNL     1       7.527   5.637  16.071  0.00  0.00    +0.000 F 
ENDBRANCH  24  25
ENDBRANCH  20  24
ENDBRANCH  19  20
ENDBRANCH   1  19
TORSDOF 7
ENDMDL
