MODEL 1
REMARK VINA RESULT:      -6.9      0.000      0.000
REMARK  Name = 
REMARK  3 active torsions:
REMARK  status: ('A' for Active; 'I' for Inactive)
REMARK    1  A    between atoms: C_1  and  C_2
REMARK    2  A    between atoms: C_3  and  C_4
REMARK    3  A    between atoms: C_13  and  C_14
REMARK                            x       y       z     vdW  Elec       q    Type
REMARK                         _______ _______ _______ _____ _____    ______ ____
ROOT
ATOM      1  C   UNL     1      -0.001   9.612  23.393  0.00  0.00    +0.000 C 
ATOM      2  C   UNL     1       0.248  10.011  21.949  0.00  0.00    +0.000 C 
ATOM      3  C   UNL     1      -0.127  11.180  21.342  0.00  0.00    +0.000 C 
ATOM      4  C   UNL     1       0.208  11.372  19.834  0.00  0.00    +0.000 C 
ATOM      5  N   UNL     1       0.968  10.254  19.256  0.00  0.00    +0.000 N 
ATOM      6  N   UNL     1       1.311  10.192  17.949  0.00  0.00    +0.000 NA
ATOM      7  C   UNL     1       1.902   8.994  17.848  0.00  0.00    +0.000 A 
ATOM      8  C   UNL     1       1.887   8.272  19.059  0.00  0.00    +0.000 A 
ATOM      9  C   UNL     1       1.260   9.109  19.944  0.00  0.00    +0.000 A 
ATOM     10  N   UNL     1       0.912   9.011  21.236  0.00  0.00    +0.000 N 
ATOM     11  H   UNL     1       1.107   8.158  21.761  0.00  0.00    +0.000 HD
ENDROOT
BRANCH   3  12
ATOM     12  C   UNL     1      -0.829  12.170  22.113  0.00  0.00    +0.000 A 
ATOM     13  N   UNL     1      -0.375  13.160  22.857  0.00  0.00    +0.000 NA
ATOM     14  C   UNL     1      -1.453  13.681  23.515  0.00  0.00    +0.000 A 
ATOM     15  C   UNL     1      -1.496  14.643  24.531  0.00  0.00    +0.000 A 
ATOM     16  C   UNL     1      -2.742  14.985  25.069  0.00  0.00    +0.000 A 
ATOM     17  C   UNL     1      -3.917  14.412  24.572  0.00  0.00    +0.000 A 
ATOM     18  C   UNL     1      -3.888  13.456  23.547  0.00  0.00    +0.000 A 
ATOM     19  C   UNL     1      -2.627  13.096  23.069  0.00  0.00    +0.000 A 
ATOM     20  N   UNL     1      -2.208  12.154  22.166  0.00  0.00    +0.000 N 
ATOM     21  H   UNL     1      -2.820  11.503  21.693  0.00  0.00    +0.000 HD
ENDBRANCH   3  12
BRANCH   4  22
ATOM     22  C   UNL     1       0.893  12.711  19.551  0.00  0.00    +0.000 A 
ATOM     23  C   UNL     1       2.252  12.910  19.834  0.00  0.00    +0.000 A 
ATOM     24  C   UNL     1       2.844  14.162  19.637  0.00  0.00    +0.000 A 
ATOM     25  C   UNL     1       2.087  15.234  19.159  0.00  0.00    +0.000 A 
ATOM     26 CL   UNL     1       2.874  16.760  18.975  0.00  0.00    +0.000 Cl
ATOM     27  C   UNL     1       0.735  15.046  18.856  0.00  0.00    +0.000 A 
ATOM     28 CL   UNL     1      -0.276  16.324  18.281  0.00  0.00    +0.000 Cl
ATOM     29  C   UNL     1       0.147  13.789  19.040  0.00  0.00    +0.000 A 
ENDBRANCH   4  22
TORSDOF 2
ENDMDL
MODEL 2
REMARK VINA RESULT:      -6.8      3.695      6.130
REMARK  Name = 
REMARK  3 active torsions:
REMARK  status: ('A' for Active; 'I' for Inactive)
REMARK    1  A    between atoms: C_1  and  C_2
REMARK    2  A    between atoms: C_3  and  C_4
REMARK    3  A    between atoms: C_13  and  C_14
REMARK                            x       y       z     vdW  Elec       q    Type
REMARK                         _______ _______ _______ _____ _____    ______ ____
ROOT
ATOM      1  C   UNL     1      -1.215  14.292  20.618  0.00  0.00    +0.000 C 
ATOM      2  C   UNL     1      -1.150  13.103  19.676  0.00  0.00    +0.000 C 
ATOM      3  C   UNL     1      -0.021  12.507  19.180  0.00  0.00    +0.000 C 
ATOM      4  C   UNL     1      -0.186  11.309  18.200  0.00  0.00    +0.000 C 
ATOM      5  N   UNL     1      -1.587  10.923  17.978  0.00  0.00    +0.000 N 
ATOM      6  N   UNL     1      -1.956   9.946  17.118  0.00  0.00    +0.000 NA
ATOM      7  C   UNL     1      -3.294   9.990  17.166  0.00  0.00    +0.000 A 
ATOM      8  C   UNL     1      -3.779  11.019  18.000  0.00  0.00    +0.000 A 
ATOM      9  C   UNL     1      -2.647  11.613  18.494  0.00  0.00    +0.000 A 
ATOM     10  N   UNL     1      -2.420  12.654  19.311  0.00  0.00    +0.000 N 
ATOM     11  H   UNL     1      -3.199  13.191  19.694  0.00  0.00    +0.000 HD
ENDROOT
BRANCH   3  12
ATOM     12  C   UNL     1       1.264  13.021  19.567  0.00  0.00    +0.000 A 
ATOM     13  N   UNL     1       1.880  13.005  20.734  0.00  0.00    +0.000 NA
ATOM     14  C   UNL     1       2.991  13.788  20.601  0.00  0.00    +0.000 A 
ATOM     15  C   UNL     1       3.899  14.220  21.575  0.00  0.00    +0.000 A 
ATOM     16  C   UNL     1       4.950  15.056  21.181  0.00  0.00    +0.000 A 
ATOM     17  C   UNL     1       5.113  15.412  19.838  0.00  0.00    +0.000 A 
ATOM     18  C   UNL     1       4.218  14.978  18.851  0.00  0.00    +0.000 A 
ATOM     19  C   UNL     1       3.150  14.192  19.284  0.00  0.00    +0.000 A 
ATOM     20  N   UNL     1       2.053  13.676  18.644  0.00  0.00    +0.000 N 
ATOM     21  H   UNL     1       1.831  13.836  17.671  0.00  0.00    +0.000 HD
ENDBRANCH   3  12
BRANCH   4  22
ATOM     22  C   UNL     1       0.663  10.101  18.602  0.00  0.00    +0.000 A 
ATOM     23  C   UNL     1       1.495   9.453  17.678  0.00  0.00    +0.000 A 
ATOM     24  C   UNL     1       2.208   8.307  18.044  0.00  0.00    +0.000 A 
ATOM     25  C   UNL     1       2.097   7.788  19.336  0.00  0.00    +0.000 A 
ATOM     26 CL   UNL     1       2.977   6.349  19.709  0.00  0.00    +0.000 Cl
ATOM     27  C   UNL     1       1.285   8.433  20.274  0.00  0.00    +0.000 A 
ATOM     28 CL   UNL     1       1.076   7.846  21.885  0.00  0.00    +0.000 Cl
ATOM     29  C   UNL     1       0.583   9.590  19.911  0.00  0.00    +0.000 A 
ENDBRANCH   4  22
TORSDOF 2
ENDMDL
MODEL 3
REMARK VINA RESULT:      -6.7      3.275      6.486
REMARK  Name = 
REMARK  3 active torsions:
REMARK  status: ('A' for Active; 'I' for Inactive)
REMARK    1  A    between atoms: C_1  and  C_2
REMARK    2  A    between atoms: C_3  and  C_4
REMARK    3  A    between atoms: C_13  and  C_14
REMARK                            x       y       z     vdW  Elec       q    Type
REMARK                         _______ _______ _______ _____ _____    ______ ____
ROOT
ATOM      1  C   UNL     1      -0.502  17.092  22.627  0.00  0.00    +0.000 C 
ATOM      2  C   UNL     1      -1.276  15.824  22.312  0.00  0.00    +0.000 C 
ATOM      3  C   UNL     1      -1.379  15.204  21.096  0.00  0.00    +0.000 C 
ATOM      4  C   UNL     1      -2.253  13.920  20.991  0.00  0.00    +0.000 C 
ATOM      5  N   UNL     1      -2.823  13.493  22.277  0.00  0.00    +0.000 N 
ATOM      6  N   UNL     1      -3.660  12.437  22.400  0.00  0.00    +0.000 NA
ATOM      7  C   UNL     1      -3.993  12.464  23.697  0.00  0.00    +0.000 A 
ATOM      8  C   UNL     1      -3.426  13.556  24.386  0.00  0.00    +0.000 A 
ATOM      9  C   UNL     1      -2.690  14.210  23.433  0.00  0.00    +0.000 A 
ATOM     10  N   UNL     1      -1.940  15.324  23.433  0.00  0.00    +0.000 N 
ATOM     11  H   UNL     1      -1.841  15.881  24.283  0.00  0.00    +0.000 HD
ENDROOT
BRANCH   3  12
ATOM     12  C   UNL     1      -0.695  15.770  19.965  0.00  0.00    +0.000 A 
ATOM     13  N   UNL     1       0.551  15.630  19.556  0.00  0.00    +0.000 NA
ATOM     14  C   UNL     1       0.733  16.527  18.542  0.00  0.00    +0.000 A 
ATOM     15  C   UNL     1       1.908  16.884  17.870  0.00  0.00    +0.000 A 
ATOM     16  C   UNL     1       1.832  17.868  16.877  0.00  0.00    +0.000 A 
ATOM     17  C   UNL     1       0.605  18.445  16.536  0.00  0.00    +0.000 A 
ATOM     18  C   UNL     1      -0.580  18.089  17.193  0.00  0.00    +0.000 A 
ATOM     19  C   UNL     1      -0.463  17.145  18.216  0.00  0.00    +0.000 A 
ATOM     20  N   UNL     1      -1.359  16.635  19.119  0.00  0.00    +0.000 N 
ATOM     21  H   UNL     1      -2.324  16.924  19.192  0.00  0.00    +0.000 HD
ENDBRANCH   3  12
BRANCH   4  22
ATOM     22  C   UNL     1      -1.521  12.766  20.301  0.00  0.00    +0.000 A 
ATOM     23  C   UNL     1      -0.278  12.310  20.764  0.00  0.00    +0.000 A 
ATOM     24  C   UNL     1       0.409  11.304  20.077  0.00  0.00    +0.000 A 
ATOM     25  C   UNL     1      -0.131  10.742  18.918  0.00  0.00    +0.000 A 
ATOM     26 CL   UNL     1       0.790   9.530  18.102  0.00  0.00    +0.000 Cl
ATOM     27  C   UNL     1      -1.377  11.174  18.455  0.00  0.00    +0.000 A 
ATOM     28 CL   UNL     1      -2.106  10.547  17.020  0.00  0.00    +0.000 Cl
ATOM     29  C   UNL     1      -2.072  12.171  19.151  0.00  0.00    +0.000 A 
ENDBRANCH   4  22
TORSDOF 2
ENDMDL
MODEL 4
REMARK VINA RESULT:      -6.7      3.671      6.176
REMARK  Name = 
REMARK  3 active torsions:
REMARK  status: ('A' for Active; 'I' for Inactive)
REMARK    1  A    between atoms: C_1  and  C_2
REMARK    2  A    between atoms: C_3  and  C_4
REMARK    3  A    between atoms: C_13  and  C_14
REMARK                            x       y       z     vdW  Elec       q    Type
REMARK                         _______ _______ _______ _____ _____    ______ ____
ROOT
ATOM      1  C   UNL     1      -1.223  14.600  20.558  0.00  0.00    +0.000 C 
ATOM      2  C   UNL     1      -1.262  13.331  19.725  0.00  0.00    +0.000 C 
ATOM      3  C   UNL     1      -0.191  12.598  19.291  0.00  0.00    +0.000 C 
ATOM      4  C   UNL     1      -0.460  11.336  18.419  0.00  0.00    +0.000 C 
ATOM      5  N   UNL     1      -1.889  11.054  18.224  0.00  0.00    +0.000 N 
ATOM      6  N   UNL     1      -2.343  10.040  17.451  0.00  0.00    +0.000 NA
ATOM      7  C   UNL     1      -3.672  10.204  17.487  0.00  0.00    +0.000 A 
ATOM      8  C   UNL     1      -4.065  11.341  18.223  0.00  0.00    +0.000 A 
ATOM      9  C   UNL     1      -2.885  11.877  18.670  0.00  0.00    +0.000 A 
ATOM     10  N   UNL     1      -2.567  12.962  19.394  0.00  0.00    +0.000 N 
ATOM     11  H   UNL     1      -3.296  13.596  19.722  0.00  0.00    +0.000 HD
ENDROOT
BRANCH   3  12
ATOM     12  C   UNL     1       1.135  13.031  19.639  0.00  0.00    +0.000 A 
ATOM     13  N   UNL     1       1.775  12.996  20.792  0.00  0.00    +0.000 NA
ATOM     14  C   UNL     1       2.933  13.699  20.618  0.00  0.00    +0.000 A 
ATOM     15  C   UNL     1       3.890  14.087  21.563  0.00  0.00    +0.000 A 
ATOM     16  C   UNL     1       4.986  14.842  21.129  0.00  0.00    +0.000 A 
ATOM     17  C   UNL     1       5.142  15.161  19.776  0.00  0.00    +0.000 A 
ATOM     18  C   UNL     1       4.197  14.770  18.818  0.00  0.00    +0.000 A 
ATOM     19  C   UNL     1       3.088  14.066  19.291  0.00  0.00    +0.000 A 
ATOM     20  N   UNL     1       1.944  13.613  18.685  0.00  0.00    +0.000 N 
ATOM     21  H   UNL     1       1.712  13.770  17.714  0.00  0.00    +0.000 HD
ENDBRANCH   3  12
BRANCH   4  22
ATOM     22  C   UNL     1       0.282  10.100  18.932  0.00  0.00    +0.000 A 
ATOM     23  C   UNL     1       0.078   9.612  20.231  0.00  0.00    +0.000 A 
ATOM     24  C   UNL     1       0.818   8.525  20.707  0.00  0.00    +0.000 A 
ATOM     25  C   UNL     1       1.775   7.912  19.895  0.00  0.00    +0.000 A 
ATOM     26 CL   UNL     1       2.678   6.598  20.560  0.00  0.00    +0.000 Cl
ATOM     27  C   UNL     1       1.977   8.376  18.592  0.00  0.00    +0.000 A 
ATOM     28 CL   UNL     1       3.155   7.687  17.531  0.00  0.00    +0.000 Cl
ATOM     29  C   UNL     1       1.225   9.455  18.111  0.00  0.00    +0.000 A 
ENDBRANCH   4  22
TORSDOF 2
ENDMDL
MODEL 5
REMARK VINA RESULT:      -6.7      0.940      1.540
REMARK  Name = 
REMARK  3 active torsions:
REMARK  status: ('A' for Active; 'I' for Inactive)
REMARK    1  A    between atoms: C_1  and  C_2
REMARK    2  A    between atoms: C_3  and  C_4
REMARK    3  A    between atoms: C_13  and  C_14
REMARK                            x       y       z     vdW  Elec       q    Type
REMARK                         _______ _______ _______ _____ _____    ______ ____
ROOT
ATOM      1  C   UNL     1      -0.363   9.692  23.275  0.00  0.00    +0.000 C 
ATOM      2  C   UNL     1       0.070  10.144  21.891  0.00  0.00    +0.000 C 
ATOM      3  C   UNL     1      -0.131  11.375  21.328  0.00  0.00    +0.000 C 
ATOM      4  C   UNL     1       0.375  11.617  19.875  0.00  0.00    +0.000 C 
ATOM      5  N   UNL     1       1.087  10.464  19.304  0.00  0.00    +0.000 N 
ATOM      6  N   UNL     1       1.556  10.441  18.035  0.00  0.00    +0.000 NA
ATOM      7  C   UNL     1       2.043   9.199  17.916  0.00  0.00    +0.000 A 
ATOM      8  C   UNL     1       1.837   8.415  19.070  0.00  0.00    +0.000 A 
ATOM      9  C   UNL     1       1.199   9.260  19.941  0.00  0.00    +0.000 A 
ATOM     10  N   UNL     1       0.711   9.125  21.184  0.00  0.00    +0.000 N 
ATOM     11  H   UNL     1       0.772   8.229  21.670  0.00  0.00    +0.000 HD
ENDROOT
BRANCH   3  12
ATOM     12  C   UNL     1      -0.817  12.385  22.087  0.00  0.00    +0.000 A 
ATOM     13  N   UNL     1      -0.358  13.266  22.955  0.00  0.00    +0.000 NA
ATOM     14  C   UNL     1      -1.449  13.861  23.523  0.00  0.00    +0.000 A 
ATOM     15  C   UNL     1      -1.518  14.752  24.600  0.00  0.00    +0.000 A 
ATOM     16  C   UNL     1      -2.778  15.196  25.016  0.00  0.00    +0.000 A 
ATOM     17  C   UNL     1      -3.935  14.793  24.342  0.00  0.00    +0.000 A 
ATOM     18  C   UNL     1      -3.880  13.910  23.255  0.00  0.00    +0.000 A 
ATOM     19  C   UNL     1      -2.613  13.442  22.899  0.00  0.00    +0.000 A 
ATOM     20  N   UNL     1      -2.186  12.521  21.979  0.00  0.00    +0.000 N 
ATOM     21  H   UNL     1      -2.798  11.977  21.388  0.00  0.00    +0.000 HD
ENDBRANCH   3  12
BRANCH   4  22
ATOM     22  C   UNL     1       1.205  12.896  19.749  0.00  0.00    +0.000 A 
ATOM     23  C   UNL     1       0.896  13.877  18.795  0.00  0.00    +0.000 A 
ATOM     24  C   UNL     1       1.709  15.005  18.646  0.00  0.00    +0.000 A 
ATOM     25  C   UNL     1       2.845  15.169  19.442  0.00  0.00    +0.000 A 
ATOM     26 CL   UNL     1       3.823  16.568  19.178  0.00  0.00    +0.000 Cl
ATOM     27  C   UNL     1       3.157  14.208  20.409  0.00  0.00    +0.000 A 
ATOM     28 CL   UNL     1       4.553  14.324  21.420  0.00  0.00    +0.000 Cl
ATOM     29  C   UNL     1       2.334  13.086  20.569  0.00  0.00    +0.000 A 
ENDBRANCH   4  22
TORSDOF 2
ENDMDL
MODEL 6
REMARK VINA RESULT:      -6.6      0.690      1.781
REMARK  Name = 
REMARK  3 active torsions:
REMARK  status: ('A' for Active; 'I' for Inactive)
REMARK    1  A    between atoms: C_1  and  C_2
REMARK    2  A    between atoms: C_3  and  C_4
REMARK    3  A    between atoms: C_13  and  C_14
REMARK                            x       y       z     vdW  Elec       q    Type
REMARK                         _______ _______ _______ _____ _____    ______ ____
ROOT
ATOM      1  C   UNL     1      -0.049   9.473  23.478  0.00  0.00    +0.000 C 
ATOM      2  C   UNL     1       0.099   9.909  22.031  0.00  0.00    +0.000 C 
ATOM      3  C   UNL     1      -0.433  11.029  21.451  0.00  0.00    +0.000 C 
ATOM      4  C   UNL     1      -0.177  11.270  19.934  0.00  0.00    +0.000 C 
ATOM      5  N   UNL     1       0.689  10.255  19.318  0.00  0.00    +0.000 N 
ATOM      6  N   UNL     1       0.989  10.243  17.998  0.00  0.00    +0.000 NA
ATOM      7  C   UNL     1       1.713   9.125  17.863  0.00  0.00    +0.000 A 
ATOM      8  C   UNL     1       1.828   8.396  19.066  0.00  0.00    +0.000 A 
ATOM      9  C   UNL     1       1.138   9.148  19.981  0.00  0.00    +0.000 A 
ATOM     10  N   UNL     1       0.850   9.000  21.284  0.00  0.00    +0.000 N 
ATOM     11  H   UNL     1       1.164   8.172  21.792  0.00  0.00    +0.000 HD
ENDROOT
BRANCH   3  12
ATOM     12  C   UNL     1      -1.219  11.924  22.256  0.00  0.00    +0.000 A 
ATOM     13  N   UNL     1      -2.514  11.940  22.508  0.00  0.00    +0.000 NA
ATOM     14  C   UNL     1      -2.768  13.103  23.177  0.00  0.00    +0.000 A 
ATOM     15  C   UNL     1      -3.994  13.672  23.541  0.00  0.00    +0.000 A 
ATOM     16  C   UNL     1      -3.985  14.906  24.200  0.00  0.00    +0.000 A 
ATOM     17  C   UNL     1      -2.778  15.532  24.527  0.00  0.00    +0.000 A 
ATOM     18  C   UNL     1      -1.543  14.969  24.177  0.00  0.00    +0.000 A 
ATOM     19  C   UNL     1      -1.587  13.765  23.472  0.00  0.00    +0.000 A 
ATOM     20  N   UNL     1      -0.616  12.988  22.896  0.00  0.00    +0.000 N 
ATOM     21  H   UNL     1       0.367  13.221  22.877  0.00  0.00    +0.000 HD
ENDBRANCH   3  12
BRANCH   4  22
ATOM     22  C   UNL     1       0.335  12.683  19.643  0.00  0.00    +0.000 A 
ATOM     23  C   UNL     1      -0.477  13.640  19.016  0.00  0.00    +0.000 A 
ATOM     24  C   UNL     1       0.031  14.902  18.692  0.00  0.00    +0.000 A 
ATOM     25  C   UNL     1       1.358  15.226  18.985  0.00  0.00    +0.000 A 
ATOM     26 CL   UNL     1       1.929  16.790  18.524  0.00  0.00    +0.000 Cl
ATOM     27  C   UNL     1       2.174  14.289  19.625  0.00  0.00    +0.000 A 
ATOM     28 CL   UNL     1       3.831  14.603  20.004  0.00  0.00    +0.000 Cl
ATOM     29  C   UNL     1       1.661  13.030  19.963  0.00  0.00    +0.000 A 
ENDBRANCH   4  22
TORSDOF 2
ENDMDL
MODEL 7
REMARK VINA RESULT:      -6.4      0.467      1.207
REMARK  Name = 
REMARK  3 active torsions:
REMARK  status: ('A' for Active; 'I' for Inactive)
REMARK    1  A    between atoms: C_1  and  C_2
REMARK    2  A    between atoms: C_3  and  C_4
REMARK    3  A    between atoms: C_13  and  C_14
REMARK                            x       y       z     vdW  Elec       q    Type
REMARK                         _______ _______ _______ _____ _____    ______ ____
ROOT
ATOM      1  C   UNL     1      -0.418   9.476  23.278  0.00  0.00    +0.000 C 
ATOM      2  C   UNL     1      -0.078   9.979  21.886  0.00  0.00    +0.000 C 
ATOM      3  C   UNL     1      -0.449  11.174  21.330  0.00  0.00    +0.000 C 
ATOM      4  C   UNL     1      -0.010  11.478  19.867  0.00  0.00    +0.000 C 
ATOM      5  N   UNL     1       0.830  10.426  19.278  0.00  0.00    +0.000 N 
ATOM      6  N   UNL     1       1.271  10.463  17.999  0.00  0.00    +0.000 NA
ATOM      7  C   UNL     1       1.910   9.294  17.866  0.00  0.00    +0.000 A 
ATOM      8  C   UNL     1       1.832   8.490  19.022  0.00  0.00    +0.000 A 
ATOM      9  C   UNL     1       1.111   9.247  19.909  0.00  0.00    +0.000 A 
ATOM     10  N   UNL     1       0.672   9.051  21.162  0.00  0.00    +0.000 N 
ATOM     11  H   UNL     1       0.859   8.171  21.644  0.00  0.00    +0.000 HD
ENDROOT
BRANCH   3  12
ATOM     12  C   UNL     1      -1.241  12.088  22.107  0.00  0.00    +0.000 A 
ATOM     13  N   UNL     1      -2.548  12.251  22.171  0.00  0.00    +0.000 NA
ATOM     14  C   UNL     1      -2.767  13.373  22.920  0.00  0.00    +0.000 A 
ATOM     15  C   UNL     1      -3.960  14.062  23.165  0.00  0.00    +0.000 A 
ATOM     16  C   UNL     1      -3.910  15.220  23.950  0.00  0.00    +0.000 A 
ATOM     17  C   UNL     1      -2.703  15.650  24.512  0.00  0.00    +0.000 A 
ATOM     18  C   UNL     1      -1.503  14.963  24.284  0.00  0.00    +0.000 A 
ATOM     19  C   UNL     1      -1.577  13.844  23.452  0.00  0.00    +0.000 A 
ATOM     20  N   UNL     1      -0.625  13.001  22.939  0.00  0.00    +0.000 N 
ATOM     21  H   UNL     1       0.369  13.103  23.087  0.00  0.00    +0.000 HD
ENDBRANCH   3  12
BRANCH   4  22
ATOM     22  C   UNL     1       0.646  12.853  19.725  0.00  0.00    +0.000 A 
ATOM     23  C   UNL     1       1.918  13.114  20.255  0.00  0.00    +0.000 A 
ATOM     24  C   UNL     1       2.470  14.397  20.180  0.00  0.00    +0.000 A 
ATOM     25  C   UNL     1       1.760  15.438  19.578  0.00  0.00    +0.000 A 
ATOM     26 CL   UNL     1       2.488  17.004  19.553  0.00  0.00    +0.000 Cl
ATOM     27  C   UNL     1       0.498  15.190  19.031  0.00  0.00    +0.000 A 
ATOM     28 CL   UNL     1      -0.454  16.426  18.289  0.00  0.00    +0.000 Cl
ATOM     29  C   UNL     1      -0.048  13.902  19.093  0.00  0.00    +0.000 A 
ENDBRANCH   4  22
TORSDOF 2
ENDMDL
MODEL 8
REMARK VINA RESULT:      -6.4      2.368      6.120
REMARK  Name = 
REMARK  3 active torsions:
REMARK  status: ('A' for Active; 'I' for Inactive)
REMARK    1  A    between atoms: C_1  and  C_2
REMARK    2  A    between atoms: C_3  and  C_4
REMARK    3  A    between atoms: C_13  and  C_14
REMARK                            x       y       z     vdW  Elec       q    Type
REMARK                         _______ _______ _______ _____ _____    ______ ____
ROOT
ATOM      1  C   UNL     1      -2.411  10.685  18.556  0.00  0.00    +0.000 C 
ATOM      2  C   UNL     1      -1.788  11.780  19.405  0.00  0.00    +0.000 C 
ATOM      3  C   UNL     1      -0.502  11.825  19.874  0.00  0.00    +0.000 C 
ATOM      4  C   UNL     1      -0.078  13.036  20.756  0.00  0.00    +0.000 C 
ATOM      5  N   UNL     1      -1.139  14.040  20.921  0.00  0.00    +0.000 N 
ATOM      6  N   UNL     1      -1.001  15.140  21.697  0.00  0.00    +0.000 NA
ATOM      7  C   UNL     1      -2.209  15.713  21.627  0.00  0.00    +0.000 A 
ATOM      8  C   UNL     1      -3.129  14.963  20.867  0.00  0.00    +0.000 A 
ATOM      9  C   UNL     1      -2.408  13.878  20.440  0.00  0.00    +0.000 A 
ATOM     10  N   UNL     1      -2.701  12.790  19.710  0.00  0.00    +0.000 N 
ATOM     11  H   UNL     1      -3.647  12.644  19.356  0.00  0.00    +0.000 HD
ENDROOT
BRANCH   3  12
ATOM     12  C   UNL     1       0.395  10.749  19.552  0.00  0.00    +0.000 A 
ATOM     13  N   UNL     1       1.082  10.504  18.453  0.00  0.00    +0.000 NA
ATOM     14  C   UNL     1       1.628   9.260  18.603  0.00  0.00    +0.000 A 
ATOM     15  C   UNL     1       2.318   8.473  17.673  0.00  0.00    +0.000 A 
ATOM     16  C   UNL     1       2.752   7.203  18.070  0.00  0.00    +0.000 A 
ATOM     17  C   UNL     1       2.540   6.752  19.377  0.00  0.00    +0.000 A 
ATOM     18  C   UNL     1       1.860   7.534  20.320  0.00  0.00    +0.000 A 
ATOM     19  C   UNL     1       1.392   8.773  19.878  0.00  0.00    +0.000 A 
ATOM     20  N   UNL     1       0.624   9.743  20.469  0.00  0.00    +0.000 N 
ATOM     21  H   UNL     1       0.228   9.673  21.395  0.00  0.00    +0.000 HD
ENDBRANCH   3  12
BRANCH   4  22
ATOM     22  C   UNL     1       1.224  13.682  20.278  0.00  0.00    +0.000 A 
ATOM     23  C   UNL     1       1.362  14.165  18.968  0.00  0.00    +0.000 A 
ATOM     24  C   UNL     1       2.583  14.686  18.528  0.00  0.00    +0.000 A 
ATOM     25  C   UNL     1       3.684  14.729  19.386  0.00  0.00    +0.000 A 
ATOM     26 CL   UNL     1       5.170  15.352  18.763  0.00  0.00    +0.000 Cl
ATOM     27  C   UNL     1       3.557  14.268  20.699  0.00  0.00    +0.000 A 
ATOM     28 CL   UNL     1       4.875  14.267  21.817  0.00  0.00    +0.000 Cl
ATOM     29  C   UNL     1       2.330  13.760  21.145  0.00  0.00    +0.000 A 
ENDBRANCH   4  22
TORSDOF 2
ENDMDL
MODEL 9
REMARK VINA RESULT:      -6.3      3.708      6.725
REMARK  Name = 
REMARK  3 active torsions:
REMARK  status: ('A' for Active; 'I' for Inactive)
REMARK    1  A    between atoms: C_1  and  C_2
REMARK    2  A    between atoms: C_3  and  C_4
REMARK    3  A    between atoms: C_13  and  C_14
REMARK                            x       y       z     vdW  Elec       q    Type
REMARK                         _______ _______ _______ _____ _____    ______ ____
ROOT
ATOM      1  C   UNL     1      -4.241  16.682  20.333  0.00  0.00    +0.000 C 
ATOM      2  C   UNL     1      -3.420  16.025  21.429  0.00  0.00    +0.000 C 
ATOM      3  C   UNL     1      -3.459  14.711  21.809  0.00  0.00    +0.000 C 
ATOM      4  C   UNL     1      -2.544  14.253  22.983  0.00  0.00    +0.000 C 
ATOM      5  N   UNL     1      -1.681  15.322  23.504  0.00  0.00    +0.000 N 
ATOM      6  N   UNL     1      -0.853  15.154  24.562  0.00  0.00    +0.000 NA
ATOM      7  C   UNL     1      -0.338  16.377  24.740  0.00  0.00    +0.000 A 
ATOM      8  C   UNL     1      -0.870  17.332  23.849  0.00  0.00    +0.000 A 
ATOM      9  C   UNL     1      -1.749  16.618  23.076  0.00  0.00    +0.000 A 
ATOM     10  N   UNL     1      -2.585  16.937  22.076  0.00  0.00    +0.000 N 
ATOM     11  H   UNL     1      -2.661  17.903  21.753  0.00  0.00    +0.000 HD
ENDROOT
BRANCH   3  12
ATOM     12  C   UNL     1      -4.352  13.814  21.127  0.00  0.00    +0.000 A 
ATOM     13  N   UNL     1      -5.527  13.334  21.487  0.00  0.00    +0.000 NA
ATOM     14  C   UNL     1      -5.861  12.385  20.563  0.00  0.00    +0.000 A 
ATOM     15  C   UNL     1      -6.928  11.479  20.562  0.00  0.00    +0.000 A 
ATOM     16  C   UNL     1      -7.031  10.575  19.500  0.00  0.00    +0.000 A 
ATOM     17  C   UNL     1      -6.116  10.607  18.443  0.00  0.00    +0.000 A 
ATOM     18  C   UNL     1      -5.049  11.515  18.425  0.00  0.00    +0.000 A 
ATOM     19  C   UNL     1      -4.942  12.368  19.526  0.00  0.00    +0.000 A 
ATOM     20  N   UNL     1      -4.004  13.297  19.896  0.00  0.00    +0.000 N 
ATOM     21  H   UNL     1      -3.158  13.491  19.380  0.00  0.00    +0.000 HD
ENDBRANCH   3  12
BRANCH   4  22
ATOM     22  C   UNL     1      -1.730  13.004  22.639  0.00  0.00    +0.000 A 
ATOM     23  C   UNL     1      -1.929  11.792  23.317  0.00  0.00    +0.000 A 
ATOM     24  C   UNL     1      -1.125  10.681  23.039  0.00  0.00    +0.000 A 
ATOM     25  C   UNL     1      -0.109  10.765  22.085  0.00  0.00    +0.000 A 
ATOM     26 CL   UNL     1       0.868   9.366  21.819  0.00  0.00    +0.000 Cl
ATOM     27  C   UNL     1       0.091  11.961  21.389  0.00  0.00    +0.000 A 
ATOM     28 CL   UNL     1       1.338  12.154  20.209  0.00  0.00    +0.000 Cl
ATOM     29  C   UNL     1      -0.724  13.069  21.657  0.00  0.00    +0.000 A 
ENDBRANCH   4  22
TORSDOF 2
ENDMDL
