MODEL 1
REMARK VINA RESULT:      -7.1      0.000      0.000
REMARK  Name = 
REMARK  6 active torsions:
REMARK  status: ('A' for Active; 'I' for Inactive)
REMARK    1  A    between atoms: C_1  and  O_2
REMARK    2  A    between atoms: O_2  and  C_3
REMARK    3  A    between atoms: C_10  and  C_11
REMARK    4  A    between atoms: C_11  and  O_13
REMARK    5  A    between atoms: O_13  and  C_14
REMARK    6  A    between atoms: C_14  and  C_15
REMARK                            x       y       z     vdW  Elec       q    Type
REMARK                         _______ _______ _______ _____ _____    ______ ____
ROOT
ATOM      1  C   UNL     1      -0.676  10.777  19.531  0.00  0.00    +0.000 A 
ATOM      2  C   UNL     1      -1.581  11.782  19.933  0.00  0.00    +0.000 A 
ATOM      3  C   UNL     1      -1.793  12.082  21.274  0.00  0.00    +0.000 A 
ATOM      4  C   UNL     1      -1.104  11.396  22.265  0.00  0.00    +0.000 A 
ATOM      5  C   UNL     1      -0.202  10.402  21.868  0.00  0.00    +0.000 A 
ATOM      6  N   UNL     1       0.583   9.605  22.661  0.00  0.00    +0.000 N 
ATOM      7  C   UNL     1       1.328   8.767  21.892  0.00  0.00    +0.000 A 
ATOM      8  C   UNL     1       1.064   9.019  20.551  0.00  0.00    +0.000 A 
ATOM      9  C   UNL     1       0.057  10.066  20.527  0.00  0.00    +0.000 A 
ATOM     10  H   UNL     1       0.602   9.644  23.673  0.00  0.00    +0.000 HD
ENDROOT
BRANCH   1  12
ATOM     11  C   UNL     1      -1.609  10.077  17.464  0.00  0.00    +0.000 C 
ATOM     12  O   UNL     1      -0.461  10.487  18.203  0.00  0.00    +0.000 OA
ENDBRANCH   1  12
BRANCH   8  13
ATOM     13  C   UNL     1       1.793   8.290  19.505  0.00  0.00    +0.000 C 
ATOM     14  O   UNL     1       1.835   8.690  18.347  0.00  0.00    +0.000 OA
BRANCH  13  15
ATOM     15  O   UNL     1       2.335   7.106  19.900  0.00  0.00    +0.000 OA
BRANCH  15  16
ATOM     16  C   UNL     1       2.620   6.155  18.858  0.00  0.00    +0.000 C 
BRANCH  16  17
ATOM     17  C   UNL     1       2.312   4.702  19.249  0.00  0.00    +0.000 C 
ATOM     18  C   UNL     1       1.507   4.614  20.564  0.00  0.00    +0.000 C 
ATOM     19  C   UNL     1       1.253   3.141  20.922  0.00  0.00    +0.000 C 
ATOM     20  N   UNL     1       1.746   2.225  19.875  0.00  0.00    +0.000 NA
ATOM     21  C   UNL     1       3.208   2.398  19.751  0.00  0.00    +0.000 C 
ATOM     22  C   UNL     1       3.588   3.851  19.420  0.00  0.00    +0.000 C 
ATOM     23  C   UNL     1       1.114   2.579  18.589  0.00  0.00    +0.000 C 
ATOM     24  C   UNL     1       1.458   4.013  18.156  0.00  0.00    +0.000 C 
ENDBRANCH  16  17
ENDBRANCH  15  16
ENDBRANCH  13  15
ENDBRANCH   8  13
TORSDOF 5
ENDMDL
MODEL 2
REMARK VINA RESULT:      -7.0      1.340      2.067
REMARK  Name = 
REMARK  6 active torsions:
REMARK  status: ('A' for Active; 'I' for Inactive)
REMARK    1  A    between atoms: C_1  and  O_2
REMARK    2  A    between atoms: O_2  and  C_3
REMARK    3  A    between atoms: C_10  and  C_11
REMARK    4  A    between atoms: C_11  and  O_13
REMARK    5  A    between atoms: O_13  and  C_14
REMARK    6  A    between atoms: C_14  and  C_15
REMARK                            x       y       z     vdW  Elec       q    Type
REMARK                         _______ _______ _______ _____ _____    ______ ____
ROOT
ATOM      1  C   UNL     1      -1.751  10.678  18.228  0.00  0.00    +0.000 A 
ATOM      2  C   UNL     1      -2.927  11.444  18.384  0.00  0.00    +0.000 A 
ATOM      3  C   UNL     1      -3.136  12.247  19.499  0.00  0.00    +0.000 A 
ATOM      4  C   UNL     1      -2.176  12.323  20.500  0.00  0.00    +0.000 A 
ATOM      5  C   UNL     1      -1.006  11.569  20.345  0.00  0.00    +0.000 A 
ATOM      6  N   UNL     1       0.068  11.490  21.193  0.00  0.00    +0.000 N 
ATOM      7  C   UNL     1       1.008  10.651  20.681  0.00  0.00    +0.000 A 
ATOM      8  C   UNL     1       0.574  10.173  19.449  0.00  0.00    +0.000 A 
ATOM      9  C   UNL     1      -0.742  10.749  19.233  0.00  0.00    +0.000 A 
ATOM     10  H   UNL     1       0.145  11.990  22.069  0.00  0.00    +0.000 HD
ENDROOT
BRANCH   1  12
ATOM     11  C   UNL     1      -2.535   9.980  16.101  0.00  0.00    +0.000 C 
ATOM     12  O   UNL     1      -1.543   9.891  17.120  0.00  0.00    +0.000 OA
ENDBRANCH   1  12
BRANCH   8  13
ATOM     13  C   UNL     1       1.440   9.295  18.652  0.00  0.00    +0.000 C 
ATOM     14  O   UNL     1       1.728   9.553  17.489  0.00  0.00    +0.000 OA
BRANCH  13  15
ATOM     15  O   UNL     1       1.818   8.143  19.270  0.00  0.00    +0.000 OA
BRANCH  15  16
ATOM     16  C   UNL     1       2.689   7.274  18.524  0.00  0.00    +0.000 C 
BRANCH  16  17
ATOM     17  C   UNL     1       2.636   5.809  18.981  0.00  0.00    +0.000 C 
ATOM     18  C   UNL     1       4.047   5.209  19.170  0.00  0.00    +0.000 C 
ATOM     19  C   UNL     1       3.935   3.737  19.598  0.00  0.00    +0.000 C 
ATOM     20  N   UNL     1       2.532   3.330  19.813  0.00  0.00    +0.000 NA
ATOM     21  C   UNL     1       1.802   3.470  18.536  0.00  0.00    +0.000 C 
ATOM     22  C   UNL     1       1.870   4.906  17.991  0.00  0.00    +0.000 C 
ATOM     23  C   UNL     1       1.918   4.225  20.813  0.00  0.00    +0.000 C 
ATOM     24  C   UNL     1       1.914   5.689  20.346  0.00  0.00    +0.000 C 
ENDBRANCH  16  17
ENDBRANCH  15  16
ENDBRANCH  13  15
ENDBRANCH   8  13
TORSDOF 5
ENDMDL
MODEL 3
REMARK VINA RESULT:      -7.0      1.797      2.713
REMARK  Name = 
REMARK  6 active torsions:
REMARK  status: ('A' for Active; 'I' for Inactive)
REMARK    1  A    between atoms: C_1  and  O_2
REMARK    2  A    between atoms: O_2  and  C_3
REMARK    3  A    between atoms: C_10  and  C_11
REMARK    4  A    between atoms: C_11  and  O_13
REMARK    5  A    between atoms: O_13  and  C_14
REMARK    6  A    between atoms: C_14  and  C_15
REMARK                            x       y       z     vdW  Elec       q    Type
REMARK                         _______ _______ _______ _____ _____    ______ ____
ROOT
ATOM      1  C   UNL     1      -0.210  10.147  20.827  0.00  0.00    +0.000 A 
ATOM      2  C   UNL     1      -0.986  11.326  20.875  0.00  0.00    +0.000 A 
ATOM      3  C   UNL     1      -0.939  12.275  19.861  0.00  0.00    +0.000 A 
ATOM      4  C   UNL     1      -0.121  12.082  18.755  0.00  0.00    +0.000 A 
ATOM      5  C   UNL     1       0.645  10.912  18.703  0.00  0.00    +0.000 A 
ATOM      6  N   UNL     1       1.512  10.511  17.719  0.00  0.00    +0.000 N 
ATOM      7  C   UNL     1       2.058   9.307  18.038  0.00  0.00    +0.000 A 
ATOM      8  C   UNL     1       1.530   8.870  19.249  0.00  0.00    +0.000 A 
ATOM      9  C   UNL     1       0.627   9.916  19.696  0.00  0.00    +0.000 A 
ATOM     10  H   UNL     1       1.708  11.039  16.878  0.00  0.00    +0.000 HD
ENDROOT
BRANCH   1  12
ATOM     11  C   UNL     1      -0.279   9.714  23.159  0.00  0.00    +0.000 C 
ATOM     12  O   UNL     1      -0.265   9.205  21.828  0.00  0.00    +0.000 OA
ENDBRANCH   1  12
BRANCH   8  13
ATOM     13  C   UNL     1       1.909   7.557  19.788  0.00  0.00    +0.000 C 
ATOM     14  O   UNL     1       1.696   7.252  20.956  0.00  0.00    +0.000 OA
BRANCH  13  15
ATOM     15  O   UNL     1       2.584   6.753  18.923  0.00  0.00    +0.000 OA
BRANCH  15  16
ATOM     16  C   UNL     1       3.434   5.753  19.513  0.00  0.00    +0.000 C 
BRANCH  16  17
ATOM     17  C   UNL     1       2.839   4.337  19.471  0.00  0.00    +0.000 C 
ATOM     18  C   UNL     1       1.734   4.204  18.400  0.00  0.00    +0.000 C 
ATOM     19  C   UNL     1       1.155   2.780  18.422  0.00  0.00    +0.000 C 
ATOM     20  N   UNL     1       1.872   1.907  19.373  0.00  0.00    +0.000 NA
ATOM     21  C   UNL     1       1.713   2.464  20.732  0.00  0.00    +0.000 C 
ATOM     22  C   UNL     1       2.235   3.907  20.825  0.00  0.00    +0.000 C 
ATOM     23  C   UNL     1       3.307   1.895  19.028  0.00  0.00    +0.000 C 
ATOM     24  C   UNL     1       3.931   3.297  19.118  0.00  0.00    +0.000 C 
ENDBRANCH  16  17
ENDBRANCH  15  16
ENDBRANCH  13  15
ENDBRANCH   8  13
TORSDOF 5
ENDMDL
MODEL 4
REMARK VINA RESULT:      -7.0      2.037      7.198
REMARK  Name = 
REMARK  6 active torsions:
REMARK  status: ('A' for Active; 'I' for Inactive)
REMARK    1  A    between atoms: C_1  and  O_2
REMARK    2  A    between atoms: O_2  and  C_3
REMARK    3  A    between atoms: C_10  and  C_11
REMARK    4  A    between atoms: C_11  and  O_13
REMARK    5  A    between atoms: O_13  and  C_14
REMARK    6  A    between atoms: C_14  and  C_15
REMARK                            x       y       z     vdW  Elec       q    Type
REMARK                         _______ _______ _______ _____ _____    ______ ____
ROOT
ATOM      1  C   UNL     1       2.913   3.625  17.825  0.00  0.00    +0.000 A 
ATOM      2  C   UNL     1       2.705   2.250  18.072  0.00  0.00    +0.000 A 
ATOM      3  C   UNL     1       2.122   1.797  19.250  0.00  0.00    +0.000 A 
ATOM      4  C   UNL     1       1.717   2.699  20.225  0.00  0.00    +0.000 A 
ATOM      5  C   UNL     1       1.917   4.063  19.981  0.00  0.00    +0.000 A 
ATOM      6  N   UNL     1       1.597   5.123  20.788  0.00  0.00    +0.000 N 
ATOM      7  C   UNL     1       1.948   6.292  20.188  0.00  0.00    +0.000 A 
ATOM      8  C   UNL     1       2.491   6.020  18.937  0.00  0.00    +0.000 A 
ATOM      9  C   UNL     1       2.492   4.573  18.803  0.00  0.00    +0.000 A 
ATOM     10  H   UNL     1       1.160   5.040  21.698  0.00  0.00    +0.000 HD
ENDROOT
BRANCH   1  12
ATOM     11  C   UNL     1       4.900   3.957  16.572  0.00  0.00    +0.000 C 
ATOM     12  O   UNL     1       3.482   4.071  16.655  0.00  0.00    +0.000 OA
ENDBRANCH   1  12
BRANCH   8  13
ATOM     13  C   UNL     1       2.891   7.121  18.051  0.00  0.00    +0.000 C 
ATOM     14  O   UNL     1       4.051   7.265  17.682  0.00  0.00    +0.000 OA
BRANCH  13  15
ATOM     15  O   UNL     1       1.903   8.007  17.751  0.00  0.00    +0.000 OA
BRANCH  15  16
ATOM     16  C   UNL     1       2.187   9.393  18.013  0.00  0.00    +0.000 C 
BRANCH  16  17
ATOM     17  C   UNL     1       1.033  10.140  18.698  0.00  0.00    +0.000 C 
ATOM     18  C   UNL     1       1.266  11.666  18.728  0.00  0.00    +0.000 C 
ATOM     19  C   UNL     1       0.099  12.358  19.449  0.00  0.00    +0.000 C 
ATOM     20  N   UNL     1      -0.965  11.404  19.819  0.00  0.00    +0.000 NA
ATOM     21  C   UNL     1      -0.401  10.411  20.756  0.00  0.00    +0.000 C 
ATOM     22  C   UNL     1       0.802   9.670  20.151  0.00  0.00    +0.000 C 
ATOM     23  C   UNL     1      -1.428  10.703  18.604  0.00  0.00    +0.000 C 
ATOM     24  C   UNL     1      -0.296   9.906  17.937  0.00  0.00    +0.000 C 
ENDBRANCH  16  17
ENDBRANCH  15  16
ENDBRANCH  13  15
ENDBRANCH   8  13
TORSDOF 5
ENDMDL
MODEL 5
REMARK VINA RESULT:      -6.9      2.044      7.390
REMARK  Name = 
REMARK  6 active torsions:
REMARK  status: ('A' for Active; 'I' for Inactive)
REMARK    1  A    between atoms: C_1  and  O_2
REMARK    2  A    between atoms: O_2  and  C_3
REMARK    3  A    between atoms: C_10  and  C_11
REMARK    4  A    between atoms: C_11  and  O_13
REMARK    5  A    between atoms: O_13  and  C_14
REMARK    6  A    between atoms: C_14  and  C_15
REMARK                            x       y       z     vdW  Elec       q    Type
REMARK                         _______ _______ _______ _____ _____    ______ ____
ROOT
ATOM      1  C   UNL     1       3.565   3.728  17.626  0.00  0.00    +0.000 A 
ATOM      2  C   UNL     1       3.584   2.326  17.792  0.00  0.00    +0.000 A 
ATOM      3  C   UNL     1       3.046   1.715  18.919  0.00  0.00    +0.000 A 
ATOM      4  C   UNL     1       2.459   2.478  19.919  0.00  0.00    +0.000 A 
ATOM      5  C   UNL     1       2.433   3.868  19.754  0.00  0.00    +0.000 A 
ATOM      6  N   UNL     1       1.911   4.812  20.600  0.00  0.00    +0.000 N 
ATOM      7  C   UNL     1       2.079   6.055  20.076  0.00  0.00    +0.000 A 
ATOM      8  C   UNL     1       2.704   5.951  18.839  0.00  0.00    +0.000 A 
ATOM      9  C   UNL     1       2.955   4.535  18.631  0.00  0.00    +0.000 A 
ATOM     10  H   UNL     1       1.462   4.604  21.483  0.00  0.00    +0.000 HD
ENDROOT
BRANCH   1  12
ATOM     11  C   UNL     1       5.514   4.375  16.437  0.00  0.00    +0.000 C 
ATOM     12  O   UNL     1       4.091   4.331  16.507  0.00  0.00    +0.000 OA
ENDBRANCH   1  12
BRANCH   8  13
ATOM     13  C   UNL     1       2.943   7.153  18.029  0.00  0.00    +0.000 C 
ATOM     14  O   UNL     1       4.064   7.457  17.639  0.00  0.00    +0.000 OA
BRANCH  13  15
ATOM     15  O   UNL     1       1.850   7.937  17.826  0.00  0.00    +0.000 OA
BRANCH  15  16
ATOM     16  C   UNL     1       2.062   9.358  17.898  0.00  0.00    +0.000 C 
BRANCH  16  17
ATOM     17  C   UNL     1       0.968  10.105  18.676  0.00  0.00    +0.000 C 
ATOM     18  C   UNL     1      -0.414   9.978  18.001  0.00  0.00    +0.000 C 
ATOM     19  C   UNL     1      -1.462  10.766  18.803  0.00  0.00    +0.000 C 
ATOM     20  N   UNL     1      -0.895  11.336  20.041  0.00  0.00    +0.000 NA
ATOM     21  C   UNL     1       0.177  12.283  19.674  0.00  0.00    +0.000 C 
ATOM     22  C   UNL     1       1.277  11.609  18.837  0.00  0.00    +0.000 C 
ATOM     23  C   UNL     1      -0.312  10.247  20.850  0.00  0.00    +0.000 C 
ATOM     24  C   UNL     1       0.822   9.524  20.105  0.00  0.00    +0.000 C 
ENDBRANCH  16  17
ENDBRANCH  15  16
ENDBRANCH  13  15
ENDBRANCH   8  13
TORSDOF 5
ENDMDL
MODEL 6
REMARK VINA RESULT:      -6.9      0.663      1.452
REMARK  Name = 
REMARK  6 active torsions:
REMARK  status: ('A' for Active; 'I' for Inactive)
REMARK    1  A    between atoms: C_1  and  O_2
REMARK    2  A    between atoms: O_2  and  C_3
REMARK    3  A    between atoms: C_10  and  C_11
REMARK    4  A    between atoms: C_11  and  O_13
REMARK    5  A    between atoms: O_13  and  C_14
REMARK    6  A    between atoms: C_14  and  C_15
REMARK                            x       y       z     vdW  Elec       q    Type
REMARK                         _______ _______ _______ _____ _____    ______ ____
ROOT
ATOM      1  C   UNL     1      -0.912  11.132  20.153  0.00  0.00    +0.000 A 
ATOM      2  C   UNL     1      -1.798  12.094  20.684  0.00  0.00    +0.000 A 
ATOM      3  C   UNL     1      -2.004  12.225  22.053  0.00  0.00    +0.000 A 
ATOM      4  C   UNL     1      -1.327  11.405  22.946  0.00  0.00    +0.000 A 
ATOM      5  C   UNL     1      -0.443  10.454  22.422  0.00  0.00    +0.000 A 
ATOM      6  N   UNL     1       0.328   9.549  23.105  0.00  0.00    +0.000 N 
ATOM      7  C   UNL     1       1.056   8.802  22.233  0.00  0.00    +0.000 A 
ATOM      8  C   UNL     1       0.795   9.228  20.935  0.00  0.00    +0.000 A 
ATOM      9  C   UNL     1      -0.193  10.288  21.048  0.00  0.00    +0.000 A 
ATOM     10  H   UNL     1       0.348   9.458  24.113  0.00  0.00    +0.000 HD
ENDROOT
BRANCH   1  12
ATOM     11  C   UNL     1      -1.614  11.723  17.965  0.00  0.00    +0.000 C 
ATOM     12  O   UNL     1      -0.704  11.010  18.799  0.00  0.00    +0.000 OA
ENDBRANCH   1  12
BRANCH   8  13
ATOM     13  C   UNL     1       1.510   8.625  19.803  0.00  0.00    +0.000 C 
ATOM     14  O   UNL     1       1.461   9.106  18.677  0.00  0.00    +0.000 OA
BRANCH  13  15
ATOM     15  O   UNL     1       2.148   7.456  20.082  0.00  0.00    +0.000 OA
BRANCH  15  16
ATOM     16  C   UNL     1       2.451   6.610  18.957  0.00  0.00    +0.000 C 
BRANCH  16  17
ATOM     17  C   UNL     1       2.279   5.112  19.250  0.00  0.00    +0.000 C 
ATOM     18  C   UNL     1       1.669   4.353  18.052  0.00  0.00    +0.000 C 
ATOM     19  C   UNL     1       1.492   2.869  18.410  0.00  0.00    +0.000 C 
ATOM     20  N   UNL     1       2.041   2.553  19.743  0.00  0.00    +0.000 NA
ATOM     21  C   UNL     1       1.301   3.337  20.753  0.00  0.00    +0.000 C 
ATOM     22  C   UNL     1       1.383   4.847  20.480  0.00  0.00    +0.000 C 
ATOM     23  C   UNL     1       3.464   2.946  19.784  0.00  0.00    +0.000 C 
ATOM     24  C   UNL     1       3.649   4.453  19.546  0.00  0.00    +0.000 C 
ENDBRANCH  16  17
ENDBRANCH  15  16
ENDBRANCH  13  15
ENDBRANCH   8  13
TORSDOF 5
ENDMDL
MODEL 7
REMARK VINA RESULT:      -6.9      2.043      7.387
REMARK  Name = 
REMARK  6 active torsions:
REMARK  status: ('A' for Active; 'I' for Inactive)
REMARK    1  A    between atoms: C_1  and  O_2
REMARK    2  A    between atoms: O_2  and  C_3
REMARK    3  A    between atoms: C_10  and  C_11
REMARK    4  A    between atoms: C_11  and  O_13
REMARK    5  A    between atoms: O_13  and  C_14
REMARK    6  A    between atoms: C_14  and  C_15
REMARK                            x       y       z     vdW  Elec       q    Type
REMARK                         _______ _______ _______ _____ _____    ______ ____
ROOT
ATOM      1  C   UNL     1       3.548   3.778  17.615  0.00  0.00    +0.000 A 
ATOM      2  C   UNL     1       3.578   2.377  17.784  0.00  0.00    +0.000 A 
ATOM      3  C   UNL     1       3.057   1.765  18.919  0.00  0.00    +0.000 A 
ATOM      4  C   UNL     1       2.479   2.527  19.925  0.00  0.00    +0.000 A 
ATOM      5  C   UNL     1       2.443   3.916  19.757  0.00  0.00    +0.000 A 
ATOM      6  N   UNL     1       1.926   4.859  20.608  0.00  0.00    +0.000 N 
ATOM      7  C   UNL     1       2.080   6.102  20.080  0.00  0.00    +0.000 A 
ATOM      8  C   UNL     1       2.690   5.998  18.834  0.00  0.00    +0.000 A 
ATOM      9  C   UNL     1       2.947   4.584  18.626  0.00  0.00    +0.000 A 
ATOM     10  H   UNL     1       1.489   4.650  21.497  0.00  0.00    +0.000 HD
ENDROOT
BRANCH   1  12
ATOM     11  C   UNL     1       5.478   4.423  16.395  0.00  0.00    +0.000 C 
ATOM     12  O   UNL     1       4.056   4.381  16.488  0.00  0.00    +0.000 OA
ENDBRANCH   1  12
BRANCH   8  13
ATOM     13  C   UNL     1       2.912   7.200  18.018  0.00  0.00    +0.000 C 
ATOM     14  O   UNL     1       4.026   7.510  17.613  0.00  0.00    +0.000 OA
BRANCH  13  15
ATOM     15  O   UNL     1       1.811   7.977  17.828  0.00  0.00    +0.000 OA
BRANCH  15  16
ATOM     16  C   UNL     1       2.017   9.400  17.891  0.00  0.00    +0.000 C 
BRANCH  16  17
ATOM     17  C   UNL     1       0.954  10.140  18.716  0.00  0.00    +0.000 C 
ATOM     18  C   UNL     1       0.836   9.575  20.149  0.00  0.00    +0.000 C 
ATOM     19  C   UNL     1      -0.259  10.330  20.919  0.00  0.00    +0.000 C 
ATOM     20  N   UNL     1      -0.821  11.444  20.129  0.00  0.00    +0.000 NA
ATOM     21  C   UNL     1      -1.448  10.888  18.912  0.00  0.00    +0.000 C 
ATOM     22  C   UNL     1      -0.447  10.080  18.070  0.00  0.00    +0.000 C 
ATOM     23  C   UNL     1       0.273  12.351  19.730  0.00  0.00    +0.000 C 
ATOM     24  C   UNL     1       1.318  11.639  18.856  0.00  0.00    +0.000 C 
ENDBRANCH  16  17
ENDBRANCH  15  16
ENDBRANCH  13  15
ENDBRANCH   8  13
TORSDOF 5
ENDMDL
MODEL 8
REMARK VINA RESULT:      -6.9      1.911      2.748
REMARK  Name = 
REMARK  6 active torsions:
REMARK  status: ('A' for Active; 'I' for Inactive)
REMARK    1  A    between atoms: C_1  and  O_2
REMARK    2  A    between atoms: O_2  and  C_3
REMARK    3  A    between atoms: C_10  and  C_11
REMARK    4  A    between atoms: C_11  and  O_13
REMARK    5  A    between atoms: O_13  and  C_14
REMARK    6  A    between atoms: C_14  and  C_15
REMARK                            x       y       z     vdW  Elec       q    Type
REMARK                         _______ _______ _______ _____ _____    ______ ____
ROOT
ATOM      1  C   UNL     1       0.098  10.175  20.947  0.00  0.00    +0.000 A 
ATOM      2  C   UNL     1      -0.625  11.381  21.066  0.00  0.00    +0.000 A 
ATOM      3  C   UNL     1      -0.632  12.334  20.052  0.00  0.00    +0.000 A 
ATOM      4  C   UNL     1       0.076  12.115  18.878  0.00  0.00    +0.000 A 
ATOM      5  C   UNL     1       0.789  10.917  18.756  0.00  0.00    +0.000 A 
ATOM      6  N   UNL     1       1.550  10.489  17.699  0.00  0.00    +0.000 N 
ATOM      7  C   UNL     1       2.076   9.264  17.967  0.00  0.00    +0.000 A 
ATOM      8  C   UNL     1       1.642   8.841  19.218  0.00  0.00    +0.000 A 
ATOM      9  C   UNL     1       0.822   9.918  19.746  0.00  0.00    +0.000 A 
ATOM     10  H   UNL     1       1.691  11.013  16.845  0.00  0.00    +0.000 HD
ENDROOT
BRANCH   1  12
ATOM     11  C   UNL     1      -0.318   9.688  23.232  0.00  0.00    +0.000 C 
ATOM     12  O   UNL     1       0.097   9.231  21.947  0.00  0.00    +0.000 OA
ENDBRANCH   1  12
BRANCH   8  13
ATOM     13  C   UNL     1       2.017   7.513  19.720  0.00  0.00    +0.000 C 
ATOM     14  O   UNL     1       1.632   7.100  20.807  0.00  0.00    +0.000 OA
BRANCH  13  15
ATOM     15  O   UNL     1       2.886   6.824  18.931  0.00  0.00    +0.000 OA
BRANCH  15  16
ATOM     16  C   UNL     1       2.311   5.828  18.066  0.00  0.00    +0.000 C 
BRANCH  16  17
ATOM     17  C   UNL     1       2.596   4.386  18.514  0.00  0.00    +0.000 C 
ATOM     18  C   UNL     1       3.887   4.284  19.354  0.00  0.00    +0.000 C 
ATOM     19  C   UNL     1       4.139   2.820  19.748  0.00  0.00    +0.000 C 
ATOM     20  N   UNL     1       3.040   1.935  19.315  0.00  0.00    +0.000 NA
ATOM     21  C   UNL     1       2.954   1.981  17.840  0.00  0.00    +0.000 C 
ATOM     22  C   UNL     1       2.731   3.412  17.324  0.00  0.00    +0.000 C 
ATOM     23  C   UNL     1       1.770   2.430  19.882  0.00  0.00    +0.000 C 
ATOM     24  C   UNL     1       1.443   3.852  19.400  0.00  0.00    +0.000 C 
ENDBRANCH  16  17
ENDBRANCH  15  16
ENDBRANCH  13  15
ENDBRANCH   8  13
TORSDOF 5
ENDMDL
MODEL 9
REMARK VINA RESULT:      -6.8      1.203      1.981
REMARK  Name = 
REMARK  6 active torsions:
REMARK  status: ('A' for Active; 'I' for Inactive)
REMARK    1  A    between atoms: C_1  and  O_2
REMARK    2  A    between atoms: O_2  and  C_3
REMARK    3  A    between atoms: C_10  and  C_11
REMARK    4  A    between atoms: C_11  and  O_13
REMARK    5  A    between atoms: O_13  and  C_14
REMARK    6  A    between atoms: C_14  and  C_15
REMARK                            x       y       z     vdW  Elec       q    Type
REMARK                         _______ _______ _______ _____ _____    ______ ____
ROOT
ATOM      1  C   UNL     1      -0.186  10.607  19.774  0.00  0.00    +0.000 A 
ATOM      2  C   UNL     1      -0.907  11.355  20.730  0.00  0.00    +0.000 A 
ATOM      3  C   UNL     1      -0.862  11.048  22.086  0.00  0.00    +0.000 A 
ATOM      4  C   UNL     1      -0.089   9.988  22.540  0.00  0.00    +0.000 A 
ATOM      5  C   UNL     1       0.632   9.249  21.595  0.00  0.00    +0.000 A 
ATOM      6  N   UNL     1       1.455   8.173  21.809  0.00  0.00    +0.000 N 
ATOM      7  C   UNL     1       1.974   7.738  20.631  0.00  0.00    +0.000 A 
ATOM      8  C   UNL     1       1.516   8.552  19.600  0.00  0.00    +0.000 A 
ATOM      9  C   UNL     1       0.628   9.523  20.215  0.00  0.00    +0.000 A 
ATOM     10  H   UNL     1       1.646   7.770  22.718  0.00  0.00    +0.000 HD
ENDROOT
BRANCH   1  12
ATOM     11  C   UNL     1      -1.492  11.333  17.932  0.00  0.00    +0.000 C 
ATOM     12  O   UNL     1      -0.226  10.917  18.435  0.00  0.00    +0.000 OA
ENDBRANCH   1  12
BRANCH   8  13
ATOM     13  C   UNL     1       1.985   8.335  18.224  0.00  0.00    +0.000 C 
ATOM     14  O   UNL     1       2.308   9.267  17.497  0.00  0.00    +0.000 OA
BRANCH  13  15
ATOM     15  O   UNL     1       1.947   7.042  17.801  0.00  0.00    +0.000 OA
BRANCH  15  16
ATOM     16  C   UNL     1       3.184   6.311  17.873  0.00  0.00    +0.000 C 
BRANCH  16  17
ATOM     17  C   UNL     1       3.002   4.826  18.220  0.00  0.00    +0.000 C 
ATOM     18  C   UNL     1       3.875   3.912  17.334  0.00  0.00    +0.000 C 
ATOM     19  C   UNL     1       3.632   2.439  17.702  0.00  0.00    +0.000 C 
ATOM     20  N   UNL     1       2.723   2.303  18.857  0.00  0.00    +0.000 NA
ATOM     21  C   UNL     1       1.413   2.885  18.496  0.00  0.00    +0.000 C 
ATOM     22  C   UNL     1       1.537   4.359  18.077  0.00  0.00    +0.000 C 
ATOM     23  C   UNL     1       3.278   3.055  20.000  0.00  0.00    +0.000 C 
ATOM     24  C   UNL     1       3.416   4.553  19.687  0.00  0.00    +0.000 C 
ENDBRANCH  16  17
ENDBRANCH  15  16
ENDBRANCH  13  15
ENDBRANCH   8  13
TORSDOF 5
ENDMDL
