MODEL 1
REMARK VINA RESULT:      -7.2      0.000      0.000
REMARK  Name = 
REMARK  2 active torsions:
REMARK  status: ('A' for Active; 'I' for Inactive)
REMARK    1  A    between atoms: N_8  and  C_9
REMARK    2  A    between atoms: C_9  and  C_10
REMARK                            x       y       z     vdW  Elec       q    Type
REMARK                         _______ _______ _______ _____ _____    ______ ____
ROOT
ATOM      1  O   UNL     1       7.493   5.136  13.495  0.00  0.00    +0.000 OA
ATOM      2  N   UNL     1       6.738   4.604  14.324  0.00  0.00    +0.000 N 
ATOM      3  O   UNL     1       5.962   3.667  14.085  0.00  0.00    +0.000 OA
ATOM      4  C   UNL     1       6.777   5.129  15.684  0.00  0.00    +0.000 A 
ATOM      5  N   UNL     1       7.517   6.230  16.037  0.00  0.00    +0.000 NA
ATOM      6  C   UNL     1       7.286   6.330  17.327  0.00  0.00    +0.000 A 
ATOM      7 BR   UNL     1       8.041   7.664  18.397  0.00  0.00    +0.000 Br
ATOM      8  N   UNL     1       6.446   5.324  17.727  0.00  0.00    +0.000 N 
ATOM      9  N   UNL     1       6.107   4.529  16.683  0.00  0.00    +0.000 NA
ENDROOT
BRANCH   8  10
ATOM     10  C   UNL     1       5.976   5.014  19.066  0.00  0.00    +0.000 C 
BRANCH  10  11
ATOM     11  C   UNL     1       4.605   4.380  19.046  0.00  0.00    +0.000 A 
ATOM     12  C   UNL     1       4.440   3.025  19.378  0.00  0.00    +0.000 A 
ATOM     13  C   UNL     1       3.178   2.429  19.325  0.00  0.00    +0.000 A 
ATOM     14  C   UNL     1       2.071   3.187  18.952  0.00  0.00    +0.000 A 
ATOM     15 CL   UNL     1       0.520   2.448  18.860  0.00  0.00    +0.000 Cl
ATOM     16  C   UNL     1       2.212   4.539  18.649  0.00  0.00    +0.000 A 
ATOM     17  C   UNL     1       3.475   5.136  18.700  0.00  0.00    +0.000 A 
ENDBRANCH  10  11
ENDBRANCH   8  10
TORSDOF 2
ENDMDL
MODEL 2
REMARK VINA RESULT:      -7.2      0.400      1.234
REMARK  Name = 
REMARK  2 active torsions:
REMARK  status: ('A' for Active; 'I' for Inactive)
REMARK    1  A    between atoms: N_8  and  C_9
REMARK    2  A    between atoms: C_9  and  C_10
REMARK                            x       y       z     vdW  Elec       q    Type
REMARK                         _______ _______ _______ _____ _____    ______ ____
ROOT
ATOM      1  O   UNL     1       7.508   5.174  13.234  0.00  0.00    +0.000 OA
ATOM      2  N   UNL     1       6.790   4.533  14.017  0.00  0.00    +0.000 N 
ATOM      3  O   UNL     1       6.080   3.566  13.705  0.00  0.00    +0.000 OA
ATOM      4  C   UNL     1       6.793   4.957  15.412  0.00  0.00    +0.000 A 
ATOM      5  N   UNL     1       7.458   6.076  15.850  0.00  0.00    +0.000 NA
ATOM      6  C   UNL     1       7.220   6.064  17.143  0.00  0.00    +0.000 A 
ATOM      7 BR   UNL     1       7.882   7.363  18.312  0.00  0.00    +0.000 Br
ATOM      8  N   UNL     1       6.450   4.977  17.462  0.00  0.00    +0.000 N 
ATOM      9  N   UNL     1       6.165   4.241  16.361  0.00  0.00    +0.000 NA
ENDROOT
BRANCH   8  10
ATOM     10  C   UNL     1       6.001   4.538  18.773  0.00  0.00    +0.000 C 
BRANCH  10  11
ATOM     11  C   UNL     1       4.594   3.991  18.729  0.00  0.00    +0.000 A 
ATOM     12  C   UNL     1       3.539   4.773  18.231  0.00  0.00    +0.000 A 
ATOM     13  C   UNL     1       2.232   4.281  18.222  0.00  0.00    +0.000 A 
ATOM     14  C   UNL     1       1.973   2.998  18.699  0.00  0.00    +0.000 A 
ATOM     15 CL   UNL     1       0.359   2.401  18.714  0.00  0.00    +0.000 Cl
ATOM     16  C   UNL     1       3.012   2.198  19.167  0.00  0.00    +0.000 A 
ATOM     17  C   UNL     1       4.320   2.691  19.179  0.00  0.00    +0.000 A 
ENDBRANCH  10  11
ENDBRANCH   8  10
TORSDOF 2
ENDMDL
MODEL 3
REMARK VINA RESULT:      -6.9      3.566      4.344
REMARK  Name = 
REMARK  2 active torsions:
REMARK  status: ('A' for Active; 'I' for Inactive)
REMARK    1  A    between atoms: N_8  and  C_9
REMARK    2  A    between atoms: C_9  and  C_10
REMARK                            x       y       z     vdW  Elec       q    Type
REMARK                         _______ _______ _______ _____ _____    ______ ____
ROOT
ATOM      1  O   UNL     1       8.273   4.266  17.463  0.00  0.00    +0.000 OA
ATOM      2  N   UNL     1       7.337   4.990  17.091  0.00  0.00    +0.000 N 
ATOM      3  O   UNL     1       7.431   5.910  16.265  0.00  0.00    +0.000 OA
ATOM      4  C   UNL     1       6.027   4.728  17.675  0.00  0.00    +0.000 A 
ATOM      5  N   UNL     1       5.827   3.807  18.675  0.00  0.00    +0.000 NA
ATOM      6  C   UNL     1       4.530   3.877  18.874  0.00  0.00    +0.000 A 
ATOM      7 BR   UNL     1       3.637   2.831  20.139  0.00  0.00    +0.000 Br
ATOM      8  N   UNL     1       3.979   4.799  18.023  0.00  0.00    +0.000 N 
ATOM      9  N   UNL     1       4.926   5.359  17.232  0.00  0.00    +0.000 NA
ENDROOT
BRANCH   8  10
ATOM     10  C   UNL     1       2.580   5.156  17.856  0.00  0.00    +0.000 C 
BRANCH  10  11
ATOM     11  C   UNL     1       2.224   6.402  18.631  0.00  0.00    +0.000 A 
ATOM     12  C   UNL     1       1.960   6.335  20.009  0.00  0.00    +0.000 A 
ATOM     13  C   UNL     1       1.596   7.482  20.719  0.00  0.00    +0.000 A 
ATOM     14  C   UNL     1       1.506   8.705  20.059  0.00  0.00    +0.000 A 
ATOM     15 CL   UNL     1       1.032  10.112  20.927  0.00  0.00    +0.000 Cl
ATOM     16  C   UNL     1       1.794   8.793  18.699  0.00  0.00    +0.000 A 
ATOM     17  C   UNL     1       2.156   7.647  17.987  0.00  0.00    +0.000 A 
ENDBRANCH  10  11
ENDBRANCH   8  10
TORSDOF 2
ENDMDL
MODEL 4
REMARK VINA RESULT:      -6.8      1.967      2.212
REMARK  Name = 
REMARK  2 active torsions:
REMARK  status: ('A' for Active; 'I' for Inactive)
REMARK    1  A    between atoms: N_8  and  C_9
REMARK    2  A    between atoms: C_9  and  C_10
REMARK                            x       y       z     vdW  Elec       q    Type
REMARK                         _______ _______ _______ _____ _____    ______ ____
ROOT
ATOM      1  O   UNL     1       8.383   5.518  13.273  0.00  0.00    +0.000 OA
ATOM      2  N   UNL     1       7.317   4.911  13.461  0.00  0.00    +0.000 N 
ATOM      3  O   UNL     1       6.636   4.374  12.575  0.00  0.00    +0.000 OA
ATOM      4  C   UNL     1       6.839   4.826  14.835  0.00  0.00    +0.000 A 
ATOM      5  N   UNL     1       7.454   5.473  15.880  0.00  0.00    +0.000 NA
ATOM      6  C   UNL     1       6.726   5.108  16.911  0.00  0.00    +0.000 A 
ATOM      7 BR   UNL     1       7.079   5.673  18.657  0.00  0.00    +0.000 Br
ATOM      8  N   UNL     1       5.721   4.273  16.498  0.00  0.00    +0.000 N 
ATOM      9  N   UNL     1       5.775   4.071  15.160  0.00  0.00    +0.000 NA
ENDROOT
BRANCH   8  10
ATOM     10  C   UNL     1       4.723   3.589  17.303  0.00  0.00    +0.000 C 
BRANCH  10  11
ATOM     11  C   UNL     1       3.929   4.554  18.151  0.00  0.00    +0.000 A 
ATOM     12  C   UNL     1       3.701   4.289  19.512  0.00  0.00    +0.000 A 
ATOM     13  C   UNL     1       2.938   5.164  20.288  0.00  0.00    +0.000 A 
ATOM     14  C   UNL     1       2.408   6.316  19.713  0.00  0.00    +0.000 A 
ATOM     15 CL   UNL     1       1.445   7.381  20.661  0.00  0.00    +0.000 Cl
ATOM     16  C   UNL     1       2.651   6.610  18.373  0.00  0.00    +0.000 A 
ATOM     17  C   UNL     1       3.413   5.734  17.595  0.00  0.00    +0.000 A 
ENDBRANCH  10  11
ENDBRANCH   8  10
TORSDOF 2
ENDMDL
MODEL 5
REMARK VINA RESULT:      -6.8      3.972      4.862
REMARK  Name = 
REMARK  2 active torsions:
REMARK  status: ('A' for Active; 'I' for Inactive)
REMARK    1  A    between atoms: N_8  and  C_9
REMARK    2  A    between atoms: C_9  and  C_10
REMARK                            x       y       z     vdW  Elec       q    Type
REMARK                         _______ _______ _______ _____ _____    ______ ____
ROOT
ATOM      1  O   UNL     1       8.479   4.897  19.135  0.00  0.00    +0.000 OA
ATOM      2  N   UNL     1       7.636   5.694  18.696  0.00  0.00    +0.000 N 
ATOM      3  O   UNL     1       7.888   6.819  18.239  0.00  0.00    +0.000 OA
ATOM      4  C   UNL     1       6.244   5.263  18.719  0.00  0.00    +0.000 A 
ATOM      5  N   UNL     1       5.838   4.085  19.298  0.00  0.00    +0.000 NA
ATOM      6  C   UNL     1       4.543   4.085  19.072  0.00  0.00    +0.000 A 
ATOM      7 BR   UNL     1       3.413   2.704  19.627  0.00  0.00    +0.000 Br
ATOM      8  N   UNL     1       4.193   5.216  18.381  0.00  0.00    +0.000 N 
ATOM      9  N   UNL     1       5.277   5.992  18.136  0.00  0.00    +0.000 NA
ENDROOT
BRANCH   8  10
ATOM     10  C   UNL     1       2.887   5.599  17.872  0.00  0.00    +0.000 C 
BRANCH  10  11
ATOM     11  C   UNL     1       2.368   6.847  18.544  0.00  0.00    +0.000 A 
ATOM     12  C   UNL     1       2.153   6.875  19.932  0.00  0.00    +0.000 A 
ATOM     13  C   UNL     1       1.639   8.018  20.549  0.00  0.00    +0.000 A 
ATOM     14  C   UNL     1       1.351   9.145  19.785  0.00  0.00    +0.000 A 
ATOM     15 CL   UNL     1       0.693  10.545  20.540  0.00  0.00    +0.000 Cl
ATOM     16  C   UNL     1       1.587   9.145  18.412  0.00  0.00    +0.000 A 
ATOM     17  C   UNL     1       2.098   8.001  17.793  0.00  0.00    +0.000 A 
ENDBRANCH  10  11
ENDBRANCH   8  10
TORSDOF 2
ENDMDL
MODEL 6
REMARK VINA RESULT:      -6.8      1.969      2.496
REMARK  Name = 
REMARK  2 active torsions:
REMARK  status: ('A' for Active; 'I' for Inactive)
REMARK    1  A    between atoms: N_8  and  C_9
REMARK    2  A    between atoms: C_9  and  C_10
REMARK                            x       y       z     vdW  Elec       q    Type
REMARK                         _______ _______ _______ _____ _____    ______ ____
ROOT
ATOM      1  O   UNL     1       7.948   5.215  13.730  0.00  0.00    +0.000 OA
ATOM      2  N   UNL     1       6.866   4.708  14.063  0.00  0.00    +0.000 N 
ATOM      3  O   UNL     1       6.041   4.208  13.283  0.00  0.00    +0.000 OA
ATOM      4  C   UNL     1       6.550   4.701  15.486  0.00  0.00    +0.000 A 
ATOM      5  N   UNL     1       7.337   5.318  16.428  0.00  0.00    +0.000 NA
ATOM      6  C   UNL     1       6.710   5.046  17.550  0.00  0.00    +0.000 A 
ATOM      7 BR   UNL     1       7.316   5.623  19.221  0.00  0.00    +0.000 Br
ATOM      8  N   UNL     1       5.597   4.290  17.288  0.00  0.00    +0.000 N 
ATOM      9  N   UNL     1       5.474   4.049  15.960  0.00  0.00    +0.000 NA
ENDROOT
BRANCH   8  10
ATOM     10  C   UNL     1       4.649   3.716  18.228  0.00  0.00    +0.000 C 
BRANCH  10  11
ATOM     11  C   UNL     1       3.753   4.770  18.834  0.00  0.00    +0.000 A 
ATOM     12  C   UNL     1       3.538   5.991  18.173  0.00  0.00    +0.000 A 
ATOM     13  C   UNL     1       2.738   6.979  18.750  0.00  0.00    +0.000 A 
ATOM     14  C   UNL     1       2.136   6.749  19.985  0.00  0.00    +0.000 A 
ATOM     15 CL   UNL     1       1.172   7.976  20.709  0.00  0.00    +0.000 Cl
ATOM     16  C   UNL     1       2.315   5.532  20.639  0.00  0.00    +0.000 A 
ATOM     17  C   UNL     1       3.118   4.543  20.064  0.00  0.00    +0.000 A 
ENDBRANCH  10  11
ENDBRANCH   8  10
TORSDOF 2
ENDMDL
MODEL 7
REMARK VINA RESULT:      -6.7      2.340      2.913
REMARK  Name = 
REMARK  2 active torsions:
REMARK  status: ('A' for Active; 'I' for Inactive)
REMARK    1  A    between atoms: N_8  and  C_9
REMARK    2  A    between atoms: C_9  and  C_10
REMARK                            x       y       z     vdW  Elec       q    Type
REMARK                         _______ _______ _______ _____ _____    ______ ____
ROOT
ATOM      1  O   UNL     1       7.789   6.799  16.698  0.00  0.00    +0.000 OA
ATOM      2  N   UNL     1       7.219   5.764  16.320  0.00  0.00    +0.000 N 
ATOM      3  O   UNL     1       7.750   4.857  15.663  0.00  0.00    +0.000 OA
ATOM      4  C   UNL     1       5.816   5.612  16.684  0.00  0.00    +0.000 A 
ATOM      5  N   UNL     1       5.098   6.598  17.316  0.00  0.00    +0.000 NA
ATOM      6  C   UNL     1       3.918   6.040  17.471  0.00  0.00    +0.000 A 
ATOM      7 BR   UNL     1       2.483   6.907  18.296  0.00  0.00    +0.000 Br
ATOM      8  N   UNL     1       3.934   4.770  16.957  0.00  0.00    +0.000 N 
ATOM      9  N   UNL     1       5.152   4.467  16.446  0.00  0.00    +0.000 NA
ENDROOT
BRANCH   8  10
ATOM     10  C   UNL     1       2.875   3.775  16.965  0.00  0.00    +0.000 C 
BRANCH  10  11
ATOM     11  C   UNL     1       2.452   3.419  18.370  0.00  0.00    +0.000 A 
ATOM     12  C   UNL     1       3.406   3.048  19.332  0.00  0.00    +0.000 A 
ATOM     13  C   UNL     1       3.012   2.685  20.621  0.00  0.00    +0.000 A 
ATOM     14  C   UNL     1       1.662   2.703  20.962  0.00  0.00    +0.000 A 
ATOM     15 CL   UNL     1       1.172   2.230  22.542  0.00  0.00    +0.000 Cl
ATOM     16  C   UNL     1       0.705   3.098  20.030  0.00  0.00    +0.000 A 
ATOM     17  C   UNL     1       1.099   3.459  18.738  0.00  0.00    +0.000 A 
ENDBRANCH  10  11
ENDBRANCH   8  10
TORSDOF 2
ENDMDL
MODEL 8
REMARK VINA RESULT:      -6.7      3.978      4.957
REMARK  Name = 
REMARK  2 active torsions:
REMARK  status: ('A' for Active; 'I' for Inactive)
REMARK    1  A    between atoms: N_8  and  C_9
REMARK    2  A    between atoms: C_9  and  C_10
REMARK                            x       y       z     vdW  Elec       q    Type
REMARK                         _______ _______ _______ _____ _____    ______ ____
ROOT
ATOM      1  O   UNL     1       8.395   4.860  19.036  0.00  0.00    +0.000 OA
ATOM      2  N   UNL     1       7.558   5.665  18.599  0.00  0.00    +0.000 N 
ATOM      3  O   UNL     1       7.820   6.779  18.123  0.00  0.00    +0.000 OA
ATOM      4  C   UNL     1       6.159   5.256  18.652  0.00  0.00    +0.000 A 
ATOM      5  N   UNL     1       5.744   4.093  19.254  0.00  0.00    +0.000 NA
ATOM      6  C   UNL     1       4.446   4.112  19.050  0.00  0.00    +0.000 A 
ATOM      7 BR   UNL     1       3.303   2.757  19.644  0.00  0.00    +0.000 Br
ATOM      8  N   UNL     1       4.102   5.238  18.350  0.00  0.00    +0.000 N 
ATOM      9  N   UNL     1       5.194   5.993  18.075  0.00  0.00    +0.000 NA
ENDROOT
BRANCH   8  10
ATOM     10  C   UNL     1       2.794   5.635  17.857  0.00  0.00    +0.000 C 
BRANCH  10  11
ATOM     11  C   UNL     1       2.271   6.855  18.577  0.00  0.00    +0.000 A 
ATOM     12  C   UNL     1       2.033   8.050  17.879  0.00  0.00    +0.000 A 
ATOM     13  C   UNL     1       1.583   9.189  18.551  0.00  0.00    +0.000 A 
ATOM     14  C   UNL     1       1.355   9.136  19.924  0.00  0.00    +0.000 A 
ATOM     15 CL   UNL     1       0.827  10.545  20.758  0.00  0.00    +0.000 Cl
ATOM     16  C   UNL     1       1.557   7.951  20.626  0.00  0.00    +0.000 A 
ATOM     17  C   UNL     1       2.010   6.811  19.955  0.00  0.00    +0.000 A 
ENDBRANCH  10  11
ENDBRANCH   8  10
TORSDOF 2
ENDMDL
MODEL 9
REMARK VINA RESULT:      -6.7      3.956      4.898
REMARK  Name = 
REMARK  2 active torsions:
REMARK  status: ('A' for Active; 'I' for Inactive)
REMARK    1  A    between atoms: N_8  and  C_9
REMARK    2  A    between atoms: C_9  and  C_10
REMARK                            x       y       z     vdW  Elec       q    Type
REMARK                         _______ _______ _______ _____ _____    ______ ____
ROOT
ATOM      1  O   UNL     1       5.034   1.905  20.578  0.00  0.00    +0.000 OA
ATOM      2  N   UNL     1       4.181   2.464  19.873  0.00  0.00    +0.000 N 
ATOM      3  O   UNL     1       3.017   2.069  19.712  0.00  0.00    +0.000 OA
ATOM      4  C   UNL     1       4.588   3.685  19.187  0.00  0.00    +0.000 A 
ATOM      5  N   UNL     1       5.878   4.156  19.207  0.00  0.00    +0.000 NA
ATOM      6  C   UNL     1       5.791   5.261  18.502  0.00  0.00    +0.000 A 
ATOM      7 BR   UNL     1       7.254   6.378  18.174  0.00  0.00    +0.000 Br
ATOM      8  N   UNL     1       4.500   5.444  18.083  0.00  0.00    +0.000 N 
ATOM      9  N   UNL     1       3.700   4.440  18.518  0.00  0.00    +0.000 NA
ENDROOT
BRANCH   8  10
ATOM     10  C   UNL     1       3.938   6.555  17.333  0.00  0.00    +0.000 C 
BRANCH  10  11
ATOM     11  C   UNL     1       2.998   7.382  18.177  0.00  0.00    +0.000 A 
ATOM     12  C   UNL     1       2.694   6.998  19.493  0.00  0.00    +0.000 A 
ATOM     13  C   UNL     1       1.797   7.743  20.262  0.00  0.00    +0.000 A 
ATOM     14  C   UNL     1       1.209   8.886  19.725  0.00  0.00    +0.000 A 
ATOM     15 CL   UNL     1       0.084   9.790  20.661  0.00  0.00    +0.000 Cl
ATOM     16  C   UNL     1       1.523   9.298  18.432  0.00  0.00    +0.000 A 
ATOM     17  C   UNL     1       2.418   8.551  17.661  0.00  0.00    +0.000 A 
ENDBRANCH  10  11
ENDBRANCH   8  10
TORSDOF 2
ENDMDL
