MODEL 1
REMARK VINA RESULT:      -5.2      0.000      0.000
REMARK  Name = 
REMARK  3 active torsions:
REMARK  status: ('A' for Active; 'I' for Inactive)
REMARK    1  A    between atoms: C_2  and  O_3
REMARK    2  A    between atoms: C_2  and  C_4
REMARK    3  A    between atoms: C_7  and  C_8
REMARK                            x       y       z     vdW  Elec       q    Type
REMARK                         _______ _______ _______ _____ _____    ______ ____
ROOT
ATOM      1  C   UNL     1       5.719   5.125  16.934  0.00  0.00    +0.000 A 
ATOM      2  C   UNL     1       5.073   6.279  17.336  0.00  0.00    +0.000 A 
ATOM      3  C   UNL     1       3.715   6.049  17.699  0.00  0.00    +0.000 A 
ATOM      4  C   UNL     1       3.358   4.720  17.583  0.00  0.00    +0.000 A 
ATOM      5  S   UNL     1       4.662   3.777  16.995  0.00  0.00    +0.000 S 
ENDROOT
BRANCH   4   6
ATOM      6  C   UNL     1       2.049   4.076  17.905  0.00  0.00    +0.000 C 
ATOM      7  F   UNL     1       1.026   4.685  17.247  0.00  0.00    +0.000 F 
ATOM      8  F   UNL     1       2.030   2.775  17.513  0.00  0.00    +0.000 F 
ENDBRANCH   4   6
BRANCH   1  10
ATOM      9  O   UNL     1       7.961   4.351  17.095  0.00  0.00    +0.000 OA
ATOM     10  C   UNL     1       7.109   5.011  16.521  0.00  0.00    +0.000 C 
BRANCH  10  11
ATOM     11  O   UNL     1       7.395   5.725  15.401  0.00  0.00    +0.000 OA
ATOM     12  H   UNL     1       6.725   5.586  14.704  0.00  0.00    +0.000 HD
ENDBRANCH  10  11
ENDBRANCH   1  10
TORSDOF 3
ENDMDL
MODEL 2
REMARK VINA RESULT:      -5.2      2.111      2.655
REMARK  Name = 
REMARK  3 active torsions:
REMARK  status: ('A' for Active; 'I' for Inactive)
REMARK    1  A    between atoms: C_2  and  O_3
REMARK    2  A    between atoms: C_2  and  C_4
REMARK    3  A    between atoms: C_7  and  C_8
REMARK                            x       y       z     vdW  Elec       q    Type
REMARK                         _______ _______ _______ _____ _____    ______ ____
ROOT
ATOM      1  C   UNL     1       4.902   4.095  18.571  0.00  0.00    +0.000 A 
ATOM      2  C   UNL     1       4.052   4.465  17.546  0.00  0.00    +0.000 A 
ATOM      3  C   UNL     1       2.796   3.796  17.607  0.00  0.00    +0.000 A 
ATOM      4  C   UNL     1       2.709   2.941  18.688  0.00  0.00    +0.000 A 
ATOM      5  S   UNL     1       4.165   2.930  19.589  0.00  0.00    +0.000 S 
ENDROOT
BRANCH   4   6
ATOM      6  C   UNL     1       1.552   2.099  19.118  0.00  0.00    +0.000 C 
ATOM      7  F   UNL     1       1.312   2.236  20.450  0.00  0.00    +0.000 F 
ATOM      8  F   UNL     1       0.408   2.473  18.486  0.00  0.00    +0.000 F 
ENDBRANCH   4   6
BRANCH   1  10
ATOM      9  O   UNL     1       6.562   5.349  19.722  0.00  0.00    +0.000 OA
ATOM     10  C   UNL     1       6.243   4.604  18.807  0.00  0.00    +0.000 C 
BRANCH  10  11
ATOM     11  O   UNL     1       7.151   4.168  17.895  0.00  0.00    +0.000 OA
ATOM     12  H   UNL     1       7.084   4.660  17.055  0.00  0.00    +0.000 HD
ENDBRANCH  10  11
ENDBRANCH   1  10
TORSDOF 3
ENDMDL
MODEL 3
REMARK VINA RESULT:      -5.2      2.194      2.722
REMARK  Name = 
REMARK  3 active torsions:
REMARK  status: ('A' for Active; 'I' for Inactive)
REMARK    1  A    between atoms: C_2  and  O_3
REMARK    2  A    between atoms: C_2  and  C_4
REMARK    3  A    between atoms: C_7  and  C_8
REMARK                            x       y       z     vdW  Elec       q    Type
REMARK                         _______ _______ _______ _____ _____    ______ ____
ROOT
ATOM      1  C   UNL     1       4.414   4.423  18.722  0.00  0.00    +0.000 A 
ATOM      2  C   UNL     1       3.595   4.952  17.743  0.00  0.00    +0.000 A 
ATOM      3  C   UNL     1       2.229   4.586  17.913  0.00  0.00    +0.000 A 
ATOM      4  C   UNL     1       2.032   3.799  19.031  0.00  0.00    +0.000 A 
ATOM      5  S   UNL     1       3.511   3.480  19.833  0.00  0.00    +0.000 S 
ENDROOT
BRANCH   4   6
ATOM      6  C   UNL     1       0.751   3.251  19.570  0.00  0.00    +0.000 C 
ATOM      7  F   UNL     1       0.303   2.212  18.813  0.00  0.00    +0.000 F 
ATOM      8  F   UNL     1       0.914   2.759  20.826  0.00  0.00    +0.000 F 
ENDBRANCH   4   6
BRANCH   1  10
ATOM      9  O   UNL     1       6.397   5.238  19.749  0.00  0.00    +0.000 OA
ATOM     10  C   UNL     1       5.848   4.621  18.849  0.00  0.00    +0.000 C 
BRANCH  10  11
ATOM     11  O   UNL     1       6.560   4.040  17.847  0.00  0.00    +0.000 OA
ATOM     12  H   UNL     1       7.042   3.250  18.158  0.00  0.00    +0.000 HD
ENDBRANCH  10  11
ENDBRANCH   1  10
TORSDOF 3
ENDMDL
MODEL 4
REMARK VINA RESULT:      -5.1      1.232      1.811
REMARK  Name = 
REMARK  3 active torsions:
REMARK  status: ('A' for Active; 'I' for Inactive)
REMARK    1  A    between atoms: C_2  and  O_3
REMARK    2  A    between atoms: C_2  and  C_4
REMARK    3  A    between atoms: C_7  and  C_8
REMARK                            x       y       z     vdW  Elec       q    Type
REMARK                         _______ _______ _______ _____ _____    ______ ____
ROOT
ATOM      1  C   UNL     1       5.767   4.769  17.037  0.00  0.00    +0.000 A 
ATOM      2  C   UNL     1       5.140   3.635  16.555  0.00  0.00    +0.000 A 
ATOM      3  C   UNL     1       3.765   3.573  16.919  0.00  0.00    +0.000 A 
ATOM      4  C   UNL     1       3.367   4.671  17.657  0.00  0.00    +0.000 A 
ATOM      5  S   UNL     1       4.676   5.740  17.933  0.00  0.00    +0.000 S 
ENDROOT
BRANCH   4   6
ATOM      6  C   UNL     1       2.007   4.994  18.186  0.00  0.00    +0.000 C 
ATOM      7  F   UNL     1       1.039   4.667  17.287  0.00  0.00    +0.000 F 
ATOM      8  F   UNL     1       1.734   4.281  19.311  0.00  0.00    +0.000 F 
ENDBRANCH   4   6
BRANCH   1  10
ATOM      9  O   UNL     1       7.537   6.210  16.368  0.00  0.00    +0.000 OA
ATOM     10  C   UNL     1       7.157   5.143  16.827  0.00  0.00    +0.000 C 
BRANCH  10  11
ATOM     11  O   UNL     1       8.035   4.175  17.198  0.00  0.00    +0.000 OA
ATOM     12  H   UNL     1       8.538   3.833  16.435  0.00  0.00    +0.000 HD
ENDBRANCH  10  11
ENDBRANCH   1  10
TORSDOF 3
ENDMDL
MODEL 5
REMARK VINA RESULT:      -5.1      1.065      1.431
REMARK  Name = 
REMARK  3 active torsions:
REMARK  status: ('A' for Active; 'I' for Inactive)
REMARK    1  A    between atoms: C_2  and  O_3
REMARK    2  A    between atoms: C_2  and  C_4
REMARK    3  A    between atoms: C_7  and  C_8
REMARK                            x       y       z     vdW  Elec       q    Type
REMARK                         _______ _______ _______ _____ _____    ______ ____
ROOT
ATOM      1  C   UNL     1       5.920   4.969  17.616  0.00  0.00    +0.000 A 
ATOM      2  C   UNL     1       5.772   5.332  18.941  0.00  0.00    +0.000 A 
ATOM      3  C   UNL     1       4.433   5.186  19.404  0.00  0.00    +0.000 A 
ATOM      4  C   UNL     1       3.590   4.696  18.425  0.00  0.00    +0.000 A 
ATOM      5  S   UNL     1       4.425   4.461  16.949  0.00  0.00    +0.000 S 
ENDROOT
BRANCH   4   6
ATOM      6  C   UNL     1       2.136   4.368  18.528  0.00  0.00    +0.000 C 
ATOM      7  F   UNL     1       1.466   4.744  17.405  0.00  0.00    +0.000 F 
ATOM      8  F   UNL     1       1.941   3.028  18.653  0.00  0.00    +0.000 F 
ENDBRANCH   4   6
BRANCH   1  10
ATOM      9  O   UNL     1       7.371   5.684  15.874  0.00  0.00    +0.000 OA
ATOM     10  C   UNL     1       7.155   4.981  16.849  0.00  0.00    +0.000 C 
BRANCH  10  11
ATOM     11  O   UNL     1       8.089   4.116  17.324  0.00  0.00    +0.000 OA
ATOM     12  H   UNL     1       8.798   3.956  16.672  0.00  0.00    +0.000 HD
ENDBRANCH  10  11
ENDBRANCH   1  10
TORSDOF 3
ENDMDL
MODEL 6
REMARK VINA RESULT:      -5.1      0.845      1.050
REMARK  Name = 
REMARK  3 active torsions:
REMARK  status: ('A' for Active; 'I' for Inactive)
REMARK    1  A    between atoms: C_2  and  O_3
REMARK    2  A    between atoms: C_2  and  C_4
REMARK    3  A    between atoms: C_7  and  C_8
REMARK                            x       y       z     vdW  Elec       q    Type
REMARK                         _______ _______ _______ _____ _____    ______ ____
ROOT
ATOM      1  C   UNL     1       5.691   5.488  17.146  0.00  0.00    +0.000 A 
ATOM      2  C   UNL     1       4.954   6.623  17.429  0.00  0.00    +0.000 A 
ATOM      3  C   UNL     1       3.604   6.327  17.775  0.00  0.00    +0.000 A 
ATOM      4  C   UNL     1       3.345   4.971  17.765  0.00  0.00    +0.000 A 
ATOM      5  S   UNL     1       4.729   4.078  17.295  0.00  0.00    +0.000 S 
ENDROOT
BRANCH   4   6
ATOM      6  C   UNL     1       2.074   4.263  18.108  0.00  0.00    +0.000 C 
ATOM      7  F   UNL     1       1.633   4.616  19.346  0.00  0.00    +0.000 F 
ATOM      8  F   UNL     1       1.078   4.592  17.243  0.00  0.00    +0.000 F 
ENDBRANCH   4   6
BRANCH   1  10
ATOM      9  O   UNL     1       7.795   4.438  16.794  0.00  0.00    +0.000 OA
ATOM     10  C   UNL     1       7.098   5.441  16.781  0.00  0.00    +0.000 C 
BRANCH  10  11
ATOM     11  O   UNL     1       7.595   6.649  16.407  0.00  0.00    +0.000 OA
ATOM     12  H   UNL     1       7.913   7.162  17.174  0.00  0.00    +0.000 HD
ENDBRANCH  10  11
ENDBRANCH   1  10
TORSDOF 3
ENDMDL
MODEL 7
REMARK VINA RESULT:      -5.1      1.614      2.098
REMARK  Name = 
REMARK  3 active torsions:
REMARK  status: ('A' for Active; 'I' for Inactive)
REMARK    1  A    between atoms: C_2  and  O_3
REMARK    2  A    between atoms: C_2  and  C_4
REMARK    3  A    between atoms: C_7  and  C_8
REMARK                            x       y       z     vdW  Elec       q    Type
REMARK                         _______ _______ _______ _____ _____    ______ ____
ROOT
ATOM      1  C   UNL     1       5.826   4.553  17.257  0.00  0.00    +0.000 A 
ATOM      2  C   UNL     1       4.785   4.134  16.451  0.00  0.00    +0.000 A 
ATOM      3  C   UNL     1       3.592   3.876  17.185  0.00  0.00    +0.000 A 
ATOM      4  C   UNL     1       3.744   4.122  18.536  0.00  0.00    +0.000 A 
ATOM      5  S   UNL     1       5.342   4.620  18.899  0.00  0.00    +0.000 S 
ENDROOT
BRANCH   4   6
ATOM      6  C   UNL     1       2.724   4.013  19.622  0.00  0.00    +0.000 C 
ATOM      7  F   UNL     1       1.604   3.378  19.183  0.00  0.00    +0.000 F 
ATOM      8  F   UNL     1       3.192   3.278  20.665  0.00  0.00    +0.000 F 
ENDBRANCH   4   6
BRANCH   1  10
ATOM      9  O   UNL     1       7.434   5.842  16.071  0.00  0.00    +0.000 OA
ATOM     10  C   UNL     1       7.165   4.915  16.820  0.00  0.00    +0.000 C 
BRANCH  10  11
ATOM     11  O   UNL     1       8.132   4.110  17.333  0.00  0.00    +0.000 OA
ATOM     12  H   UNL     1       7.752   3.342  17.799  0.00  0.00    +0.000 HD
ENDBRANCH  10  11
ENDBRANCH   1  10
TORSDOF 3
ENDMDL
MODEL 8
REMARK VINA RESULT:      -5.1      1.662      2.114
REMARK  Name = 
REMARK  3 active torsions:
REMARK  status: ('A' for Active; 'I' for Inactive)
REMARK    1  A    between atoms: C_2  and  O_3
REMARK    2  A    between atoms: C_2  and  C_4
REMARK    3  A    between atoms: C_7  and  C_8
REMARK                            x       y       z     vdW  Elec       q    Type
REMARK                         _______ _______ _______ _____ _____    ______ ____
ROOT
ATOM      1  C   UNL     1       5.805   4.703  17.333  0.00  0.00    +0.000 A 
ATOM      2  C   UNL     1       4.812   4.062  16.615  0.00  0.00    +0.000 A 
ATOM      3  C   UNL     1       3.594   3.951  17.344  0.00  0.00    +0.000 A 
ATOM      4  C   UNL     1       3.678   4.525  18.597  0.00  0.00    +0.000 A 
ATOM      5  S   UNL     1       5.244   5.152  18.888  0.00  0.00    +0.000 S 
ENDROOT
BRANCH   4   6
ATOM      6  C   UNL     1       2.612   4.649  19.638  0.00  0.00    +0.000 C 
ATOM      7  F   UNL     1       2.537   5.922  20.114  0.00  0.00    +0.000 F 
ATOM      8  F   UNL     1       1.386   4.364  19.124  0.00  0.00    +0.000 F 
ENDBRANCH   4   6
BRANCH   1  10
ATOM      9  O   UNL     1       7.463   5.931  16.151  0.00  0.00    +0.000 OA
ATOM     10  C   UNL     1       7.153   4.994  16.872  0.00  0.00    +0.000 C 
BRANCH  10  11
ATOM     11  O   UNL     1       8.078   4.107  17.325  0.00  0.00    +0.000 OA
ATOM     12  H   UNL     1       8.638   4.496  18.024  0.00  0.00    +0.000 HD
ENDBRANCH  10  11
ENDBRANCH   1  10
TORSDOF 3
ENDMDL
MODEL 9
REMARK VINA RESULT:      -5.1      1.091      1.101
REMARK  Name = 
REMARK  3 active torsions:
REMARK  status: ('A' for Active; 'I' for Inactive)
REMARK    1  A    between atoms: C_2  and  O_3
REMARK    2  A    between atoms: C_2  and  C_4
REMARK    3  A    between atoms: C_7  and  C_8
REMARK                            x       y       z     vdW  Elec       q    Type
REMARK                         _______ _______ _______ _____ _____    ______ ____
ROOT
ATOM      1  C   UNL     1       5.933   4.631  17.877  0.00  0.00    +0.000 A 
ATOM      2  C   UNL     1       5.530   5.154  19.092  0.00  0.00    +0.000 A 
ATOM      3  C   UNL     1       4.134   4.990  19.323  0.00  0.00    +0.000 A 
ATOM      4  C   UNL     1       3.504   4.329  18.286  0.00  0.00    +0.000 A 
ATOM      5  S   UNL     1       4.606   3.955  17.029  0.00  0.00    +0.000 S 
ENDROOT
BRANCH   4   6
ATOM      6  C   UNL     1       2.069   3.932  18.171  0.00  0.00    +0.000 C 
ATOM      7  F   UNL     1       1.379   4.804  17.386  0.00  0.00    +0.000 F 
ATOM      8  F   UNL     1       1.940   2.713  17.585  0.00  0.00    +0.000 F 
ENDBRANCH   4   6
BRANCH   1  10
ATOM      9  O   UNL     1       8.284   4.289  17.977  0.00  0.00    +0.000 OA
ATOM     10  C   UNL     1       7.288   4.617  17.350  0.00  0.00    +0.000 C 
BRANCH  10  11
ATOM     11  O   UNL     1       7.362   5.011  16.052  0.00  0.00    +0.000 OA
ATOM     12  H   UNL     1       8.091   5.644  15.908  0.00  0.00    +0.000 HD
ENDBRANCH  10  11
ENDBRANCH   1  10
TORSDOF 3
ENDMDL
