MODEL 1
REMARK VINA RESULT:      -7.3      0.000      0.000
REMARK  Name = 
REMARK  8 active torsions:
REMARK  status: ('A' for Active; 'I' for Inactive)
REMARK    1  A    between atoms: C_2  and  O_3
REMARK    2  A    between atoms: C_2  and  C_4
REMARK    3  A    between atoms: C_8  and  C_9
REMARK    4  A    between atoms: C_9  and  C_10
REMARK    5  A    between atoms: C_10  and  C_11
REMARK    6  A    between atoms: C_11  and  C_12
REMARK    7  A    between atoms: C_12  and  C_13
REMARK    8  A    between atoms: C_13  and  C_14
REMARK                            x       y       z     vdW  Elec       q    Type
REMARK                         _______ _______ _______ _____ _____    ______ ____
ROOT
ATOM      1  C   UNL     1       6.029   5.810  16.773  0.00  0.00    +0.000 C 
ENDROOT
BRANCH   1   2
ATOM      2  C   UNL     1       5.171   4.953  15.840  0.00  0.00    +0.000 C 
BRANCH   2   7
ATOM      3  C   UNL     1       5.970   3.451  12.438  0.00  0.00    +0.000 A 
ATOM      4  C   UNL     1       7.191   4.069  12.142  0.00  0.00    +0.000 A 
ATOM      5  C   UNL     1       7.756   4.962  13.053  0.00  0.00    +0.000 A 
ATOM      6  C   UNL     1       7.101   5.244  14.248  0.00  0.00    +0.000 A 
ATOM      7  C   UNL     1       5.873   4.639  14.548  0.00  0.00    +0.000 A 
ATOM      8  C   UNL     1       5.304   3.750  13.631  0.00  0.00    +0.000 A 
BRANCH   3  10
ATOM      9  O   UNL     1       5.868   1.470  11.124  0.00  0.00    +0.000 OA
ATOM     10  C   UNL     1       5.327   2.493  11.506  0.00  0.00    +0.000 C 
BRANCH  10  11
ATOM     11  O   UNL     1       4.111   2.894  11.079  0.00  0.00    +0.000 OA
ATOM     12  H   UNL     1       3.494   2.168  10.875  0.00  0.00    +0.000 HD
ENDBRANCH  10  11
ENDBRANCH   3  10
ENDBRANCH   2   7
ENDBRANCH   1   2
BRANCH   1  13
ATOM     13  C   UNL     1       6.760   4.972  17.822  0.00  0.00    +0.000 C 
BRANCH  13  14
ATOM     14  C   UNL     1       6.290   5.280  19.245  0.00  0.00    +0.000 C 
BRANCH  14  15
ATOM     15  C   UNL     1       4.777   5.169  19.358  0.00  0.00    +0.000 C 
BRANCH  15  16
ATOM     16  C   UNL     1       4.319   3.722  19.418  0.00  0.00    +0.000 C 
ATOM     17  O   UNL     1       5.051   2.811  19.807  0.00  0.00    +0.000 OA
ATOM     18  N   UNL     1       3.016   3.486  19.017  0.00  0.00    +0.000 N 
ATOM     19  C   UNL     1       2.437   2.188  19.138  0.00  0.00    +0.000 C 
ATOM     20  C   UNL     1       0.994   2.450  18.795  0.00  0.00    +0.000 C 
ATOM     21  O   UNL     1       1.035   3.597  17.944  0.00  0.00    +0.000 OA
ATOM     22  C   UNL     1       2.206   4.263  18.202  0.00  0.00    +0.000 C 
ATOM     23  O   UNL     1       2.437   5.373  17.755  0.00  0.00    +0.000 OA
ENDBRANCH  15  16
ENDBRANCH  14  15
ENDBRANCH  13  14
ENDBRANCH   1  13
TORSDOF 8
ENDMDL
MODEL 2
REMARK VINA RESULT:      -7.3      0.932      1.811
REMARK  Name = 
REMARK  8 active torsions:
REMARK  status: ('A' for Active; 'I' for Inactive)
REMARK    1  A    between atoms: C_2  and  O_3
REMARK    2  A    between atoms: C_2  and  C_4
REMARK    3  A    between atoms: C_8  and  C_9
REMARK    4  A    between atoms: C_9  and  C_10
REMARK    5  A    between atoms: C_10  and  C_11
REMARK    6  A    between atoms: C_11  and  C_12
REMARK    7  A    between atoms: C_12  and  C_13
REMARK    8  A    between atoms: C_13  and  C_14
REMARK                            x       y       z     vdW  Elec       q    Type
REMARK                         _______ _______ _______ _____ _____    ______ ____
ROOT
ATOM      1  C   UNL     1       5.992   6.482  16.316  0.00  0.00    +0.000 C 
ENDROOT
BRANCH   1   2
ATOM      2  C   UNL     1       5.455   5.145  15.802  0.00  0.00    +0.000 C 
BRANCH   2   7
ATOM      3  C   UNL     1       5.971   3.485  12.419  0.00  0.00    +0.000 A 
ATOM      4  C   UNL     1       7.181   4.060  12.009  0.00  0.00    +0.000 A 
ATOM      5  C   UNL     1       7.830   4.975  12.838  0.00  0.00    +0.000 A 
ATOM      6  C   UNL     1       7.270   5.322  14.065  0.00  0.00    +0.000 A 
ATOM      7  C   UNL     1       6.054   4.761  14.477  0.00  0.00    +0.000 A 
ATOM      8  C   UNL     1       5.400   3.850  13.642  0.00  0.00    +0.000 A 
BRANCH   3  10
ATOM      9  O   UNL     1       4.154   2.738  11.077  0.00  0.00    +0.000 OA
ATOM     10  C   UNL     1       5.241   2.506  11.576  0.00  0.00    +0.000 C 
BRANCH  10  11
ATOM     11  O   UNL     1       5.872   1.319  11.465  0.00  0.00    +0.000 OA
ATOM     12  H   UNL     1       6.839   1.382  11.363  0.00  0.00    +0.000 HD
ENDBRANCH  10  11
ENDBRANCH   3  10
ENDBRANCH   2   7
ENDBRANCH   1   2
BRANCH   1  13
ATOM     13  C   UNL     1       6.731   6.338  17.647  0.00  0.00    +0.000 C 
BRANCH  13  14
ATOM     14  C   UNL     1       6.501   4.971  18.295  0.00  0.00    +0.000 C 
BRANCH  14  15
ATOM     15  C   UNL     1       5.602   5.089  19.516  0.00  0.00    +0.000 C 
BRANCH  15  16
ATOM     16  C   UNL     1       4.133   5.138  19.134  0.00  0.00    +0.000 C 
ATOM     17  O   UNL     1       3.517   6.197  19.003  0.00  0.00    +0.000 OA
ATOM     18  N   UNL     1       3.523   3.913  18.930  0.00  0.00    +0.000 N 
ATOM     19  C   UNL     1       2.180   3.835  18.455  0.00  0.00    +0.000 C 
ATOM     20  C   UNL     1       2.023   2.362  18.187  0.00  0.00    +0.000 C 
ATOM     21  O   UNL     1       2.947   1.737  19.081  0.00  0.00    +0.000 OA
ATOM     22  C   UNL     1       3.905   2.665  19.400  0.00  0.00    +0.000 C 
ATOM     23  O   UNL     1       4.921   2.372  20.006  0.00  0.00    +0.000 OA
ENDBRANCH  15  16
ENDBRANCH  14  15
ENDBRANCH  13  14
ENDBRANCH   1  13
TORSDOF 8
ENDMDL
MODEL 3
REMARK VINA RESULT:      -7.2      3.737      5.741
REMARK  Name = 
REMARK  8 active torsions:
REMARK  status: ('A' for Active; 'I' for Inactive)
REMARK    1  A    between atoms: C_2  and  O_3
REMARK    2  A    between atoms: C_2  and  C_4
REMARK    3  A    between atoms: C_8  and  C_9
REMARK    4  A    between atoms: C_9  and  C_10
REMARK    5  A    between atoms: C_10  and  C_11
REMARK    6  A    between atoms: C_11  and  C_12
REMARK    7  A    between atoms: C_12  and  C_13
REMARK    8  A    between atoms: C_13  and  C_14
REMARK                            x       y       z     vdW  Elec       q    Type
REMARK                         _______ _______ _______ _____ _____    ______ ____
ROOT
ATOM      1  C   UNL     1       2.403   3.371  17.411  0.00  0.00    +0.000 C 
ENDROOT
BRANCH   1   2
ATOM      2  C   UNL     1       3.790   2.945  17.895  0.00  0.00    +0.000 C 
BRANCH   2   7
ATOM      3  C   UNL     1       6.716   5.366  18.111  0.00  0.00    +0.000 A 
ATOM      4  C   UNL     1       6.841   5.770  16.776  0.00  0.00    +0.000 A 
ATOM      5  C   UNL     1       5.967   5.264  15.813  0.00  0.00    +0.000 A 
ATOM      6  C   UNL     1       4.981   4.352  16.178  0.00  0.00    +0.000 A 
ATOM      7  C   UNL     1       4.856   3.933  17.510  0.00  0.00    +0.000 A 
ATOM      8  C   UNL     1       5.737   4.435  18.473  0.00  0.00    +0.000 A 
BRANCH   3  10
ATOM      9  O   UNL     1       7.701   5.363  20.276  0.00  0.00    +0.000 OA
ATOM     10  C   UNL     1       7.617   5.874  19.173  0.00  0.00    +0.000 C 
BRANCH  10  11
ATOM     11  O   UNL     1       8.291   6.988  18.818  0.00  0.00    +0.000 OA
ATOM     12  H   UNL     1       7.997   7.388  17.979  0.00  0.00    +0.000 HD
ENDBRANCH  10  11
ENDBRANCH   3  10
ENDBRANCH   2   7
ENDBRANCH   1   2
BRANCH   1  13
ATOM     13  C   UNL     1       2.059   4.803  17.822  0.00  0.00    +0.000 C 
BRANCH  13  14
ATOM     14  C   UNL     1       2.010   4.976  19.341  0.00  0.00    +0.000 C 
BRANCH  14  15
ATOM     15  C   UNL     1       2.836   6.174  19.783  0.00  0.00    +0.000 C 
BRANCH  15  16
ATOM     16  C   UNL     1       2.857   7.267  18.729  0.00  0.00    +0.000 C 
ATOM     17  O   UNL     1       3.631   7.251  17.772  0.00  0.00    +0.000 OA
ATOM     18  N   UNL     1       1.937   8.287  18.902  0.00  0.00    +0.000 N 
ATOM     19  C   UNL     1       1.783   9.306  17.917  0.00  0.00    +0.000 C 
ATOM     20  C   UNL     1       0.566  10.044  18.412  0.00  0.00    +0.000 C 
ATOM     21  O   UNL     1       0.568   9.824  19.824  0.00  0.00    +0.000 OA
ATOM     22  C   UNL     1       1.293   8.685  20.064  0.00  0.00    +0.000 C 
ATOM     23  O   UNL     1       1.323   8.149  21.159  0.00  0.00    +0.000 OA
ENDBRANCH  15  16
ENDBRANCH  14  15
ENDBRANCH  13  14
ENDBRANCH   1  13
TORSDOF 8
ENDMDL
MODEL 4
REMARK VINA RESULT:      -7.1      1.161      1.180
REMARK  Name = 
REMARK  8 active torsions:
REMARK  status: ('A' for Active; 'I' for Inactive)
REMARK    1  A    between atoms: C_2  and  O_3
REMARK    2  A    between atoms: C_2  and  C_4
REMARK    3  A    between atoms: C_8  and  C_9
REMARK    4  A    between atoms: C_9  and  C_10
REMARK    5  A    between atoms: C_10  and  C_11
REMARK    6  A    between atoms: C_11  and  C_12
REMARK    7  A    between atoms: C_12  and  C_13
REMARK    8  A    between atoms: C_13  and  C_14
REMARK                            x       y       z     vdW  Elec       q    Type
REMARK                         _______ _______ _______ _____ _____    ______ ____
ROOT
ATOM      1  C   UNL     1       5.645   5.895  16.502  0.00  0.00    +0.000 C 
ENDROOT
BRANCH   1   2
ATOM      2  C   UNL     1       5.920   4.455  16.063  0.00  0.00    +0.000 C 
BRANCH   2   7
ATOM      3  C   UNL     1       6.066   3.404  12.410  0.00  0.00    +0.000 A 
ATOM      4  C   UNL     1       7.099   4.218  11.929  0.00  0.00    +0.000 A 
ATOM      5  C   UNL     1       7.752   5.097  12.794  0.00  0.00    +0.000 A 
ATOM      6  C   UNL     1       7.369   5.169  14.131  0.00  0.00    +0.000 A 
ATOM      7  C   UNL     1       6.328   4.367  14.619  0.00  0.00    +0.000 A 
ATOM      8  C   UNL     1       5.670   3.493  13.749  0.00  0.00    +0.000 A 
BRANCH   3  10
ATOM      9  O   UNL     1       5.799   1.375  11.198  0.00  0.00    +0.000 OA
ATOM     10  C   UNL     1       5.341   2.454  11.534  0.00  0.00    +0.000 C 
BRANCH  10  11
ATOM     11  O   UNL     1       4.152   2.923  11.100  0.00  0.00    +0.000 OA
ATOM     12  H   UNL     1       3.735   3.575  11.692  0.00  0.00    +0.000 HD
ENDBRANCH  10  11
ENDBRANCH   3  10
ENDBRANCH   2   7
ENDBRANCH   1   2
BRANCH   1  13
ATOM     13  C   UNL     1       6.570   6.344  17.633  0.00  0.00    +0.000 C 
BRANCH  13  14
ATOM     14  C   UNL     1       6.345   5.549  18.920  0.00  0.00    +0.000 C 
BRANCH  14  15
ATOM     15  C   UNL     1       4.866   5.483  19.271  0.00  0.00    +0.000 C 
BRANCH  15  16
ATOM     16  C   UNL     1       4.409   4.058  19.529  0.00  0.00    +0.000 C 
ATOM     17  O   UNL     1       5.106   3.080  19.259  0.00  0.00    +0.000 OA
ATOM     18  N   UNL     1       3.157   3.923  20.103  0.00  0.00    +0.000 N 
ATOM     19  C   UNL     1       2.669   2.642  20.498  0.00  0.00    +0.000 C 
ATOM     20  C   UNL     1       1.409   2.998  21.241  0.00  0.00    +0.000 C 
ATOM     21  O   UNL     1       0.996   4.240  20.666  0.00  0.00    +0.000 OA
ATOM     22  C   UNL     1       2.103   4.824  20.107  0.00  0.00    +0.000 C 
ATOM     23  O   UNL     1       2.097   5.972  19.695  0.00  0.00    +0.000 OA
ENDBRANCH  15  16
ENDBRANCH  14  15
ENDBRANCH  13  14
ENDBRANCH   1  13
TORSDOF 8
ENDMDL
MODEL 5
REMARK VINA RESULT:      -7.0      1.637      2.222
REMARK  Name = 
REMARK  8 active torsions:
REMARK  status: ('A' for Active; 'I' for Inactive)
REMARK    1  A    between atoms: C_2  and  O_3
REMARK    2  A    between atoms: C_2  and  C_4
REMARK    3  A    between atoms: C_8  and  C_9
REMARK    4  A    between atoms: C_9  and  C_10
REMARK    5  A    between atoms: C_10  and  C_11
REMARK    6  A    between atoms: C_11  and  C_12
REMARK    7  A    between atoms: C_12  and  C_13
REMARK    8  A    between atoms: C_13  and  C_14
REMARK                            x       y       z     vdW  Elec       q    Type
REMARK                         _______ _______ _______ _____ _____    ______ ____
ROOT
ATOM      1  C   UNL     1       4.845   5.587  16.106  0.00  0.00    +0.000 C 
ENDROOT
BRANCH   1   2
ATOM      2  C   UNL     1       6.122   4.758  15.947  0.00  0.00    +0.000 C 
BRANCH   2   7
ATOM      3  C   UNL     1       6.190   3.462  12.372  0.00  0.00    +0.000 A 
ATOM      4  C   UNL     1       7.223   4.230  11.818  0.00  0.00    +0.000 A 
ATOM      5  C   UNL     1       7.900   5.158  12.611  0.00  0.00    +0.000 A 
ATOM      6  C   UNL     1       7.542   5.324  13.946  0.00  0.00    +0.000 A 
ATOM      7  C   UNL     1       6.503   4.569  14.505  0.00  0.00    +0.000 A 
ATOM      8  C   UNL     1       5.820   3.645  13.708  0.00  0.00    +0.000 A 
BRANCH   3  10
ATOM      9  O   UNL     1       5.911   1.391  11.235  0.00  0.00    +0.000 OA
ATOM     10  C   UNL     1       5.440   2.463  11.574  0.00  0.00    +0.000 C 
BRANCH  10  11
ATOM     11  O   UNL     1       4.208   2.880  11.214  0.00  0.00    +0.000 OA
ATOM     12  H   UNL     1       3.565   2.163  11.068  0.00  0.00    +0.000 HD
ENDBRANCH  10  11
ENDBRANCH   3  10
ENDBRANCH   2   7
ENDBRANCH   1   2
BRANCH   1  13
ATOM     13  C   UNL     1       5.034   6.767  17.060  0.00  0.00    +0.000 C 
BRANCH  13  14
ATOM     14  C   UNL     1       3.744   7.133  17.796  0.00  0.00    +0.000 C 
BRANCH  14  15
ATOM     15  C   UNL     1       2.885   5.901  18.041  0.00  0.00    +0.000 C 
BRANCH  15  16
ATOM     16  C   UNL     1       2.476   5.778  19.499  0.00  0.00    +0.000 C 
ATOM     17  O   UNL     1       2.008   6.721  20.138  0.00  0.00    +0.000 OA
ATOM     18  N   UNL     1       2.652   4.530  20.070  0.00  0.00    +0.000 N 
ATOM     19  C   UNL     1       2.198   4.262  21.395  0.00  0.00    +0.000 C 
ATOM     20  C   UNL     1       2.400   2.774  21.505  0.00  0.00    +0.000 C 
ATOM     21  O   UNL     1       3.463   2.491  20.593  0.00  0.00    +0.000 OA
ATOM     22  C   UNL     1       3.497   3.505  19.670  0.00  0.00    +0.000 C 
ATOM     23  O   UNL     1       4.185   3.450  18.666  0.00  0.00    +0.000 OA
ENDBRANCH  15  16
ENDBRANCH  14  15
ENDBRANCH  13  14
ENDBRANCH   1  13
TORSDOF 8
ENDMDL
MODEL 6
REMARK VINA RESULT:      -7.0      4.394      8.366
REMARK  Name = 
REMARK  8 active torsions:
REMARK  status: ('A' for Active; 'I' for Inactive)
REMARK    1  A    between atoms: C_2  and  O_3
REMARK    2  A    between atoms: C_2  and  C_4
REMARK    3  A    between atoms: C_8  and  C_9
REMARK    4  A    between atoms: C_9  and  C_10
REMARK    5  A    between atoms: C_10  and  C_11
REMARK    6  A    between atoms: C_11  and  C_12
REMARK    7  A    between atoms: C_12  and  C_13
REMARK    8  A    between atoms: C_13  and  C_14
REMARK                            x       y       z     vdW  Elec       q    Type
REMARK                         _______ _______ _______ _____ _____    ______ ____
ROOT
ATOM      1  C   UNL     1       2.529   6.204  18.925  0.00  0.00    +0.000 C 
ENDROOT
BRANCH   1   2
ATOM      2  C   UNL     1       2.648   7.635  18.396  0.00  0.00    +0.000 C 
BRANCH   2   7
ATOM      3  C   UNL     1       0.438   9.353  20.973  0.00  0.00    +0.000 A 
ATOM      4  C   UNL     1      -0.233  10.292  20.180  0.00  0.00    +0.000 A 
ATOM      5  C   UNL     1       0.026  10.357  18.810  0.00  0.00    +0.000 A 
ATOM      6  C   UNL     1       0.956   9.494  18.237  0.00  0.00    +0.000 A 
ATOM      7  C   UNL     1       1.642   8.559  19.024  0.00  0.00    +0.000 A 
ATOM      8  C   UNL     1       1.387   8.501  20.398  0.00  0.00    +0.000 A 
BRANCH   3  10
ATOM      9  O   UNL     1       0.952   9.711  23.267  0.00  0.00    +0.000 OA
ATOM     10  C   UNL     1       0.199   9.242  22.432  0.00  0.00    +0.000 C 
BRANCH  10  11
ATOM     11  O   UNL     1      -0.901   8.524  22.742  0.00  0.00    +0.000 OA
ATOM     12  H   UNL     1      -0.883   8.120  23.629  0.00  0.00    +0.000 HD
ENDBRANCH  10  11
ENDBRANCH   3  10
ENDBRANCH   2   7
ENDBRANCH   1   2
BRANCH   1  13
ATOM     13  C   UNL     1       2.126   5.213  17.833  0.00  0.00    +0.000 C 
BRANCH  13  14
ATOM     14  C   UNL     1       2.942   3.920  17.889  0.00  0.00    +0.000 C 
BRANCH  14  15
ATOM     15  C   UNL     1       4.312   4.109  17.255  0.00  0.00    +0.000 C 
BRANCH  15  16
ATOM     16  C   UNL     1       5.353   4.534  18.275  0.00  0.00    +0.000 C 
ATOM     17  O   UNL     1       5.500   3.957  19.352  0.00  0.00    +0.000 OA
ATOM     18  N   UNL     1       6.144   5.611  17.914  0.00  0.00    +0.000 N 
ATOM     19  C   UNL     1       7.231   6.028  18.738  0.00  0.00    +0.000 C 
ATOM     20  C   UNL     1       7.911   7.055  17.871  0.00  0.00    +0.000 C 
ATOM     21  O   UNL     1       6.869   7.557  17.032  0.00  0.00    +0.000 OA
ATOM     22  C   UNL     1       5.885   6.603  16.980  0.00  0.00    +0.000 C 
ATOM     23  O   UNL     1       4.949   6.673  16.202  0.00  0.00    +0.000 OA
ENDBRANCH  15  16
ENDBRANCH  14  15
ENDBRANCH  13  14
ENDBRANCH   1  13
TORSDOF 8
ENDMDL
MODEL 7
REMARK VINA RESULT:      -7.0      3.878      7.353
REMARK  Name = 
REMARK  8 active torsions:
REMARK  status: ('A' for Active; 'I' for Inactive)
REMARK    1  A    between atoms: C_2  and  O_3
REMARK    2  A    between atoms: C_2  and  C_4
REMARK    3  A    between atoms: C_8  and  C_9
REMARK    4  A    between atoms: C_9  and  C_10
REMARK    5  A    between atoms: C_10  and  C_11
REMARK    6  A    between atoms: C_11  and  C_12
REMARK    7  A    between atoms: C_12  and  C_13
REMARK    8  A    between atoms: C_13  and  C_14
REMARK                            x       y       z     vdW  Elec       q    Type
REMARK                         _______ _______ _______ _____ _____    ______ ____
ROOT
ATOM      1  C   UNL     1       3.985   6.741  18.155  0.00  0.00    +0.000 C 
ENDROOT
BRANCH   1   2
ATOM      2  C   UNL     1       2.458   6.789  18.074  0.00  0.00    +0.000 C 
BRANCH   2   7
ATOM      3  C   UNL     1       1.052   9.247  20.614  0.00  0.00    +0.000 A 
ATOM      4  C   UNL     1       0.845  10.380  19.818  0.00  0.00    +0.000 A 
ATOM      5  C   UNL     1       1.151  10.338  18.457  0.00  0.00    +0.000 A 
ATOM      6  C   UNL     1       1.671   9.175  17.896  0.00  0.00    +0.000 A 
ATOM      7  C   UNL     1       1.893   8.040  18.688  0.00  0.00    +0.000 A 
ATOM      8  C   UNL     1       1.592   8.085  20.053  0.00  0.00    +0.000 A 
BRANCH   3  10
ATOM      9  O   UNL     1       1.554   9.543  22.920  0.00  0.00    +0.000 OA
ATOM     10  C   UNL     1       0.742   9.238  22.064  0.00  0.00    +0.000 C 
BRANCH  10  11
ATOM     11  O   UNL     1      -0.505   8.805  22.343  0.00  0.00    +0.000 OA
ATOM     12  H   UNL     1      -0.606   7.836  22.346  0.00  0.00    +0.000 HD
ENDBRANCH  10  11
ENDBRANCH   3  10
ENDBRANCH   2   7
ENDBRANCH   1   2
BRANCH   1  13
ATOM     13  C   UNL     1       4.609   6.044  16.946  0.00  0.00    +0.000 C 
BRANCH  13  14
ATOM     14  C   UNL     1       5.277   4.719  17.318  0.00  0.00    +0.000 C 
BRANCH  14  15
ATOM     15  C   UNL     1       4.242   3.623  17.525  0.00  0.00    +0.000 C 
BRANCH  15  16
ATOM     16  C   UNL     1       4.172   3.178  18.976  0.00  0.00    +0.000 C 
ATOM     17  O   UNL     1       5.174   2.872  19.624  0.00  0.00    +0.000 OA
ATOM     18  N   UNL     1       2.907   3.147  19.536  0.00  0.00    +0.000 N 
ATOM     19  C   UNL     1       2.728   2.858  20.920  0.00  0.00    +0.000 C 
ATOM     20  C   UNL     1       1.261   3.140  21.117  0.00  0.00    +0.000 C 
ATOM     21  O   UNL     1       0.682   2.920  19.829  0.00  0.00    +0.000 OA
ATOM     22  C   UNL     1       1.679   3.062  18.897  0.00  0.00    +0.000 C 
ATOM     23  O   UNL     1       1.452   3.104  17.701  0.00  0.00    +0.000 OA
ENDBRANCH  15  16
ENDBRANCH  14  15
ENDBRANCH  13  14
ENDBRANCH   1  13
TORSDOF 8
ENDMDL
MODEL 8
REMARK VINA RESULT:      -7.0      4.878      8.371
REMARK  Name = 
REMARK  8 active torsions:
REMARK  status: ('A' for Active; 'I' for Inactive)
REMARK    1  A    between atoms: C_2  and  O_3
REMARK    2  A    between atoms: C_2  and  C_4
REMARK    3  A    between atoms: C_8  and  C_9
REMARK    4  A    between atoms: C_9  and  C_10
REMARK    5  A    between atoms: C_10  and  C_11
REMARK    6  A    between atoms: C_11  and  C_12
REMARK    7  A    between atoms: C_12  and  C_13
REMARK    8  A    between atoms: C_13  and  C_14
REMARK                            x       y       z     vdW  Elec       q    Type
REMARK                         _______ _______ _______ _____ _____    ______ ____
ROOT
ATOM      1  C   UNL     1       2.404   8.035  18.575  0.00  0.00    +0.000 C 
ENDROOT
BRANCH   1   2
ATOM      2  C   UNL     1       1.489   9.117  17.997  0.00  0.00    +0.000 C 
BRANCH   2   7
ATOM      3  C   UNL     1      -0.072  10.026  21.345  0.00  0.00    +0.000 A 
ATOM      4  C   UNL     1      -0.651  11.267  21.052  0.00  0.00    +0.000 A 
ATOM      5  C   UNL     1      -0.543  11.799  19.767  0.00  0.00    +0.000 A 
ATOM      6  C   UNL     1       0.148  11.100  18.781  0.00  0.00    +0.000 A 
ATOM      7  C   UNL     1       0.742   9.862  19.067  0.00  0.00    +0.000 A 
ATOM      8  C   UNL     1       0.639   9.335  20.358  0.00  0.00    +0.000 A 
BRANCH   3  10
ATOM      9  O   UNL     1       0.427   9.863  23.665  0.00  0.00    +0.000 OA
ATOM     10  C   UNL     1      -0.158   9.417  22.693  0.00  0.00    +0.000 C 
BRANCH  10  11
ATOM     11  O   UNL     1      -0.901   8.290  22.727  0.00  0.00    +0.000 OA
ATOM     12  H   UNL     1      -1.626   8.303  23.378  0.00  0.00    +0.000 HD
ENDBRANCH  10  11
ENDBRANCH   3  10
ENDBRANCH   2   7
ENDBRANCH   1   2
BRANCH   1  13
ATOM     13  C   UNL     1       3.014   7.149  17.488  0.00  0.00    +0.000 C 
BRANCH  13  14
ATOM     14  C   UNL     1       4.175   6.302  18.011  0.00  0.00    +0.000 C 
BRANCH  14  15
ATOM     15  C   UNL     1       3.988   4.835  17.652  0.00  0.00    +0.000 C 
BRANCH  15  16
ATOM     16  C   UNL     1       4.056   3.940  18.877  0.00  0.00    +0.000 C 
ATOM     17  O   UNL     1       5.122   3.582  19.378  0.00  0.00    +0.000 OA
ATOM     18  N   UNL     1       2.838   3.556  19.409  0.00  0.00    +0.000 N 
ATOM     19  C   UNL     1       2.773   2.813  20.625  0.00  0.00    +0.000 C 
ATOM     20  C   UNL     1       1.296   2.812  20.918  0.00  0.00    +0.000 C 
ATOM     21  O   UNL     1       0.679   2.942  19.636  0.00  0.00    +0.000 OA
ATOM     22  C   UNL     1       1.597   3.513  18.792  0.00  0.00    +0.000 C 
ATOM     23  O   UNL     1       1.301   3.908  17.677  0.00  0.00    +0.000 OA
ENDBRANCH  15  16
ENDBRANCH  14  15
ENDBRANCH  13  14
ENDBRANCH   1  13
TORSDOF 8
ENDMDL
MODEL 9
REMARK VINA RESULT:      -7.0      1.548      2.284
REMARK  Name = 
REMARK  8 active torsions:
REMARK  status: ('A' for Active; 'I' for Inactive)
REMARK    1  A    between atoms: C_2  and  O_3
REMARK    2  A    between atoms: C_2  and  C_4
REMARK    3  A    between atoms: C_8  and  C_9
REMARK    4  A    between atoms: C_9  and  C_10
REMARK    5  A    between atoms: C_10  and  C_11
REMARK    6  A    between atoms: C_11  and  C_12
REMARK    7  A    between atoms: C_12  and  C_13
REMARK    8  A    between atoms: C_13  and  C_14
REMARK                            x       y       z     vdW  Elec       q    Type
REMARK                         _______ _______ _______ _____ _____    ______ ____
ROOT
ATOM      1  C   UNL     1       5.659   3.798  16.487  0.00  0.00    +0.000 C 
ENDROOT
BRANCH   1   2
ATOM      2  C   UNL     1       6.523   4.895  15.861  0.00  0.00    +0.000 C 
BRANCH   2   7
ATOM      3  C   UNL     1       6.184   3.544  12.322  0.00  0.00    +0.000 A 
ATOM      4  C   UNL     1       7.154   4.293  11.644  0.00  0.00    +0.000 A 
ATOM      5  C   UNL     1       7.923   5.226  12.342  0.00  0.00    +0.000 A 
ATOM      6  C   UNL     1       7.717   5.417  13.706  0.00  0.00    +0.000 A 
ATOM      7  C   UNL     1       6.740   4.680  14.389  0.00  0.00    +0.000 A 
ATOM      8  C   UNL     1       5.966   3.751  13.688  0.00  0.00    +0.000 A 
BRANCH   3  10
ATOM      9  O   UNL     1       4.226   2.785  11.204  0.00  0.00    +0.000 OA
ATOM     10  C   UNL     1       5.342   2.539  11.629  0.00  0.00    +0.000 C 
BRANCH  10  11
ATOM     11  O   UNL     1       5.909   1.316  11.565  0.00  0.00    +0.000 OA
ATOM     12  H   UNL     1       5.275   0.580  11.490  0.00  0.00    +0.000 HD
ENDBRANCH  10  11
ENDBRANCH   3  10
ENDBRANCH   2   7
ENDBRANCH   1   2
BRANCH   1  13
ATOM     13  C   UNL     1       4.194   4.218  16.618  0.00  0.00    +0.000 C 
BRANCH  13  14
ATOM     14  C   UNL     1       4.041   5.614  17.225  0.00  0.00    +0.000 C 
BRANCH  14  15
ATOM     15  C   UNL     1       4.447   5.622  18.691  0.00  0.00    +0.000 C 
BRANCH  15  16
ATOM     16  C   UNL     1       3.239   5.630  19.612  0.00  0.00    +0.000 C 
ATOM     17  O   UNL     1       2.633   6.663  19.900  0.00  0.00    +0.000 OA
ATOM     18  N   UNL     1       2.849   4.397  20.104  0.00  0.00    +0.000 N 
ATOM     19  C   UNL     1       1.663   4.263  20.884  0.00  0.00    +0.000 C 
ATOM     20  C   UNL     1       1.531   2.768  21.008  0.00  0.00    +0.000 C 
ATOM     21  O   UNL     1       2.870   2.283  20.890  0.00  0.00    +0.000 OA
ATOM     22  C   UNL     1       3.599   3.236  20.226  0.00  0.00    +0.000 C 
ATOM     23  O   UNL     1       4.731   3.030  19.824  0.00  0.00    +0.000 OA
ENDBRANCH  15  16
ENDBRANCH  14  15
ENDBRANCH  13  14
ENDBRANCH   1  13
TORSDOF 8
ENDMDL
