MODEL 1
REMARK VINA RESULT:      -5.8      0.000      0.000
REMARK  Name = 
REMARK  5 active torsions:
REMARK  status: ('A' for Active; 'I' for Inactive)
REMARK    1  A    between atoms: C_1  and  N_2
REMARK    2  A    between atoms: C_3  and  C_4
REMARK    3  A    between atoms: C_4  and  O_5
REMARK    4  A    between atoms: O_5  and  C_6
REMARK    5  A    between atoms: N_12  and  C_13
REMARK                            x       y       z     vdW  Elec       q    Type
REMARK                         _______ _______ _______ _____ _____    ______ ____
ROOT
ATOM      1  C   UNL     1       4.505   4.356  17.366  0.00  0.00    +0.000 C 
ENDROOT
BRANCH   1   4
ATOM      2  C   UNL     1       6.314   4.066  14.074  0.00  0.00    +0.000 C 
ATOM      3  N   UNL     1       5.302   4.129  15.122  0.00  0.00    +0.000 NA
ATOM      4  C   UNL     1       5.675   4.217  16.357  0.00  0.00    +0.000 C 
ATOM      5  N   UNL     1       6.992   4.207  16.770  0.00  0.00    +0.000 N 
ATOM      6  C   UNL     1       7.525   4.771  17.982  0.00  0.00    +0.000 C 
ATOM      7  H   UNL     1       7.686   3.989  16.071  0.00  0.00    +0.000 HD
ENDBRANCH   1   4
BRANCH   1   8
ATOM      8  O   UNL     1       4.237   3.183  18.114  0.00  0.00    +0.000 OA
BRANCH   8   9
ATOM      9  C   UNL     1       3.221   3.235  19.025  0.00  0.00    +0.000 A 
ATOM     10  C   UNL     1       3.546   2.707  20.278  0.00  0.00    +0.000 A 
ATOM     11  C   UNL     1       2.602   2.675  21.305  0.00  0.00    +0.000 A 
ATOM     12  C   UNL     1       1.327   3.189  21.087  0.00  0.00    +0.000 A 
ATOM     13  C   UNL     1       1.002   3.742  19.849  0.00  0.00    +0.000 A 
ATOM     14  C   UNL     1       1.948   3.767  18.817  0.00  0.00    +0.000 A 
ENDBRANCH   8   9
ENDBRANCH   1   8
TORSDOF 3
ENDMDL
MODEL 2
REMARK VINA RESULT:      -5.8      1.399      1.489
REMARK  Name = 
REMARK  5 active torsions:
REMARK  status: ('A' for Active; 'I' for Inactive)
REMARK    1  A    between atoms: C_1  and  N_2
REMARK    2  A    between atoms: C_3  and  C_4
REMARK    3  A    between atoms: C_4  and  O_5
REMARK    4  A    between atoms: O_5  and  C_6
REMARK    5  A    between atoms: N_12  and  C_13
REMARK                            x       y       z     vdW  Elec       q    Type
REMARK                         _______ _______ _______ _____ _____    ______ ____
ROOT
ATOM      1  C   UNL     1       4.748   5.425  17.768  0.00  0.00    +0.000 C 
ENDROOT
BRANCH   1   4
ATOM      2  C   UNL     1       6.068   3.967  14.554  0.00  0.00    +0.000 C 
ATOM      3  N   UNL     1       5.230   4.559  15.590  0.00  0.00    +0.000 NA
ATOM      4  C   UNL     1       5.711   4.715  16.781  0.00  0.00    +0.000 C 
ATOM      5  N   UNL     1       6.973   4.309  17.164  0.00  0.00    +0.000 N 
ATOM      6  C   UNL     1       7.766   4.842  18.241  0.00  0.00    +0.000 C 
ATOM      7  H   UNL     1       7.490   3.745  16.506  0.00  0.00    +0.000 HD
ENDBRANCH   1   4
BRANCH   1   8
ATOM      8  O   UNL     1       3.377   5.313  17.428  0.00  0.00    +0.000 OA
BRANCH   8   9
ATOM      9  C   UNL     1       2.552   4.703  18.330  0.00  0.00    +0.000 A 
ATOM     10  C   UNL     1       2.467   5.356  19.563  0.00  0.00    +0.000 A 
ATOM     11  C   UNL     1       1.676   4.838  20.590  0.00  0.00    +0.000 A 
ATOM     12  C   UNL     1       0.949   3.669  20.380  0.00  0.00    +0.000 A 
ATOM     13  C   UNL     1       1.007   3.027  19.144  0.00  0.00    +0.000 A 
ATOM     14  C   UNL     1       1.807   3.543  18.118  0.00  0.00    +0.000 A 
ENDBRANCH   8   9
ENDBRANCH   1   8
TORSDOF 3
ENDMDL
MODEL 3
REMARK VINA RESULT:      -5.7      2.255      3.277
REMARK  Name = 
REMARK  5 active torsions:
REMARK  status: ('A' for Active; 'I' for Inactive)
REMARK    1  A    between atoms: C_1  and  N_2
REMARK    2  A    between atoms: C_3  and  C_4
REMARK    3  A    between atoms: C_4  and  O_5
REMARK    4  A    between atoms: O_5  and  C_6
REMARK    5  A    between atoms: N_12  and  C_13
REMARK                            x       y       z     vdW  Elec       q    Type
REMARK                         _______ _______ _______ _____ _____    ______ ____
ROOT
ATOM      1  C   UNL     1       6.839   4.608  17.913  0.00  0.00    +0.000 C 
ENDROOT
BRANCH   1   4
ATOM      2  C   UNL     1       7.817   8.235  17.620  0.00  0.00    +0.000 C 
ATOM      3  N   UNL     1       7.645   6.856  18.062  0.00  0.00    +0.000 NA
ATOM      4  C   UNL     1       6.877   6.066  17.385  0.00  0.00    +0.000 C 
ATOM      5  N   UNL     1       6.153   6.455  16.275  0.00  0.00    +0.000 N 
ATOM      6  C   UNL     1       5.691   5.614  15.202  0.00  0.00    +0.000 C 
ATOM      7  H   UNL     1       6.131   7.442  16.069  0.00  0.00    +0.000 HD
ENDBRANCH   1   4
BRANCH   1   8
ATOM      8  O   UNL     1       5.859   4.372  18.907  0.00  0.00    +0.000 OA
BRANCH   8   9
ATOM      9  C   UNL     1       4.560   4.268  18.499  0.00  0.00    +0.000 A 
ATOM     10  C   UNL     1       3.702   5.217  19.062  0.00  0.00    +0.000 A 
ATOM     11  C   UNL     1       2.342   5.222  18.752  0.00  0.00    +0.000 A 
ATOM     12  C   UNL     1       1.833   4.282  17.860  0.00  0.00    +0.000 A 
ATOM     13  C   UNL     1       2.686   3.348  17.273  0.00  0.00    +0.000 A 
ATOM     14  C   UNL     1       4.049   3.340  17.590  0.00  0.00    +0.000 A 
ENDBRANCH   8   9
ENDBRANCH   1   8
TORSDOF 3
ENDMDL
MODEL 4
REMARK VINA RESULT:      -5.7      1.570      2.604
REMARK  Name = 
REMARK  5 active torsions:
REMARK  status: ('A' for Active; 'I' for Inactive)
REMARK    1  A    between atoms: C_1  and  N_2
REMARK    2  A    between atoms: C_3  and  C_4
REMARK    3  A    between atoms: C_4  and  O_5
REMARK    4  A    between atoms: O_5  and  C_6
REMARK    5  A    between atoms: N_12  and  C_13
REMARK                            x       y       z     vdW  Elec       q    Type
REMARK                         _______ _______ _______ _____ _____    ______ ____
ROOT
ATOM      1  C   UNL     1       4.948   4.121  17.422  0.00  0.00    +0.000 C 
ENDROOT
BRANCH   1   4
ATOM      2  C   UNL     1       7.845   5.679  19.260  0.00  0.00    +0.000 C 
ATOM      3  N   UNL     1       6.579   5.047  18.908  0.00  0.00    +0.000 NA
ATOM      4  C   UNL     1       6.284   4.872  17.661  0.00  0.00    +0.000 C 
ATOM      5  N   UNL     1       7.077   5.293  16.613  0.00  0.00    +0.000 N 
ATOM      6  C   UNL     1       7.114   4.751  15.280  0.00  0.00    +0.000 C 
ATOM      7  H   UNL     1       7.863   5.882  16.844  0.00  0.00    +0.000 HD
ENDBRANCH   1   4
BRANCH   1   8
ATOM      8  O   UNL     1       3.791   4.924  17.576  0.00  0.00    +0.000 OA
BRANCH   8   9
ATOM      9  C   UNL     1       2.932   4.605  18.588  0.00  0.00    +0.000 A 
ATOM     10  C   UNL     1       1.980   3.639  18.250  0.00  0.00    +0.000 A 
ATOM     11  C   UNL     1       1.023   3.226  19.179  0.00  0.00    +0.000 A 
ATOM     12  C   UNL     1       1.026   3.767  20.461  0.00  0.00    +0.000 A 
ATOM     13  C   UNL     1       1.990   4.710  20.816  0.00  0.00    +0.000 A 
ATOM     14  C   UNL     1       2.944   5.129  19.881  0.00  0.00    +0.000 A 
ENDBRANCH   8   9
ENDBRANCH   1   8
TORSDOF 3
ENDMDL
MODEL 5
REMARK VINA RESULT:      -5.7      1.729      1.968
REMARK  Name = 
REMARK  5 active torsions:
REMARK  status: ('A' for Active; 'I' for Inactive)
REMARK    1  A    between atoms: C_1  and  N_2
REMARK    2  A    between atoms: C_3  and  C_4
REMARK    3  A    between atoms: C_4  and  O_5
REMARK    4  A    between atoms: O_5  and  C_6
REMARK    5  A    between atoms: N_12  and  C_13
REMARK                            x       y       z     vdW  Elec       q    Type
REMARK                         _______ _______ _______ _____ _____    ______ ____
ROOT
ATOM      1  C   UNL     1       5.255   5.507  17.872  0.00  0.00    +0.000 C 
ENDROOT
BRANCH   1   4
ATOM      2  C   UNL     1       6.732   4.800  14.479  0.00  0.00    +0.000 C 
ATOM      3  N   UNL     1       5.917   4.789  15.688  0.00  0.00    +0.000 NA
ATOM      4  C   UNL     1       6.244   5.553  16.679  0.00  0.00    +0.000 C 
ATOM      5  N   UNL     1       7.363   6.361  16.695  0.00  0.00    +0.000 N 
ATOM      6  C   UNL     1       7.557   7.559  17.470  0.00  0.00    +0.000 C 
ATOM      7  H   UNL     1       8.021   6.243  15.940  0.00  0.00    +0.000 HD
ENDBRANCH   1   4
BRANCH   1   8
ATOM      8  O   UNL     1       3.897   5.696  17.513  0.00  0.00    +0.000 OA
BRANCH   8   9
ATOM      9  C   UNL     1       2.950   5.098  18.294  0.00  0.00    +0.000 A 
ATOM     10  C   UNL     1       2.846   5.632  19.582  0.00  0.00    +0.000 A 
ATOM     11  C   UNL     1       1.934   5.110  20.499  0.00  0.00    +0.000 A 
ATOM     12  C   UNL     1       1.104   4.057  20.125  0.00  0.00    +0.000 A 
ATOM     13  C   UNL     1       1.181   3.536  18.835  0.00  0.00    +0.000 A 
ATOM     14  C   UNL     1       2.102   4.056  17.918  0.00  0.00    +0.000 A 
ENDBRANCH   8   9
ENDBRANCH   1   8
TORSDOF 3
ENDMDL
MODEL 6
REMARK VINA RESULT:      -5.7      1.829      2.605
REMARK  Name = 
REMARK  5 active torsions:
REMARK  status: ('A' for Active; 'I' for Inactive)
REMARK    1  A    between atoms: C_1  and  N_2
REMARK    2  A    between atoms: C_3  and  C_4
REMARK    3  A    between atoms: C_4  and  O_5
REMARK    4  A    between atoms: O_5  and  C_6
REMARK    5  A    between atoms: N_12  and  C_13
REMARK                            x       y       z     vdW  Elec       q    Type
REMARK                         _______ _______ _______ _____ _____    ______ ____
ROOT
ATOM      1  C   UNL     1       4.560   5.040  16.831  0.00  0.00    +0.000 C 
ENDROOT
BRANCH   1   4
ATOM      2  C   UNL     1       7.468   7.337  17.512  0.00  0.00    +0.000 C 
ATOM      3  N   UNL     1       6.210   6.603  17.579  0.00  0.00    +0.000 NA
ATOM      4  C   UNL     1       5.881   5.820  16.604  0.00  0.00    +0.000 C 
ATOM      5  N   UNL     1       6.629   5.660  15.455  0.00  0.00    +0.000 N 
ATOM      6  C   UNL     1       6.639   4.519  14.577  0.00  0.00    +0.000 C 
ATOM      7  H   UNL     1       7.405   6.292  15.325  0.00  0.00    +0.000 HD
ENDBRANCH   1   4
BRANCH   1   8
ATOM      8  O   UNL     1       3.566   5.767  17.532  0.00  0.00    +0.000 OA
BRANCH   8   9
ATOM      9  C   UNL     1       2.693   5.056  18.305  0.00  0.00    +0.000 A 
ATOM     10  C   UNL     1       2.512   5.573  19.591  0.00  0.00    +0.000 A 
ATOM     11  C   UNL     1       1.663   4.941  20.500  0.00  0.00    +0.000 A 
ATOM     12  C   UNL     1       0.973   3.794  20.119  0.00  0.00    +0.000 A 
ATOM     13  C   UNL     1       1.127   3.287  18.830  0.00  0.00    +0.000 A 
ATOM     14  C   UNL     1       1.985   3.917  17.921  0.00  0.00    +0.000 A 
ENDBRANCH   8   9
ENDBRANCH   1   8
TORSDOF 3
ENDMDL
MODEL 7
REMARK VINA RESULT:      -5.7      2.727      5.655
REMARK  Name = 
REMARK  5 active torsions:
REMARK  status: ('A' for Active; 'I' for Inactive)
REMARK    1  A    between atoms: C_1  and  N_2
REMARK    2  A    between atoms: C_3  and  C_4
REMARK    3  A    between atoms: C_4  and  O_5
REMARK    4  A    between atoms: O_5  and  C_6
REMARK    5  A    between atoms: N_12  and  C_13
REMARK                            x       y       z     vdW  Elec       q    Type
REMARK                         _______ _______ _______ _____ _____    ______ ____
ROOT
ATOM      1  C   UNL     1       4.478   3.325  18.857  0.00  0.00    +0.000 C 
ENDROOT
BRANCH   1   4
ATOM      2  C   UNL     1       1.931   2.760  21.575  0.00  0.00    +0.000 C 
ATOM      3  N   UNL     1       3.153   2.811  20.781  0.00  0.00    +0.000 NA
ATOM      4  C   UNL     1       3.100   3.248  19.566  0.00  0.00    +0.000 C 
ATOM      5  N   UNL     1       1.936   3.635  18.933  0.00  0.00    +0.000 N 
ATOM      6  C   UNL     1       1.810   4.556  17.834  0.00  0.00    +0.000 C 
ATOM      7  H   UNL     1       1.070   3.439  19.413  0.00  0.00    +0.000 HD
ENDBRANCH   1   4
BRANCH   1   8
ATOM      8  O   UNL     1       5.428   4.144  19.514  0.00  0.00    +0.000 OA
BRANCH   8   9
ATOM      9  C   UNL     1       5.977   5.170  18.799  0.00  0.00    +0.000 A 
ATOM     10  C   UNL     1       7.252   5.550  19.227  0.00  0.00    +0.000 A 
ATOM     11  C   UNL     1       7.931   6.598  18.603  0.00  0.00    +0.000 A 
ATOM     12  C   UNL     1       7.341   7.262  17.532  0.00  0.00    +0.000 A 
ATOM     13  C   UNL     1       6.081   6.872  17.081  0.00  0.00    +0.000 A 
ATOM     14  C   UNL     1       5.399   5.826  17.712  0.00  0.00    +0.000 A 
ENDBRANCH   8   9
ENDBRANCH   1   8
TORSDOF 3
ENDMDL
MODEL 8
REMARK VINA RESULT:      -5.6      1.504      1.924
REMARK  Name = 
REMARK  5 active torsions:
REMARK  status: ('A' for Active; 'I' for Inactive)
REMARK    1  A    between atoms: C_1  and  N_2
REMARK    2  A    between atoms: C_3  and  C_4
REMARK    3  A    between atoms: C_4  and  O_5
REMARK    4  A    between atoms: O_5  and  C_6
REMARK    5  A    between atoms: N_12  and  C_13
REMARK                            x       y       z     vdW  Elec       q    Type
REMARK                         _______ _______ _______ _____ _____    ______ ____
ROOT
ATOM      1  C   UNL     1       5.493   4.819  18.515  0.00  0.00    +0.000 C 
ENDROOT
BRANCH   1   4
ATOM      2  C   UNL     1       6.353   4.069  14.924  0.00  0.00    +0.000 C 
ATOM      3  N   UNL     1       5.784   4.054  16.267  0.00  0.00    +0.000 NA
ATOM      4  C   UNL     1       6.234   4.882  17.154  0.00  0.00    +0.000 C 
ATOM      5  N   UNL     1       7.270   5.765  16.932  0.00  0.00    +0.000 N 
ATOM      6  C   UNL     1       7.516   7.006  17.619  0.00  0.00    +0.000 C 
ATOM      7  H   UNL     1       7.781   5.660  16.068  0.00  0.00    +0.000 HD
ENDBRANCH   1   4
BRANCH   1   8
ATOM      8  O   UNL     1       4.267   5.527  18.547  0.00  0.00    +0.000 OA
BRANCH   8   9
ATOM      9  C   UNL     1       3.168   4.864  19.013  0.00  0.00    +0.000 A 
ATOM     10  C   UNL     1       2.512   4.092  18.051  0.00  0.00    +0.000 A 
ATOM     11  C   UNL     1       1.361   3.373  18.376  0.00  0.00    +0.000 A 
ATOM     12  C   UNL     1       0.870   3.409  19.678  0.00  0.00    +0.000 A 
ATOM     13  C   UNL     1       1.533   4.154  20.651  0.00  0.00    +0.000 A 
ATOM     14  C   UNL     1       2.683   4.881  20.321  0.00  0.00    +0.000 A 
ENDBRANCH   8   9
ENDBRANCH   1   8
TORSDOF 3
ENDMDL
MODEL 9
REMARK VINA RESULT:      -5.6      0.760      1.945
REMARK  Name = 
REMARK  5 active torsions:
REMARK  status: ('A' for Active; 'I' for Inactive)
REMARK    1  A    between atoms: C_1  and  N_2
REMARK    2  A    between atoms: C_3  and  C_4
REMARK    3  A    between atoms: C_4  and  O_5
REMARK    4  A    between atoms: O_5  and  C_6
REMARK    5  A    between atoms: N_12  and  C_13
REMARK                            x       y       z     vdW  Elec       q    Type
REMARK                         _______ _______ _______ _____ _____    ______ ____
ROOT
ATOM      1  C   UNL     1       4.214   3.927  17.036  0.00  0.00    +0.000 C 
ENDROOT
BRANCH   1   4
ATOM      2  C   UNL     1       7.592   5.069  18.254  0.00  0.00    +0.000 C 
ATOM      3  N   UNL     1       6.194   4.664  18.159  0.00  0.00    +0.000 NA
ATOM      4  C   UNL     1       5.683   4.422  16.995  0.00  0.00    +0.000 C 
ATOM      5  N   UNL     1       6.367   4.569  15.805  0.00  0.00    +0.000 N 
ATOM      6  C   UNL     1       6.099   3.895  14.562  0.00  0.00    +0.000 C 
ATOM      7  H   UNL     1       7.271   5.013  15.852  0.00  0.00    +0.000 HD
ENDBRANCH   1   4
BRANCH   1   8
ATOM      8  O   UNL     1       4.008   2.775  17.835  0.00  0.00    +0.000 OA
BRANCH   8   9
ATOM      9  C   UNL     1       3.041   2.840  18.797  0.00  0.00    +0.000 A 
ATOM     10  C   UNL     1       3.525   2.758  20.105  0.00  0.00    +0.000 A 
ATOM     11  C   UNL     1       2.651   2.791  21.192  0.00  0.00    +0.000 A 
ATOM     12  C   UNL     1       1.283   2.926  20.975  0.00  0.00    +0.000 A 
ATOM     13  C   UNL     1       0.793   3.036  19.674  0.00  0.00    +0.000 A 
ATOM     14  C   UNL     1       1.670   2.994  18.584  0.00  0.00    +0.000 A 
ENDBRANCH   8   9
ENDBRANCH   1   8
TORSDOF 3
ENDMDL
