MODEL 1
REMARK VINA RESULT:      -7.3      0.000      0.000
REMARK  Name = 
REMARK  15 active torsions:
REMARK  status: ('A' for Active; 'I' for Inactive)
REMARK    1  A    between atoms: C_1  and  C_2
REMARK    2  A    between atoms: C_2  and  O_3
REMARK    3  A    between atoms: O_3  and  P_4
REMARK    4  A    between atoms: P_4  and  O_6
REMARK    5  A    between atoms: P_4  and  C_9
REMARK    6  A    between atoms: O_6  and  C_7
REMARK    7  A    between atoms: C_7  and  C_8
REMARK    8  A    between atoms: C_9  and  O_10
REMARK    9  A    between atoms: C_9  and  C_11
REMARK   10  A    between atoms: C_11  and  C_12
REMARK   11  A    between atoms: C_12  and  C_13
REMARK   12  A    between atoms: C_13  and  C_14
REMARK   13  A    between atoms: C_14  and  C_15
REMARK   14  A    between atoms: C_15  and  N_16
REMARK   15  A    between atoms: N_22  and  C_23
REMARK                            x       y       z     vdW  Elec       q    Type
REMARK                         _______ _______ _______ _____ _____    ______ ____
ROOT
ATOM      1  C   UNL     1       7.543   7.929  17.706  0.00  0.00    +0.000 C 
ENDROOT
BRANCH   1   2
ATOM      2  C   UNL     1       8.501   8.886  18.474  0.00  0.00    +0.000 C 
BRANCH   2   3
ATOM      3  C   UNL     1       8.524  10.245  17.788  0.00  0.00    +0.000 C 
BRANCH   3   4
ATOM      4  C   UNL     1       9.521  11.334  18.154  0.00  0.00    +0.000 C 
BRANCH   4   5
ATOM      5  C   UNL     1       8.829  12.743  18.048  0.00  0.00    +0.000 C 
BRANCH   5   6
ATOM      6  P   UNL     1       9.851  14.247  17.848  0.00  0.00    +0.000 P 
ATOM      7  S   UNL     1      11.450  13.222  17.089  0.00  0.00    +0.000 S 
BRANCH   6   8
ATOM      8  O   UNL     1      10.818  15.670  17.660  0.00  0.00    +0.000 OA
BRANCH   8  10
ATOM      9  C   UNL     1      11.511  18.014  17.475  0.00  0.00    +0.000 C 
ATOM     10  C   UNL     1      10.388  17.003  17.485  0.00  0.00    +0.000 C 
ENDBRANCH   8  10
ENDBRANCH   6   8
BRANCH   6  11
ATOM     11  O   UNL     1       9.760  14.611  19.447  0.00  0.00    +0.000 OA
BRANCH  11  12
ATOM     12  C   UNL     1      10.591  14.066  20.464  0.00  0.00    +0.000 C 
ATOM     13  C   UNL     1       9.896  13.290  21.565  0.00  0.00    +0.000 C 
ENDBRANCH  11  12
ENDBRANCH   6  11
ENDBRANCH   5   6
BRANCH   5  14
ATOM     14  O   UNL     1       7.872  12.718  16.968  0.00  0.00    +0.000 OA
ATOM     15  H   UNL     1       7.025  13.029  17.344  0.00  0.00    +0.000 HD
ENDBRANCH   5  14
ENDBRANCH   4   5
ENDBRANCH   3   4
ENDBRANCH   2   3
ENDBRANCH   1   2
BRANCH   1  16
ATOM     16  C   UNL     1       7.796   6.440  18.023  0.00  0.00    +0.000 C 
BRANCH  16  17
ATOM     17  N   UNL     1       6.755   5.548  17.517  0.00  0.00    +0.000 N 
ATOM     18  C   UNL     1       6.745   5.253  16.153  0.00  0.00    +0.000 A 
ATOM     19  O   UNL     1       7.547   5.687  15.334  0.00  0.00    +0.000 OA
ATOM     20  C   UNL     1       5.711   4.326  15.707  0.00  0.00    +0.000 A 
ATOM     21  F   UNL     1       5.666   4.026  14.395  0.00  0.00    +0.000 F 
ATOM     22  C   UNL     1       4.871   3.782  16.580  0.00  0.00    +0.000 A 
ATOM     23  N   UNL     1       4.937   4.090  17.919  0.00  0.00    +0.000 N 
ATOM     24  C   UNL     1       5.909   4.954  18.442  0.00  0.00    +0.000 A 
ATOM     25  O   UNL     1       6.014   5.143  19.656  0.00  0.00    +0.000 OA
BRANCH  23  26
ATOM     26  C   UNL     1       3.993   3.501  18.852  0.00  0.00    +0.000 C 
ATOM     27  C   UNL     1       3.505   2.119  18.441  0.00  0.00    +0.000 C 
ATOM     28  C   UNL     1       2.160   2.071  19.118  0.00  0.00    +0.000 C 
ATOM     29  C   UNL     1       1.671   3.495  18.972  0.00  0.00    +0.000 C 
ATOM     30  O   UNL     1       2.828   4.336  18.960  0.00  0.00    +0.000 OA
ENDBRANCH  23  26
ENDBRANCH  16  17
ENDBRANCH   1  16
TORSDOF 13
ENDMDL
MODEL 2
REMARK VINA RESULT:      -7.1      1.217      1.471
REMARK  Name = 
REMARK  15 active torsions:
REMARK  status: ('A' for Active; 'I' for Inactive)
REMARK    1  A    between atoms: C_1  and  C_2
REMARK    2  A    between atoms: C_2  and  O_3
REMARK    3  A    between atoms: O_3  and  P_4
REMARK    4  A    between atoms: P_4  and  O_6
REMARK    5  A    between atoms: P_4  and  C_9
REMARK    6  A    between atoms: O_6  and  C_7
REMARK    7  A    between atoms: C_7  and  C_8
REMARK    8  A    between atoms: C_9  and  O_10
REMARK    9  A    between atoms: C_9  and  C_11
REMARK   10  A    between atoms: C_11  and  C_12
REMARK   11  A    between atoms: C_12  and  C_13
REMARK   12  A    between atoms: C_13  and  C_14
REMARK   13  A    between atoms: C_14  and  C_15
REMARK   14  A    between atoms: C_15  and  N_16
REMARK   15  A    between atoms: N_22  and  C_23
REMARK                            x       y       z     vdW  Elec       q    Type
REMARK                         _______ _______ _______ _____ _____    ______ ____
ROOT
ATOM      1  C   UNL     1       7.879   6.387  18.818  0.00  0.00    +0.000 C 
ENDROOT
BRANCH   1   2
ATOM      2  C   UNL     1       7.837   7.561  17.798  0.00  0.00    +0.000 C 
BRANCH   2   3
ATOM      3  C   UNL     1       8.360   8.829  18.455  0.00  0.00    +0.000 C 
BRANCH   3   4
ATOM      4  C   UNL     1       8.487  10.150  17.711  0.00  0.00    +0.000 C 
BRANCH   4   5
ATOM      5  C   UNL     1       9.602  11.032  18.386  0.00  0.00    +0.000 C 
BRANCH   5   6
ATOM      6  P   UNL     1       9.472  12.857  18.336  0.00  0.00    +0.000 P 
ATOM      7  S   UNL     1      11.111  13.074  17.131  0.00  0.00    +0.000 S 
BRANCH   6   8
ATOM      8  O   UNL     1       9.349  14.583  18.290  0.00  0.00    +0.000 OA
BRANCH   8  10
ATOM      9  C   UNL     1      10.698  16.579  18.743  0.00  0.00    +0.000 C 
ATOM     10  C   UNL     1      10.271  15.512  17.762  0.00  0.00    +0.000 C 
ENDBRANCH   8  10
ENDBRANCH   6   8
BRANCH   6  11
ATOM     11  O   UNL     1       9.597  12.984  19.968  0.00  0.00    +0.000 OA
BRANCH  11  12
ATOM     12  C   UNL     1       8.874  13.902  20.780  0.00  0.00    +0.000 C 
ATOM     13  C   UNL     1       9.659  14.613  21.864  0.00  0.00    +0.000 C 
ENDBRANCH  11  12
ENDBRANCH   6  11
ENDBRANCH   5   6
BRANCH   5  14
ATOM     14  O   UNL     1       9.740  10.642  19.768  0.00  0.00    +0.000 OA
ATOM     15  H   UNL     1       9.776  11.470  20.285  0.00  0.00    +0.000 HD
ENDBRANCH   5  14
ENDBRANCH   4   5
ENDBRANCH   3   4
ENDBRANCH   2   3
ENDBRANCH   1   2
BRANCH   1  16
ATOM     16  C   UNL     1       7.919   5.000  18.142  0.00  0.00    +0.000 C 
BRANCH  16  17
ATOM     17  N   UNL     1       6.654   4.613  17.523  0.00  0.00    +0.000 N 
ATOM     18  C   UNL     1       6.560   4.656  16.131  0.00  0.00    +0.000 A 
ATOM     19  O   UNL     1       7.463   4.997  15.376  0.00  0.00    +0.000 OA
ATOM     20  C   UNL     1       5.290   4.220  15.562  0.00  0.00    +0.000 A 
ATOM     21  F   UNL     1       5.161   4.258  14.222  0.00  0.00    +0.000 F 
ATOM     22  C   UNL     1       4.315   3.777  16.348  0.00  0.00    +0.000 A 
ATOM     23  N   UNL     1       4.466   3.735  17.714  0.00  0.00    +0.000 N 
ATOM     24  C   UNL     1       5.657   4.113  18.348  0.00  0.00    +0.000 A 
ATOM     25  O   UNL     1       5.808   3.978  19.565  0.00  0.00    +0.000 OA
BRANCH  23  26
ATOM     26  C   UNL     1       3.378   3.268  18.556  0.00  0.00    +0.000 C 
ATOM     27  C   UNL     1       2.463   2.262  17.873  0.00  0.00    +0.000 C 
ATOM     28  C   UNL     1       1.175   2.482  18.624  0.00  0.00    +0.000 C 
ATOM     29  C   UNL     1       1.183   3.977  18.853  0.00  0.00    +0.000 C 
ATOM     30  O   UNL     1       2.553   4.379  18.947  0.00  0.00    +0.000 OA
ENDBRANCH  23  26
ENDBRANCH  16  17
ENDBRANCH   1  16
TORSDOF 13
ENDMDL
MODEL 3
REMARK VINA RESULT:      -7.0      1.444      2.157
REMARK  Name = 
REMARK  15 active torsions:
REMARK  status: ('A' for Active; 'I' for Inactive)
REMARK    1  A    between atoms: C_1  and  C_2
REMARK    2  A    between atoms: C_2  and  O_3
REMARK    3  A    between atoms: O_3  and  P_4
REMARK    4  A    between atoms: P_4  and  O_6
REMARK    5  A    between atoms: P_4  and  C_9
REMARK    6  A    between atoms: O_6  and  C_7
REMARK    7  A    between atoms: C_7  and  C_8
REMARK    8  A    between atoms: C_9  and  O_10
REMARK    9  A    between atoms: C_9  and  C_11
REMARK   10  A    between atoms: C_11  and  C_12
REMARK   11  A    between atoms: C_12  and  C_13
REMARK   12  A    between atoms: C_13  and  C_14
REMARK   13  A    between atoms: C_14  and  C_15
REMARK   14  A    between atoms: C_15  and  N_16
REMARK   15  A    between atoms: N_22  and  C_23
REMARK                            x       y       z     vdW  Elec       q    Type
REMARK                         _______ _______ _______ _____ _____    ______ ____
ROOT
ATOM      1  C   UNL     1       7.692   7.238  18.554  0.00  0.00    +0.000 C 
ENDROOT
BRANCH   1   2
ATOM      2  C   UNL     1       8.199   8.226  17.464  0.00  0.00    +0.000 C 
BRANCH   2   3
ATOM      3  C   UNL     1       8.207   9.642  18.021  0.00  0.00    +0.000 C 
BRANCH   3   4
ATOM      4  C   UNL     1       9.344  10.185  18.874  0.00  0.00    +0.000 C 
BRANCH   4   5
ATOM      5  C   UNL     1       9.923  11.491  18.215  0.00  0.00    +0.000 C 
BRANCH   5   6
ATOM      6  P   UNL     1      10.521  12.857  19.275  0.00  0.00    +0.000 P 
ATOM      7  S   UNL     1       9.291  12.365  20.833  0.00  0.00    +0.000 S 
BRANCH   6   8
ATOM      8  O   UNL     1      11.087  14.149  20.276  0.00  0.00    +0.000 OA
BRANCH   8  10
ATOM      9  C   UNL     1       9.941  16.171  21.058  0.00  0.00    +0.000 C 
ATOM     10  C   UNL     1      10.428  14.772  21.358  0.00  0.00    +0.000 C 
ENDBRANCH   8  10
ENDBRANCH   6   8
BRANCH   6  11
ATOM     11  O   UNL     1      10.085  13.998  18.177  0.00  0.00    +0.000 OA
BRANCH  11  12
ATOM     12  C   UNL     1      10.984  14.832  17.456  0.00  0.00    +0.000 C 
ATOM     13  C   UNL     1      10.570  16.279  17.276  0.00  0.00    +0.000 C 
ENDBRANCH  11  12
ENDBRANCH   6  11
ENDBRANCH   5   6
BRANCH   5  14
ATOM     14  O   UNL     1      10.995  11.131  17.319  0.00  0.00    +0.000 OA
ATOM     15  H   UNL     1      10.579  10.942  16.454  0.00  0.00    +0.000 HD
ENDBRANCH   5  14
ENDBRANCH   4   5
ENDBRANCH   3   4
ENDBRANCH   2   3
ENDBRANCH   1   2
BRANCH   1  16
ATOM     16  C   UNL     1       7.870   5.757  18.158  0.00  0.00    +0.000 C 
BRANCH  16  17
ATOM     17  N   UNL     1       6.677   5.162  17.560  0.00  0.00    +0.000 N 
ATOM     18  C   UNL     1       6.598   5.098  16.168  0.00  0.00    +0.000 A 
ATOM     19  O   UNL     1       7.459   5.506  15.395  0.00  0.00    +0.000 OA
ATOM     20  C   UNL     1       5.406   4.458  15.623  0.00  0.00    +0.000 A 
ATOM     21  F   UNL     1       5.293   4.388  14.283  0.00  0.00    +0.000 F 
ATOM     22  C   UNL     1       4.489   3.942  16.433  0.00  0.00    +0.000 A 
ATOM     23  N   UNL     1       4.624   4.013  17.799  0.00  0.00    +0.000 N 
ATOM     24  C   UNL     1       5.745   4.590  18.412  0.00  0.00    +0.000 A 
ATOM     25  O   UNL     1       5.895   4.559  19.636  0.00  0.00    +0.000 OA
BRANCH  23  26
ATOM     26  C   UNL     1       3.597   3.462  18.666  0.00  0.00    +0.000 C 
ATOM     27  C   UNL     1       3.060   2.115  18.201  0.00  0.00    +0.000 C 
ATOM     28  C   UNL     1       1.677   2.131  18.799  0.00  0.00    +0.000 C 
ATOM     29  C   UNL     1       1.275   3.581  18.651  0.00  0.00    +0.000 C 
ATOM     30  O   UNL     1       2.474   4.357  18.722  0.00  0.00    +0.000 OA
ENDBRANCH  23  26
ENDBRANCH  16  17
ENDBRANCH   1  16
TORSDOF 13
ENDMDL
MODEL 4
REMARK VINA RESULT:      -6.8      1.343      1.744
REMARK  Name = 
REMARK  15 active torsions:
REMARK  status: ('A' for Active; 'I' for Inactive)
REMARK    1  A    between atoms: C_1  and  C_2
REMARK    2  A    between atoms: C_2  and  O_3
REMARK    3  A    between atoms: O_3  and  P_4
REMARK    4  A    between atoms: P_4  and  O_6
REMARK    5  A    between atoms: P_4  and  C_9
REMARK    6  A    between atoms: O_6  and  C_7
REMARK    7  A    between atoms: C_7  and  C_8
REMARK    8  A    between atoms: C_9  and  O_10
REMARK    9  A    between atoms: C_9  and  C_11
REMARK   10  A    between atoms: C_11  and  C_12
REMARK   11  A    between atoms: C_12  and  C_13
REMARK   12  A    between atoms: C_13  and  C_14
REMARK   13  A    between atoms: C_14  and  C_15
REMARK   14  A    between atoms: C_15  and  N_16
REMARK   15  A    between atoms: N_22  and  C_23
REMARK                            x       y       z     vdW  Elec       q    Type
REMARK                         _______ _______ _______ _____ _____    ______ ____
ROOT
ATOM      1  C   UNL     1       7.263   8.239  17.758  0.00  0.00    +0.000 C 
ENDROOT
BRANCH   1   2
ATOM      2  C   UNL     1       8.499   9.179  17.646  0.00  0.00    +0.000 C 
BRANCH   2   3
ATOM      3  C   UNL     1       8.993   9.542  19.039  0.00  0.00    +0.000 C 
BRANCH   3   4
ATOM      4  C   UNL     1       9.292  10.973  19.459  0.00  0.00    +0.000 C 
BRANCH   4   5
ATOM      5  C   UNL     1      10.056  11.716  18.301  0.00  0.00    +0.000 C 
BRANCH   5   6
ATOM      6  P   UNL     1       9.902  13.531  18.128  0.00  0.00    +0.000 P 
ATOM      7  S   UNL     1      11.016  13.919  19.799  0.00  0.00    +0.000 S 
BRANCH   6   8
ATOM      8  O   UNL     1       9.757  15.247  17.963  0.00  0.00    +0.000 OA
BRANCH   8  10
ATOM      9  C   UNL     1      10.394  17.541  17.377  0.00  0.00    +0.000 C 
ATOM     10  C   UNL     1      10.779  16.221  18.002  0.00  0.00    +0.000 C 
ENDBRANCH   8  10
ENDBRANCH   6   8
BRANCH   6  11
ATOM     11  O   UNL     1       8.263  13.473  18.196  0.00  0.00    +0.000 OA
BRANCH  11  12
ATOM     12  C   UNL     1       7.383  14.453  17.660  0.00  0.00    +0.000 C 
ATOM     13  C   UNL     1       6.298  14.969  18.585  0.00  0.00    +0.000 C 
ENDBRANCH  11  12
ENDBRANCH   6  11
ENDBRANCH   5   6
BRANCH   5  14
ATOM     14  O   UNL     1      11.461  11.402  18.387  0.00  0.00    +0.000 OA
ATOM     15  H   UNL     1      11.852  11.656  17.527  0.00  0.00    +0.000 HD
ENDBRANCH   5  14
ENDBRANCH   4   5
ENDBRANCH   3   4
ENDBRANCH   2   3
ENDBRANCH   1   2
BRANCH   1  16
ATOM     16  C   UNL     1       7.646   6.761  17.982  0.00  0.00    +0.000 C 
BRANCH  16  17
ATOM     17  N   UNL     1       6.664   5.815  17.460  0.00  0.00    +0.000 N 
ATOM     18  C   UNL     1       6.799   5.384  16.139  0.00  0.00    +0.000 A 
ATOM     19  O   UNL     1       7.685   5.741  15.371  0.00  0.00    +0.000 OA
ATOM     20  C   UNL     1       5.816   4.408  15.681  0.00  0.00    +0.000 A 
ATOM     21  F   UNL     1       5.910   3.978  14.409  0.00  0.00    +0.000 F 
ATOM     22  C   UNL     1       4.886   3.949  16.510  0.00  0.00    +0.000 A 
ATOM     23  N   UNL     1       4.809   4.390  17.810  0.00  0.00    +0.000 N 
ATOM     24  C   UNL     1       5.722   5.310  18.344  0.00  0.00    +0.000 A 
ATOM     25  O   UNL     1       5.697   5.621  19.537  0.00  0.00    +0.000 OA
BRANCH  23  26
ATOM     26  C   UNL     1       3.769   3.889  18.692  0.00  0.00    +0.000 C 
ATOM     27  C   UNL     1       3.842   2.389  18.937  0.00  0.00    +0.000 C 
ATOM     28  C   UNL     1       2.402   2.073  19.248  0.00  0.00    +0.000 C 
ATOM     29  C   UNL     1       1.657   2.995  18.310  0.00  0.00    +0.000 C 
ATOM     30  O   UNL     1       2.476   4.152  18.120  0.00  0.00    +0.000 OA
ENDBRANCH  23  26
ENDBRANCH  16  17
ENDBRANCH   1  16
TORSDOF 13
ENDMDL
MODEL 5
REMARK VINA RESULT:      -6.8      1.159      1.399
REMARK  Name = 
REMARK  15 active torsions:
REMARK  status: ('A' for Active; 'I' for Inactive)
REMARK    1  A    between atoms: C_1  and  C_2
REMARK    2  A    between atoms: C_2  and  O_3
REMARK    3  A    between atoms: O_3  and  P_4
REMARK    4  A    between atoms: P_4  and  O_6
REMARK    5  A    between atoms: P_4  and  C_9
REMARK    6  A    between atoms: O_6  and  C_7
REMARK    7  A    between atoms: C_7  and  C_8
REMARK    8  A    between atoms: C_9  and  O_10
REMARK    9  A    between atoms: C_9  and  C_11
REMARK   10  A    between atoms: C_11  and  C_12
REMARK   11  A    between atoms: C_12  and  C_13
REMARK   12  A    between atoms: C_13  and  C_14
REMARK   13  A    between atoms: C_14  and  C_15
REMARK   14  A    between atoms: C_15  and  N_16
REMARK   15  A    between atoms: N_22  and  C_23
REMARK                            x       y       z     vdW  Elec       q    Type
REMARK                         _______ _______ _______ _____ _____    ______ ____
ROOT
ATOM      1  C   UNL     1       7.394   7.951  17.821  0.00  0.00    +0.000 C 
ENDROOT
BRANCH   1   2
ATOM      2  C   UNL     1       8.683   8.793  18.047  0.00  0.00    +0.000 C 
BRANCH   2   3
ATOM      3  C   UNL     1       8.316  10.262  18.194  0.00  0.00    +0.000 C 
BRANCH   3   4
ATOM      4  C   UNL     1       9.352  11.348  18.443  0.00  0.00    +0.000 C 
BRANCH   4   5
ATOM      5  C   UNL     1       8.681  12.763  18.293  0.00  0.00    +0.000 C 
BRANCH   5   6
ATOM      6  P   UNL     1       9.616  14.267  18.754  0.00  0.00    +0.000 P 
ATOM      7  S   UNL     1      11.301  13.226  19.263  0.00  0.00    +0.000 S 
BRANCH   6   8
ATOM      8  O   UNL     1      10.499  15.690  19.190  0.00  0.00    +0.000 OA
BRANCH   8  10
ATOM      9  C   UNL     1      10.659  16.615  16.925  0.00  0.00    +0.000 C 
ATOM     10  C   UNL     1      11.178  16.593  18.344  0.00  0.00    +0.000 C 
ENDBRANCH   8  10
ENDBRANCH   6   8
BRANCH   6  11
ATOM     11  O   UNL     1       8.509  14.697  19.889  0.00  0.00    +0.000 OA
BRANCH  11  12
ATOM     12  C   UNL     1       7.179  15.122  19.621  0.00  0.00    +0.000 C 
ATOM     13  C   UNL     1       7.013  16.221  18.589  0.00  0.00    +0.000 C 
ENDBRANCH  11  12
ENDBRANCH   6  11
ENDBRANCH   5   6
BRANCH   5  14
ATOM     14  O   UNL     1       8.230  12.929  16.932  0.00  0.00    +0.000 OA
ATOM     15  H   UNL     1       7.260  12.802  16.947  0.00  0.00    +0.000 HD
ENDBRANCH   5  14
ENDBRANCH   4   5
ENDBRANCH   3   4
ENDBRANCH   2   3
ENDBRANCH   1   2
BRANCH   1  16
ATOM     16  C   UNL     1       7.611   6.440  18.047  0.00  0.00    +0.000 C 
BRANCH  16  17
ATOM     17  N   UNL     1       6.540   5.606  17.507  0.00  0.00    +0.000 N 
ATOM     18  C   UNL     1       6.583   5.271  16.153  0.00  0.00    +0.000 A 
ATOM     19  O   UNL     1       7.457   5.623  15.369  0.00  0.00    +0.000 OA
ATOM     20  C   UNL     1       5.513   4.403  15.675  0.00  0.00    +0.000 A 
ATOM     21  F   UNL     1       5.517   4.067  14.370  0.00  0.00    +0.000 F 
ATOM     22  C   UNL     1       4.590   3.946  16.513  0.00  0.00    +0.000 A 
ATOM     23  N   UNL     1       4.604   4.290  17.844  0.00  0.00    +0.000 N 
ATOM     24  C   UNL     1       5.605   5.100  18.398  0.00  0.00    +0.000 A 
ATOM     25  O   UNL     1       5.656   5.319  19.610  0.00  0.00    +0.000 OA
BRANCH  23  26
ATOM     26  C   UNL     1       3.572   3.795  18.739  0.00  0.00    +0.000 C 
ATOM     27  C   UNL     1       3.451   2.278  18.757  0.00  0.00    +0.000 C 
ATOM     28  C   UNL     1       2.007   2.105  19.153  0.00  0.00    +0.000 C 
ATOM     29  C   UNL     1       1.333   3.250  18.432  0.00  0.00    +0.000 C 
ATOM     30  O   UNL     1       2.291   4.308  18.335  0.00  0.00    +0.000 OA
ENDBRANCH  23  26
ENDBRANCH  16  17
ENDBRANCH   1  16
TORSDOF 13
ENDMDL
MODEL 6
REMARK VINA RESULT:      -6.7      1.801      2.270
REMARK  Name = 
REMARK  15 active torsions:
REMARK  status: ('A' for Active; 'I' for Inactive)
REMARK    1  A    between atoms: C_1  and  C_2
REMARK    2  A    between atoms: C_2  and  O_3
REMARK    3  A    between atoms: O_3  and  P_4
REMARK    4  A    between atoms: P_4  and  O_6
REMARK    5  A    between atoms: P_4  and  C_9
REMARK    6  A    between atoms: O_6  and  C_7
REMARK    7  A    between atoms: C_7  and  C_8
REMARK    8  A    between atoms: C_9  and  O_10
REMARK    9  A    between atoms: C_9  and  C_11
REMARK   10  A    between atoms: C_11  and  C_12
REMARK   11  A    between atoms: C_12  and  C_13
REMARK   12  A    between atoms: C_13  and  C_14
REMARK   13  A    between atoms: C_14  and  C_15
REMARK   14  A    between atoms: C_15  and  N_16
REMARK   15  A    between atoms: N_22  and  C_23
REMARK                            x       y       z     vdW  Elec       q    Type
REMARK                         _______ _______ _______ _____ _____    ______ ____
ROOT
ATOM      1  C   UNL     1       7.496   7.879  17.681  0.00  0.00    +0.000 C 
ENDROOT
BRANCH   1   2
ATOM      2  C   UNL     1       7.985   9.344  17.875  0.00  0.00    +0.000 C 
BRANCH   2   3
ATOM      3  C   UNL     1       9.055   9.387  18.957  0.00  0.00    +0.000 C 
BRANCH   3   4
ATOM      4  C   UNL     1       9.325  10.626  19.798  0.00  0.00    +0.000 C 
BRANCH   4   5
ATOM      5  C   UNL     1      10.696  11.268  19.369  0.00  0.00    +0.000 C 
BRANCH   5   6
ATOM      6  P   UNL     1      10.715  12.672  18.196  0.00  0.00    +0.000 P 
ATOM      7  S   UNL     1      11.895  13.833  19.397  0.00  0.00    +0.000 S 
BRANCH   6   8
ATOM      8  O   UNL     1      10.733  14.000  17.086  0.00  0.00    +0.000 OA
BRANCH   8  10
ATOM      9  C   UNL     1      10.742  16.429  16.754  0.00  0.00    +0.000 C 
ATOM     10  C   UNL     1      11.500  15.183  17.149  0.00  0.00    +0.000 C 
ENDBRANCH   8  10
ENDBRANCH   6   8
BRANCH   6  11
ATOM     11  O   UNL     1       9.079  12.813  18.222  0.00  0.00    +0.000 OA
BRANCH  11  12
ATOM     12  C   UNL     1       8.359  13.949  18.685  0.00  0.00    +0.000 C 
ATOM     13  C   UNL     1       7.290  14.498  17.760  0.00  0.00    +0.000 C 
ENDBRANCH  11  12
ENDBRANCH   6  11
ENDBRANCH   5   6
BRANCH   5  14
ATOM     14  O   UNL     1      11.416  11.675  20.550  0.00  0.00    +0.000 OA
ATOM     15  H   UNL     1      10.759  11.709  21.274  0.00  0.00    +0.000 HD
ENDBRANCH   5  14
ENDBRANCH   4   5
ENDBRANCH   3   4
ENDBRANCH   2   3
ENDBRANCH   1   2
BRANCH   1  16
ATOM     16  C   UNL     1       6.413   7.743  16.590  0.00  0.00    +0.000 C 
BRANCH  16  17
ATOM     17  N   UNL     1       5.714   6.461  16.615  0.00  0.00    +0.000 N 
ATOM     18  C   UNL     1       6.327   5.362  16.012  0.00  0.00    +0.000 A 
ATOM     19  O   UNL     1       7.419   5.385  15.454  0.00  0.00    +0.000 OA
ATOM     20  C   UNL     1       5.606   4.098  16.102  0.00  0.00    +0.000 A 
ATOM     21  F   UNL     1       6.165   3.018  15.521  0.00  0.00    +0.000 F 
ATOM     22  C   UNL     1       4.455   4.023  16.760  0.00  0.00    +0.000 A 
ATOM     23  N   UNL     1       3.902   5.132  17.355  0.00  0.00    +0.000 N 
ATOM     24  C   UNL     1       4.533   6.384  17.340  0.00  0.00    +0.000 A 
ATOM     25  O   UNL     1       4.071   7.344  17.961  0.00  0.00    +0.000 OA
BRANCH  23  26
ATOM     26  C   UNL     1       2.631   5.032  18.051  0.00  0.00    +0.000 C 
ATOM     27  C   UNL     1       2.763   4.637  19.515  0.00  0.00    +0.000 C 
ATOM     28  C   UNL     1       1.431   3.976  19.760  0.00  0.00    +0.000 C 
ATOM     29  C   UNL     1       1.176   3.263  18.451  0.00  0.00    +0.000 C 
ATOM     30  O   UNL     1       1.811   4.030  17.425  0.00  0.00    +0.000 OA
ENDBRANCH  23  26
ENDBRANCH  16  17
ENDBRANCH   1  16
TORSDOF 13
ENDMDL
MODEL 7
REMARK VINA RESULT:      -6.6      1.963      2.240
REMARK  Name = 
REMARK  15 active torsions:
REMARK  status: ('A' for Active; 'I' for Inactive)
REMARK    1  A    between atoms: C_1  and  C_2
REMARK    2  A    between atoms: C_2  and  O_3
REMARK    3  A    between atoms: O_3  and  P_4
REMARK    4  A    between atoms: P_4  and  O_6
REMARK    5  A    between atoms: P_4  and  C_9
REMARK    6  A    between atoms: O_6  and  C_7
REMARK    7  A    between atoms: C_7  and  C_8
REMARK    8  A    between atoms: C_9  and  O_10
REMARK    9  A    between atoms: C_9  and  C_11
REMARK   10  A    between atoms: C_11  and  C_12
REMARK   11  A    between atoms: C_12  and  C_13
REMARK   12  A    between atoms: C_13  and  C_14
REMARK   13  A    between atoms: C_14  and  C_15
REMARK   14  A    between atoms: C_15  and  N_16
REMARK   15  A    between atoms: N_22  and  C_23
REMARK                            x       y       z     vdW  Elec       q    Type
REMARK                         _______ _______ _______ _____ _____    ______ ____
ROOT
ATOM      1  C   UNL     1       7.175   7.703  17.887  0.00  0.00    +0.000 C 
ENDROOT
BRANCH   1   2
ATOM      2  C   UNL     1       8.292   8.706  17.476  0.00  0.00    +0.000 C 
BRANCH   2   3
ATOM      3  C   UNL     1       8.627   9.608  18.655  0.00  0.00    +0.000 C 
BRANCH   3   4
ATOM      4  C   UNL     1       9.339  10.943  18.493  0.00  0.00    +0.000 C 
BRANCH   4   5
ATOM      5  C   UNL     1      10.014  11.352  19.854  0.00  0.00    +0.000 C 
BRANCH   5   6
ATOM      6  P   UNL     1       9.793  13.047  20.507  0.00  0.00    +0.000 P 
ATOM      7  S   UNL     1      11.610  13.691  19.822  0.00  0.00    +0.000 S 
BRANCH   6   8
ATOM      8  O   UNL     1       9.584  14.649  21.125  0.00  0.00    +0.000 OA
BRANCH   8  10
ATOM      9  C   UNL     1      10.211  16.655  22.387  0.00  0.00    +0.000 C 
ATOM     10  C   UNL     1      10.562  15.649  21.316  0.00  0.00    +0.000 C 
ENDBRANCH   8  10
ENDBRANCH   6   8
BRANCH   6  11
ATOM     11  O   UNL     1       9.610  12.509  22.048  0.00  0.00    +0.000 OA
BRANCH  11  12
ATOM     12  C   UNL     1       8.510  12.809  22.898  0.00  0.00    +0.000 C 
ATOM     13  C   UNL     1       8.344  11.936  24.126  0.00  0.00    +0.000 C 
ENDBRANCH  11  12
ENDBRANCH   6  11
ENDBRANCH   5   6
BRANCH   5  14
ATOM     14  O   UNL     1       9.596  10.429  20.882  0.00  0.00    +0.000 OA
ATOM     15  H   UNL     1       9.317  10.975  21.644  0.00  0.00    +0.000 HD
ENDBRANCH   5  14
ENDBRANCH   4   5
ENDBRANCH   3   4
ENDBRANCH   2   3
ENDBRANCH   1   2
BRANCH   1  16
ATOM     16  C   UNL     1       7.630   6.230  17.814  0.00  0.00    +0.000 C 
BRANCH  16  17
ATOM     17  N   UNL     1       6.625   5.333  17.249  0.00  0.00    +0.000 N 
ATOM     18  C   UNL     1       6.740   4.976  15.904  0.00  0.00    +0.000 A 
ATOM     19  O   UNL     1       7.625   5.359  15.148  0.00  0.00    +0.000 OA
ATOM     20  C   UNL     1       5.735   4.046  15.402  0.00  0.00    +0.000 A 
ATOM     21  F   UNL     1       5.809   3.687  14.106  0.00  0.00    +0.000 F 
ATOM     22  C   UNL     1       4.804   3.557  16.212  0.00  0.00    +0.000 A 
ATOM     23  N   UNL     1       4.747   3.924  17.536  0.00  0.00    +0.000 N 
ATOM     24  C   UNL     1       5.682   4.795  18.112  0.00  0.00    +0.000 A 
ATOM     25  O   UNL     1       5.673   5.038  19.321  0.00  0.00    +0.000 OA
BRANCH  23  26
ATOM     26  C   UNL     1       3.706   3.394  18.399  0.00  0.00    +0.000 C 
ATOM     27  C   UNL     1       3.136   2.064  17.926  0.00  0.00    +0.000 C 
ATOM     28  C   UNL     1       1.753   2.110  18.523  0.00  0.00    +0.000 C 
ATOM     29  C   UNL     1       1.387   3.571  18.384  0.00  0.00    +0.000 C 
ATOM     30  O   UNL     1       2.605   4.317  18.460  0.00  0.00    +0.000 OA
ENDBRANCH  23  26
ENDBRANCH  16  17
ENDBRANCH   1  16
TORSDOF 13
ENDMDL
MODEL 8
REMARK VINA RESULT:      -6.5      4.612     11.409
REMARK  Name = 
REMARK  15 active torsions:
REMARK  status: ('A' for Active; 'I' for Inactive)
REMARK    1  A    between atoms: C_1  and  C_2
REMARK    2  A    between atoms: C_2  and  O_3
REMARK    3  A    between atoms: O_3  and  P_4
REMARK    4  A    between atoms: P_4  and  O_6
REMARK    5  A    between atoms: P_4  and  C_9
REMARK    6  A    between atoms: O_6  and  C_7
REMARK    7  A    between atoms: C_7  and  C_8
REMARK    8  A    between atoms: C_9  and  O_10
REMARK    9  A    between atoms: C_9  and  C_11
REMARK   10  A    between atoms: C_11  and  C_12
REMARK   11  A    between atoms: C_12  and  C_13
REMARK   12  A    between atoms: C_13  and  C_14
REMARK   13  A    between atoms: C_14  and  C_15
REMARK   14  A    between atoms: C_15  and  N_16
REMARK   15  A    between atoms: N_22  and  C_23
REMARK                            x       y       z     vdW  Elec       q    Type
REMARK                         _______ _______ _______ _____ _____    ______ ____
ROOT
ATOM      1  C   UNL     1       8.497  10.056  18.097  0.00  0.00    +0.000 C 
ENDROOT
BRANCH   1   2
ATOM      2  C   UNL     1       8.462   8.564  18.539  0.00  0.00    +0.000 C 
BRANCH   2   3
ATOM      3  C   UNL     1       7.752   7.734  17.479  0.00  0.00    +0.000 C 
BRANCH   3   4
ATOM      4  C   UNL     1       7.103   6.391  17.784  0.00  0.00    +0.000 C 
BRANCH   4   5
ATOM      5  C   UNL     1       6.204   5.951  16.571  0.00  0.00    +0.000 C 
BRANCH   5   6
ATOM      6  P   UNL     1       4.927   4.662  16.805  0.00  0.00    +0.000 P 
ATOM      7  S   UNL     1       5.289   4.478  18.810  0.00  0.00    +0.000 S 
BRANCH   6   8
ATOM      8  O   UNL     1       3.719   3.443  17.026  0.00  0.00    +0.000 OA
BRANCH   8  10
ATOM      9  C   UNL     1       2.177   2.226  18.493  0.00  0.00    +0.000 C 
ATOM     10  C   UNL     1       3.602   2.506  18.075  0.00  0.00    +0.000 C 
ENDBRANCH   8  10
ENDBRANCH   6   8
BRANCH   6  11
ATOM     11  O   UNL     1       5.638   3.655  15.719  0.00  0.00    +0.000 OA
BRANCH  11  12
ATOM     12  C   UNL     1       6.496   4.062  14.661  0.00  0.00    +0.000 C 
ATOM     13  C   UNL     1       6.053   3.708  13.255  0.00  0.00    +0.000 C 
ENDBRANCH  11  12
ENDBRANCH   6  11
ENDBRANCH   5   6
BRANCH   5  14
ATOM     14  O   UNL     1       5.555   7.115  16.018  0.00  0.00    +0.000 OA
ATOM     15  H   UNL     1       6.253   7.632  15.570  0.00  0.00    +0.000 HD
ENDBRANCH   5  14
ENDBRANCH   4   5
ENDBRANCH   3   4
ENDBRANCH   2   3
ENDBRANCH   1   2
BRANCH   1  16
ATOM     16  C   UNL     1       9.774  10.792  18.553  0.00  0.00    +0.000 C 
BRANCH  16  17
ATOM     17  N   UNL     1       9.514  12.090  19.171  0.00  0.00    +0.000 N 
ATOM     18  C   UNL     1       9.229  12.127  20.536  0.00  0.00    +0.000 A 
ATOM     19  O   UNL     1       9.177  11.147  21.270  0.00  0.00    +0.000 OA
ATOM     20  C   UNL     1       9.019  13.451  21.110  0.00  0.00    +0.000 A 
ATOM     21  F   UNL     1       8.732  13.523  22.424  0.00  0.00    +0.000 F 
ATOM     22  C   UNL     1       9.138  14.539  20.357  0.00  0.00    +0.000 A 
ATOM     23  N   UNL     1       9.442  14.449  19.020  0.00  0.00    +0.000 N 
ATOM     24  C   UNL     1       9.682  13.222  18.386  0.00  0.00    +0.000 A 
ATOM     25  O   UNL     1      10.047  13.167  17.210  0.00  0.00    +0.000 OA
BRANCH  23  26
ATOM     26  C   UNL     1       9.545  15.651  18.211  0.00  0.00    +0.000 C 
ATOM     27  C   UNL     1      10.630  16.612  18.675  0.00  0.00    +0.000 C 
ATOM     28  C   UNL     1      10.091  17.927  18.174  0.00  0.00    +0.000 C 
ATOM     29  C   UNL     1       8.602  17.770  18.387  0.00  0.00    +0.000 C 
ATOM     30  O   UNL     1       8.304  16.377  18.255  0.00  0.00    +0.000 OA
ENDBRANCH  23  26
ENDBRANCH  16  17
ENDBRANCH   1  16
TORSDOF 13
ENDMDL
MODEL 9
REMARK VINA RESULT:      -6.5      1.206      1.434
REMARK  Name = 
REMARK  15 active torsions:
REMARK  status: ('A' for Active; 'I' for Inactive)
REMARK    1  A    between atoms: C_1  and  C_2
REMARK    2  A    between atoms: C_2  and  O_3
REMARK    3  A    between atoms: O_3  and  P_4
REMARK    4  A    between atoms: P_4  and  O_6
REMARK    5  A    between atoms: P_4  and  C_9
REMARK    6  A    between atoms: O_6  and  C_7
REMARK    7  A    between atoms: C_7  and  C_8
REMARK    8  A    between atoms: C_9  and  O_10
REMARK    9  A    between atoms: C_9  and  C_11
REMARK   10  A    between atoms: C_11  and  C_12
REMARK   11  A    between atoms: C_12  and  C_13
REMARK   12  A    between atoms: C_13  and  C_14
REMARK   13  A    between atoms: C_14  and  C_15
REMARK   14  A    between atoms: C_15  and  N_16
REMARK   15  A    between atoms: N_22  and  C_23
REMARK                            x       y       z     vdW  Elec       q    Type
REMARK                         _______ _______ _______ _____ _____    ______ ____
ROOT
ATOM      1  C   UNL     1       7.094   8.063  17.654  0.00  0.00    +0.000 C 
ENDROOT
BRANCH   1   2
ATOM      2  C   UNL     1       8.331   9.002  17.569  0.00  0.00    +0.000 C 
BRANCH   2   3
ATOM      3  C   UNL     1       8.809   9.347  18.972  0.00  0.00    +0.000 C 
BRANCH   3   4
ATOM      4  C   UNL     1       9.688  10.553  19.269  0.00  0.00    +0.000 C 
BRANCH   4   5
ATOM      5  C   UNL     1       9.864  11.414  17.964  0.00  0.00    +0.000 C 
BRANCH   5   6
ATOM      6  P   UNL     1       9.494  13.205  17.998  0.00  0.00    +0.000 P 
ATOM      7  S   UNL     1      11.166  13.707  16.932  0.00  0.00    +0.000 S 
BRANCH   6   8
ATOM      8  O   UNL     1       9.143  14.899  18.031  0.00  0.00    +0.000 OA
BRANCH   8  10
ATOM      9  C   UNL     1      10.201  17.038  18.594  0.00  0.00    +0.000 C 
ATOM     10  C   UNL     1       9.938  15.968  17.561  0.00  0.00    +0.000 C 
ENDBRANCH   8  10
ENDBRANCH   6   8
BRANCH   6  11
ATOM     11  O   UNL     1       9.490  13.248  19.640  0.00  0.00    +0.000 OA
BRANCH  11  12
ATOM     12  C   UNL     1      10.527  13.788  20.450  0.00  0.00    +0.000 C 
ATOM     13  C   UNL     1      10.093  14.595  21.658  0.00  0.00    +0.000 C 
ENDBRANCH  11  12
ENDBRANCH   6  11
ENDBRANCH   5   6
BRANCH   5  14
ATOM     14  O   UNL     1      11.212  11.255  17.473  0.00  0.00    +0.000 OA
ATOM     15  H   UNL     1      11.294  11.849  16.700  0.00  0.00    +0.000 HD
ENDBRANCH   5  14
ENDBRANCH   4   5
ENDBRANCH   3   4
ENDBRANCH   2   3
ENDBRANCH   1   2
BRANCH   1  16
ATOM     16  C   UNL     1       7.471   6.585  17.886  0.00  0.00    +0.000 C 
BRANCH  16  17
ATOM     17  N   UNL     1       6.554   5.639  17.256  0.00  0.00    +0.000 N 
ATOM     18  C   UNL     1       6.789   5.275  15.929  0.00  0.00    +0.000 A 
ATOM     19  O   UNL     1       7.714   5.689  15.240  0.00  0.00    +0.000 OA
ATOM     20  C   UNL     1       5.868   4.297  15.362  0.00  0.00    +0.000 A 
ATOM     21  F   UNL     1       6.060   3.930  14.080  0.00  0.00    +0.000 F 
ATOM     22  C   UNL     1       4.898   3.775  16.103  0.00  0.00    +0.000 A 
ATOM     23  N   UNL     1       4.721   4.152  17.413  0.00  0.00    +0.000 N 
ATOM     24  C   UNL     1       5.570   5.069  18.050  0.00  0.00    +0.000 A 
ATOM     25  O   UNL     1       5.455   5.322  19.251  0.00  0.00    +0.000 OA
BRANCH  23  26
ATOM     26  C   UNL     1       3.640   3.584  18.199  0.00  0.00    +0.000 C 
ATOM     27  C   UNL     1       2.805   4.622  18.934  0.00  0.00    +0.000 C 
ATOM     28  C   UNL     1       2.290   3.812  20.096  0.00  0.00    +0.000 C 
ATOM     29  C   UNL     1       3.469   2.924  20.422  0.00  0.00    +0.000 C 
ATOM     30  O   UNL     1       4.176   2.700  19.198  0.00  0.00    +0.000 OA
ENDBRANCH  23  26
ENDBRANCH  16  17
ENDBRANCH   1  16
TORSDOF 13
ENDMDL
