MODEL 1
REMARK VINA RESULT:      -8.6      0.000      0.000
REMARK  Name = 
REMARK  8 active torsions:
REMARK  status: ('A' for Active; 'I' for Inactive)
REMARK    1  A    between atoms: C_1  and  C_2
REMARK    2  A    between atoms: C_2  and  C_3
REMARK    3  A    between atoms: C_2  and  C_4
REMARK    4  A    between atoms: C_6  and  N_7
REMARK    5  A    between atoms: N_10  and  C_11
REMARK    6  A    between atoms: C_14  and  O_15
REMARK    7  A    between atoms: O_15  and  C_16
REMARK    8  A    between atoms: N_27  and  C_28
REMARK                            x       y       z     vdW  Elec       q    Type
REMARK                         _______ _______ _______ _____ _____    ______ ____
ROOT
ATOM      1  C   UNL     1       1.063   9.401  18.734  0.00  0.00    +0.000 A 
ATOM      2  C   UNL     1       1.845   8.746  17.772  0.00  0.00    +0.000 A 
ATOM      3  C   UNL     1       2.620   7.632  18.097  0.00  0.00    +0.000 A 
ATOM      4  C   UNL     1       2.651   7.161  19.403  0.00  0.00    +0.000 A 
ATOM      5  C   UNL     1       1.876   7.797  20.376  0.00  0.00    +0.000 A 
ATOM      6  C   UNL     1       1.103   8.925  20.049  0.00  0.00    +0.000 A 
ENDROOT
BRANCH   1  10
ATOM      7  N   UNL     1      -1.775  11.641  17.922  0.00  0.00    +0.000 N 
ATOM      8  C   UNL     1      -1.135  10.403  18.262  0.00  0.00    +0.000 C 
ATOM      9  O   UNL     1      -1.811   9.395  18.367  0.00  0.00    +0.000 OA
ATOM     10  N   UNL     1       0.223  10.512  18.425  0.00  0.00    +0.000 N 
ATOM     11  H   UNL     1      -1.228  12.429  17.608  0.00  0.00    +0.000 HD
ATOM     12  H   UNL     1       0.650  11.425  18.458  0.00  0.00    +0.000 HD
BRANCH   7  15
ATOM     13  C   UNL     1      -5.327  11.957  18.465  0.00  0.00    +0.000 A 
ATOM     14  C   UNL     1      -4.003  12.152  18.908  0.00  0.00    +0.000 A 
ATOM     15  C   UNL     1      -3.178  11.719  17.888  0.00  0.00    +0.000 A 
ATOM     16  N   UNL     1      -4.045  11.411  16.862  0.00  0.00    +0.000 N 
ATOM     17  C   UNL     1      -3.751  10.955  15.527  0.00  0.00    +0.000 C 
ATOM     18  N   UNL     1      -5.347  11.506  17.208  0.00  0.00    +0.000 NA
BRANCH  13  20
ATOM     19  C   UNL     1      -7.650  12.923  18.364  0.00  0.00    +0.000 C 
ATOM     20  C   UNL     1      -6.602  12.206  19.223  0.00  0.00    +0.000 C 
ATOM     21  C   UNL     1      -7.180  10.903  19.780  0.00  0.00    +0.000 C 
ENDBRANCH  13  20
ENDBRANCH   7  15
ENDBRANCH   1  10
BRANCH   4  22
ATOM     22  O   UNL     1       3.394   6.022  19.603  0.00  0.00    +0.000 OA
BRANCH  22  23
ATOM     23  C   UNL     1       2.740   4.848  19.935  0.00  0.00    +0.000 A 
ATOM     24  N   UNL     1       2.336   4.618  21.209  0.00  0.00    +0.000 NA
ATOM     25  C   UNL     1       1.686   3.465  21.463  0.00  0.00    +0.000 A 
ATOM     26  N   UNL     1       1.379   2.480  20.599  0.00  0.00    +0.000 NA
ATOM     27  C   UNL     1       1.840   2.748  19.367  0.00  0.00    +0.000 A 
ATOM     28  N   UNL     1       1.718   1.968  18.255  0.00  0.00    +0.000 N 
ATOM     29  N   UNL     1       2.297   2.498  17.156  0.00  0.00    +0.000 NA
ATOM     30  C   UNL     1       2.793   3.660  17.600  0.00  0.00    +0.000 A 
ATOM     31  C   UNL     1       2.527   3.877  18.965  0.00  0.00    +0.000 A 
ATOM     32  H   UNL     1       1.250   1.072  18.186  0.00  0.00    +0.000 HD
ENDBRANCH  22  23
ENDBRANCH   4  22
TORSDOF 5
ENDMDL
MODEL 2
REMARK VINA RESULT:      -8.5      0.696      1.818
REMARK  Name = 
REMARK  8 active torsions:
REMARK  status: ('A' for Active; 'I' for Inactive)
REMARK    1  A    between atoms: C_1  and  C_2
REMARK    2  A    between atoms: C_2  and  C_3
REMARK    3  A    between atoms: C_2  and  C_4
REMARK    4  A    between atoms: C_6  and  N_7
REMARK    5  A    between atoms: N_10  and  C_11
REMARK    6  A    between atoms: C_14  and  O_15
REMARK    7  A    between atoms: O_15  and  C_16
REMARK    8  A    between atoms: N_27  and  C_28
REMARK                            x       y       z     vdW  Elec       q    Type
REMARK                         _______ _______ _______ _____ _____    ______ ____
ROOT
ATOM      1  C   UNL     1       0.949   9.528  18.916  0.00  0.00    +0.000 A 
ATOM      2  C   UNL     1       1.731   9.060  17.851  0.00  0.00    +0.000 A 
ATOM      3  C   UNL     1       2.565   7.949  17.990  0.00  0.00    +0.000 A 
ATOM      4  C   UNL     1       2.656   7.294  19.211  0.00  0.00    +0.000 A 
ATOM      5  C   UNL     1       1.883   7.742  20.284  0.00  0.00    +0.000 A 
ATOM      6  C   UNL     1       1.050   8.867  20.145  0.00  0.00    +0.000 A 
ENDROOT
BRANCH   1  10
ATOM      7  N   UNL     1      -1.971  11.732  18.330  0.00  0.00    +0.000 N 
ATOM      8  C   UNL     1      -1.262  10.488  18.422  0.00  0.00    +0.000 C 
ATOM      9  O   UNL     1      -1.848   9.451  18.167  0.00  0.00    +0.000 OA
ATOM     10  N   UNL     1       0.051  10.629  18.794  0.00  0.00    +0.000 N 
ATOM     11  H   UNL     1      -1.467  12.606  18.311  0.00  0.00    +0.000 HD
ATOM     12  H   UNL     1       0.384  11.522  19.121  0.00  0.00    +0.000 HD
BRANCH   7  15
ATOM     13  C   UNL     1      -5.575  11.810  18.438  0.00  0.00    +0.000 A 
ATOM     14  C   UNL     1      -4.331  12.048  19.057  0.00  0.00    +0.000 A 
ATOM     15  C   UNL     1      -3.362  11.733  18.124  0.00  0.00    +0.000 A 
ATOM     16  N   UNL     1      -4.075  11.448  16.980  0.00  0.00    +0.000 N 
ATOM     17  C   UNL     1      -3.591  11.102  15.667  0.00  0.00    +0.000 C 
ATOM     18  N   UNL     1      -5.413  11.446  17.164  0.00  0.00    +0.000 NA
BRANCH  13  20
ATOM     19  C   UNL     1      -6.891  12.068  20.569  0.00  0.00    +0.000 C 
ATOM     20  C   UNL     1      -6.947  11.934  19.043  0.00  0.00    +0.000 C 
ATOM     21  C   UNL     1      -7.715  13.112  18.439  0.00  0.00    +0.000 C 
ENDBRANCH  13  20
ENDBRANCH   7  15
ENDBRANCH   1  10
BRANCH   4  22
ATOM     22  O   UNL     1       3.456   6.176  19.224  0.00  0.00    +0.000 OA
BRANCH  22  23
ATOM     23  C   UNL     1       2.884   4.943  18.964  0.00  0.00    +0.000 A 
ATOM     24  N   UNL     1       2.729   4.507  17.690  0.00  0.00    +0.000 NA
ATOM     25  C   UNL     1       2.183   3.289  17.504  0.00  0.00    +0.000 A 
ATOM     26  N   UNL     1       1.754   2.423  18.441  0.00  0.00    +0.000 NA
ATOM     27  C   UNL     1       1.897   2.928  19.676  0.00  0.00    +0.000 A 
ATOM     28  N   UNL     1       1.557   2.329  20.854  0.00  0.00    +0.000 N 
ATOM     29  N   UNL     1       1.808   3.092  21.941  0.00  0.00    +0.000 NA
ATOM     30  C   UNL     1       2.333   4.207  21.419  0.00  0.00    +0.000 A 
ATOM     31  C   UNL     1       2.426   4.158  20.015  0.00  0.00    +0.000 A 
ATOM     32  H   UNL     1       1.157   1.406  20.976  0.00  0.00    +0.000 HD
ENDBRANCH  22  23
ENDBRANCH   4  22
TORSDOF 5
ENDMDL
MODEL 3
REMARK VINA RESULT:      -8.3      3.429     10.228
REMARK  Name = 
REMARK  8 active torsions:
REMARK  status: ('A' for Active; 'I' for Inactive)
REMARK    1  A    between atoms: C_1  and  C_2
REMARK    2  A    between atoms: C_2  and  C_3
REMARK    3  A    between atoms: C_2  and  C_4
REMARK    4  A    between atoms: C_6  and  N_7
REMARK    5  A    between atoms: N_10  and  C_11
REMARK    6  A    between atoms: C_14  and  O_15
REMARK    7  A    between atoms: O_15  and  C_16
REMARK    8  A    between atoms: N_27  and  C_28
REMARK                            x       y       z     vdW  Elec       q    Type
REMARK                         _______ _______ _______ _____ _____    ______ ____
ROOT
ATOM      1  C   UNL     1       0.700   8.757  21.358  0.00  0.00    +0.000 A 
ATOM      2  C   UNL     1       0.473   9.565  20.235  0.00  0.00    +0.000 A 
ATOM      3  C   UNL     1      -0.185  10.792  20.339  0.00  0.00    +0.000 A 
ATOM      4  C   UNL     1      -0.657  11.228  21.569  0.00  0.00    +0.000 A 
ATOM      5  C   UNL     1      -0.438  10.440  22.702  0.00  0.00    +0.000 A 
ATOM      6  C   UNL     1       0.216   9.200  22.594  0.00  0.00    +0.000 A 
ENDROOT
BRANCH   1  10
ATOM      7  N   UNL     1       2.704   5.817  20.327  0.00  0.00    +0.000 N 
ATOM      8  C   UNL     1       2.090   7.105  20.179  0.00  0.00    +0.000 C 
ATOM      9  O   UNL     1       2.207   7.699  19.122  0.00  0.00    +0.000 OA
ATOM     10  N   UNL     1       1.410   7.522  21.295  0.00  0.00    +0.000 N 
ATOM     11  H   UNL     1       2.440   5.211  21.090  0.00  0.00    +0.000 HD
ATOM     12  H   UNL     1       1.507   7.012  22.159  0.00  0.00    +0.000 HD
BRANCH   7  15
ATOM     13  C   UNL     1       5.378   4.923  18.078  0.00  0.00    +0.000 A 
ATOM     14  C   UNL     1       4.947   5.458  19.309  0.00  0.00    +0.000 A 
ATOM     15  C   UNL     1       3.571   5.334  19.331  0.00  0.00    +0.000 A 
ATOM     16  N   UNL     1       3.278   4.630  18.184  0.00  0.00    +0.000 N 
ATOM     17  C   UNL     1       2.001   4.163  17.703  0.00  0.00    +0.000 C 
ATOM     18  N   UNL     1       4.351   4.413  17.393  0.00  0.00    +0.000 NA
BRANCH  13  20
ATOM     19  C   UNL     1       6.797   4.564  16.028  0.00  0.00    +0.000 C 
ATOM     20  C   UNL     1       6.778   4.874  17.530  0.00  0.00    +0.000 C 
ATOM     21  C   UNL     1       7.528   6.179  17.806  0.00  0.00    +0.000 C 
ENDBRANCH  13  20
ENDBRANCH   7  15
ENDBRANCH   1  10
BRANCH   4  22
ATOM     22  O   UNL     1      -1.233  12.476  21.573  0.00  0.00    +0.000 OA
BRANCH  22  23
ATOM     23  C   UNL     1      -2.599  12.581  21.372  0.00  0.00    +0.000 A 
ATOM     24  N   UNL     1      -3.101  12.783  20.129  0.00  0.00    +0.000 NA
ATOM     25  C   UNL     1      -4.441  12.856  19.997  0.00  0.00    +0.000 A 
ATOM     26  N   UNL     1      -5.374  12.756  20.962  0.00  0.00    +0.000 NA
ATOM     27  C   UNL     1      -4.813  12.597  22.170  0.00  0.00    +0.000 A 
ATOM     28  N   UNL     1      -5.458  12.474  23.367  0.00  0.00    +0.000 N 
ATOM     29  N   UNL     1      -4.622  12.339  24.420  0.00  0.00    +0.000 NA
ATOM     30  C   UNL     1      -3.409  12.372  23.856  0.00  0.00    +0.000 A 
ATOM     31  C   UNL     1      -3.464  12.517  22.457  0.00  0.00    +0.000 A 
ATOM     32  H   UNL     1      -6.459  12.470  23.523  0.00  0.00    +0.000 HD
ENDBRANCH  22  23
ENDBRANCH   4  22
TORSDOF 5
ENDMDL
MODEL 4
REMARK VINA RESULT:      -8.2      3.405     10.273
REMARK  Name = 
REMARK  8 active torsions:
REMARK  status: ('A' for Active; 'I' for Inactive)
REMARK    1  A    between atoms: C_1  and  C_2
REMARK    2  A    between atoms: C_2  and  C_3
REMARK    3  A    between atoms: C_2  and  C_4
REMARK    4  A    between atoms: C_6  and  N_7
REMARK    5  A    between atoms: N_10  and  C_11
REMARK    6  A    between atoms: C_14  and  O_15
REMARK    7  A    between atoms: O_15  and  C_16
REMARK    8  A    between atoms: N_27  and  C_28
REMARK                            x       y       z     vdW  Elec       q    Type
REMARK                         _______ _______ _______ _____ _____    ______ ____
ROOT
ATOM      1  C   UNL     1       2.399   6.939  19.446  0.00  0.00    +0.000 A 
ATOM      2  C   UNL     1       1.793   6.987  20.710  0.00  0.00    +0.000 A 
ATOM      3  C   UNL     1       1.045   8.092  21.120  0.00  0.00    +0.000 A 
ATOM      4  C   UNL     1       0.908   9.190  20.282  0.00  0.00    +0.000 A 
ATOM      5  C   UNL     1       1.500   9.162  19.017  0.00  0.00    +0.000 A 
ATOM      6  C   UNL     1       2.262   8.052  18.610  0.00  0.00    +0.000 A 
ENDROOT
BRANCH   1  10
ATOM      7  N   UNL     1       4.542   4.577  17.561  0.00  0.00    +0.000 N 
ATOM      8  C   UNL     1       3.931   5.838  17.867  0.00  0.00    +0.000 C 
ATOM      9  O   UNL     1       4.155   6.795  17.147  0.00  0.00    +0.000 OA
ATOM     10  N   UNL     1       3.129   5.807  18.979  0.00  0.00    +0.000 N 
ATOM     11  H   UNL     1       4.205   3.729  17.992  0.00  0.00    +0.000 HD
ATOM     12  H   UNL     1       3.138   4.995  19.578  0.00  0.00    +0.000 HD
BRANCH   7  15
ATOM     13  C   UNL     1       6.561   4.185  14.598  0.00  0.00    +0.000 A 
ATOM     14  C   UNL     1       5.294   4.307  15.204  0.00  0.00    +0.000 A 
ATOM     15  C   UNL     1       5.519   4.496  16.553  0.00  0.00    +0.000 A 
ATOM     16  N   UNL     1       6.889   4.598  16.655  0.00  0.00    +0.000 N 
ATOM     17  C   UNL     1       7.700   4.850  17.820  0.00  0.00    +0.000 C 
ATOM     18  N   UNL     1       7.536   4.368  15.492  0.00  0.00    +0.000 NA
BRANCH  13  20
ATOM     19  C   UNL     1       5.611   3.569  12.349  0.00  0.00    +0.000 C 
ATOM     20  C   UNL     1       6.873   3.902  13.153  0.00  0.00    +0.000 C 
ATOM     21  C   UNL     1       7.616   5.073  12.507  0.00  0.00    +0.000 C 
ENDBRANCH  13  20
ENDBRANCH   7  15
ENDBRANCH   1  10
BRANCH   4  22
ATOM     22  O   UNL     1       0.100  10.197  20.755  0.00  0.00    +0.000 OA
BRANCH  22  23
ATOM     23  C   UNL     1      -0.064  11.337  19.986  0.00  0.00    +0.000 A 
ATOM     24  N   UNL     1       0.618  12.472  20.277  0.00  0.00    +0.000 NA
ATOM     25  C   UNL     1       0.429  13.541  19.479  0.00  0.00    +0.000 A 
ATOM     26  N   UNL     1      -0.372  13.639  18.401  0.00  0.00    +0.000 NA
ATOM     27  C   UNL     1      -1.048  12.499  18.190  0.00  0.00    +0.000 A 
ATOM     28  N   UNL     1      -1.952  12.250  17.199  0.00  0.00    +0.000 N 
ATOM     29  N   UNL     1      -2.482  11.008  17.249  0.00  0.00    +0.000 NA
ATOM     30  C   UNL     1      -1.878  10.459  18.310  0.00  0.00    +0.000 A 
ATOM     31  C   UNL     1      -0.965  11.334  18.928  0.00  0.00    +0.000 A 
ATOM     32  H   UNL     1      -2.240  12.883  16.463  0.00  0.00    +0.000 HD
ENDBRANCH  22  23
ENDBRANCH   4  22
TORSDOF 5
ENDMDL
MODEL 5
REMARK VINA RESULT:      -8.2      0.539      1.225
REMARK  Name = 
REMARK  8 active torsions:
REMARK  status: ('A' for Active; 'I' for Inactive)
REMARK    1  A    between atoms: C_1  and  C_2
REMARK    2  A    between atoms: C_2  and  C_3
REMARK    3  A    between atoms: C_2  and  C_4
REMARK    4  A    between atoms: C_6  and  N_7
REMARK    5  A    between atoms: N_10  and  C_11
REMARK    6  A    between atoms: C_14  and  O_15
REMARK    7  A    between atoms: O_15  and  C_16
REMARK    8  A    between atoms: N_27  and  C_28
REMARK                            x       y       z     vdW  Elec       q    Type
REMARK                         _______ _______ _______ _____ _____    ______ ____
ROOT
ATOM      1  C   UNL     1       0.547   9.607  19.012  0.00  0.00    +0.000 A 
ATOM      2  C   UNL     1       0.776   9.004  20.257  0.00  0.00    +0.000 A 
ATOM      3  C   UNL     1       1.662   7.935  20.399  0.00  0.00    +0.000 A 
ATOM      4  C   UNL     1       2.322   7.425  19.289  0.00  0.00    +0.000 A 
ATOM      5  C   UNL     1       2.111   8.013  18.040  0.00  0.00    +0.000 A 
ATOM      6  C   UNL     1       1.211   9.084  17.897  0.00  0.00    +0.000 A 
ENDROOT
BRANCH   1  10
ATOM      7  N   UNL     1      -2.293  11.880  18.307  0.00  0.00    +0.000 N 
ATOM      8  C   UNL     1      -1.624  10.619  18.448  0.00  0.00    +0.000 C 
ATOM      9  O   UNL     1      -2.237   9.593  18.211  0.00  0.00    +0.000 OA
ATOM     10  N   UNL     1      -0.315  10.730  18.841  0.00  0.00    +0.000 N 
ATOM     11  H   UNL     1      -1.762  12.738  18.274  0.00  0.00    +0.000 HD
ATOM     12  H   UNL     1       0.040  11.623  19.150  0.00  0.00    +0.000 HD
BRANCH   7  15
ATOM     13  C   UNL     1      -5.895  12.052  18.345  0.00  0.00    +0.000 A 
ATOM     14  C   UNL     1      -4.657  12.257  18.988  0.00  0.00    +0.000 A 
ATOM     15  C   UNL     1      -3.679  11.918  18.074  0.00  0.00    +0.000 A 
ATOM     16  N   UNL     1      -4.376  11.652  16.916  0.00  0.00    +0.000 N 
ATOM     17  C   UNL     1      -3.876  11.293  15.613  0.00  0.00    +0.000 C 
ATOM     18  N   UNL     1      -5.717  11.684  17.073  0.00  0.00    +0.000 NA
BRANCH  13  20
ATOM     19  C   UNL     1      -7.449  11.415  20.221  0.00  0.00    +0.000 C 
ATOM     20  C   UNL     1      -7.275  12.211  18.923  0.00  0.00    +0.000 C 
ATOM     21  C   UNL     1      -7.610  13.686  19.161  0.00  0.00    +0.000 C 
ENDBRANCH  13  20
ENDBRANCH   7  15
ENDBRANCH   1  10
BRANCH   4  22
ATOM     22  O   UNL     1       3.219   6.415  19.547  0.00  0.00    +0.000 OA
BRANCH  22  23
ATOM     23  C   UNL     1       2.735   5.163  19.882  0.00  0.00    +0.000 A 
ATOM     24  N   UNL     1       2.444   4.855  21.171  0.00  0.00    +0.000 NA
ATOM     25  C   UNL     1       1.957   3.625  21.429  0.00  0.00    +0.000 A 
ATOM     26  N   UNL     1       1.716   2.630  20.555  0.00  0.00    +0.000 NA
ATOM     27  C   UNL     1       2.061   2.982  19.306  0.00  0.00    +0.000 A 
ATOM     28  N   UNL     1       1.963   2.217  18.180  0.00  0.00    +0.000 N 
ATOM     29  N   UNL     1       2.402   2.840  17.064  0.00  0.00    +0.000 NA
ATOM     30  C   UNL     1       2.781   4.044  17.513  0.00  0.00    +0.000 A 
ATOM     31  C   UNL     1       2.579   4.195  18.897  0.00  0.00    +0.000 A 
ATOM     32  H   UNL     1       1.604   1.273  18.113  0.00  0.00    +0.000 HD
ENDBRANCH  22  23
ENDBRANCH   4  22
TORSDOF 5
ENDMDL
MODEL 6
REMARK VINA RESULT:      -8.2      0.943      1.520
REMARK  Name = 
REMARK  8 active torsions:
REMARK  status: ('A' for Active; 'I' for Inactive)
REMARK    1  A    between atoms: C_1  and  C_2
REMARK    2  A    between atoms: C_2  and  C_3
REMARK    3  A    between atoms: C_2  and  C_4
REMARK    4  A    between atoms: C_6  and  N_7
REMARK    5  A    between atoms: N_10  and  C_11
REMARK    6  A    between atoms: C_14  and  O_15
REMARK    7  A    between atoms: O_15  and  C_16
REMARK    8  A    between atoms: N_27  and  C_28
REMARK                            x       y       z     vdW  Elec       q    Type
REMARK                         _______ _______ _______ _____ _____    ______ ____
ROOT
ATOM      1  C   UNL     1       1.268   9.187  18.535  0.00  0.00    +0.000 A 
ATOM      2  C   UNL     1       2.081   8.481  17.636  0.00  0.00    +0.000 A 
ATOM      3  C   UNL     1       2.837   7.381  18.045  0.00  0.00    +0.000 A 
ATOM      4  C   UNL     1       2.817   6.976  19.373  0.00  0.00    +0.000 A 
ATOM      5  C   UNL     1       2.010   7.663  20.284  0.00  0.00    +0.000 A 
ATOM      6  C   UNL     1       1.257   8.777  19.872  0.00  0.00    +0.000 A 
ENDROOT
BRANCH   1  10
ATOM      7  N   UNL     1      -1.532  11.524  17.881  0.00  0.00    +0.000 N 
ATOM      8  C   UNL     1      -0.899  10.346  18.398  0.00  0.00    +0.000 C 
ATOM      9  O   UNL     1      -1.573   9.523  18.993  0.00  0.00    +0.000 OA
ATOM     10  N   UNL     1       0.447  10.284  18.140  0.00  0.00    +0.000 N 
ATOM     11  H   UNL     1      -1.059  12.100  17.201  0.00  0.00    +0.000 HD
ATOM     12  H   UNL     1       0.921  11.093  17.768  0.00  0.00    +0.000 HD
BRANCH   7  15
ATOM     13  C   UNL     1      -5.080  12.129  18.108  0.00  0.00    +0.000 A 
ATOM     14  C   UNL     1      -3.974  11.609  17.406  0.00  0.00    +0.000 A 
ATOM     15  C   UNL     1      -2.869  11.806  18.212  0.00  0.00    +0.000 A 
ATOM     16  N   UNL     1      -3.391  12.312  19.382  0.00  0.00    +0.000 N 
ATOM     17  C   UNL     1      -2.714  12.662  20.605  0.00  0.00    +0.000 C 
ATOM     18  N   UNL     1      -4.718  12.556  19.321  0.00  0.00    +0.000 NA
BRANCH  13  20
ATOM     19  C   UNL     1      -7.498  12.126  18.813  0.00  0.00    +0.000 C 
ATOM     20  C   UNL     1      -6.509  12.222  17.645  0.00  0.00    +0.000 C 
ATOM     21  C   UNL     1      -6.753  13.509  16.854  0.00  0.00    +0.000 C 
ENDBRANCH  13  20
ENDBRANCH   7  15
ENDBRANCH   1  10
BRANCH   4  22
ATOM     22  O   UNL     1       3.545   5.846  19.658  0.00  0.00    +0.000 OA
BRANCH  22  23
ATOM     23  C   UNL     1       2.872   4.692  20.021  0.00  0.00    +0.000 A 
ATOM     24  N   UNL     1       2.507   4.481  21.310  0.00  0.00    +0.000 NA
ATOM     25  C   UNL     1       1.835   3.347  21.595  0.00  0.00    +0.000 A 
ATOM     26  N   UNL     1       1.472   2.365  20.749  0.00  0.00    +0.000 NA
ATOM     27  C   UNL     1       1.896   2.614  19.500  0.00  0.00    +0.000 A 
ATOM     28  N   UNL     1       1.714   1.829  18.399  0.00  0.00    +0.000 N 
ATOM     29  N   UNL     1       2.269   2.337  17.276  0.00  0.00    +0.000 NA
ATOM     30  C   UNL     1       2.811   3.488  17.694  0.00  0.00    +0.000 A 
ATOM     31  C   UNL     1       2.599   3.721  19.066  0.00  0.00    +0.000 A 
ATOM     32  H   UNL     1       1.220   0.946  18.353  0.00  0.00    +0.000 HD
ENDBRANCH  22  23
ENDBRANCH   4  22
TORSDOF 5
ENDMDL
MODEL 7
REMARK VINA RESULT:      -8.2      3.860      5.038
REMARK  Name = 
REMARK  8 active torsions:
REMARK  status: ('A' for Active; 'I' for Inactive)
REMARK    1  A    between atoms: C_1  and  C_2
REMARK    2  A    between atoms: C_2  and  C_3
REMARK    3  A    between atoms: C_2  and  C_4
REMARK    4  A    between atoms: C_6  and  N_7
REMARK    5  A    between atoms: N_10  and  C_11
REMARK    6  A    between atoms: C_14  and  O_15
REMARK    7  A    between atoms: O_15  and  C_16
REMARK    8  A    between atoms: N_27  and  C_28
REMARK                            x       y       z     vdW  Elec       q    Type
REMARK                         _______ _______ _______ _____ _____    ______ ____
ROOT
ATOM      1  C   UNL     1       2.011   7.167  20.300  0.00  0.00    +0.000 A 
ATOM      2  C   UNL     1       1.907   5.775  20.431  0.00  0.00    +0.000 A 
ATOM      3  C   UNL     1       2.334   4.913  19.420  0.00  0.00    +0.000 A 
ATOM      4  C   UNL     1       2.853   5.425  18.239  0.00  0.00    +0.000 A 
ATOM      5  C   UNL     1       2.968   6.809  18.089  0.00  0.00    +0.000 A 
ATOM      6  C   UNL     1       2.529   7.678  19.104  0.00  0.00    +0.000 A 
ENDROOT
BRANCH   1  10
ATOM      7  N   UNL     1       0.591   9.953  22.288  0.00  0.00    +0.000 N 
ATOM      8  C   UNL     1       0.817   9.158  21.115  0.00  0.00    +0.000 C 
ATOM      9  O   UNL     1       0.301   9.494  20.064  0.00  0.00    +0.000 OA
ATOM     10  N   UNL     1       1.629   8.074  21.332  0.00  0.00    +0.000 N 
ATOM     11  H   UNL     1       1.175   9.836  23.103  0.00  0.00    +0.000 HD
ATOM     12  H   UNL     1       1.876   7.816  22.275  0.00  0.00    +0.000 HD
BRANCH   7  15
ATOM     13  C   UNL     1      -2.219  12.205  22.494  0.00  0.00    +0.000 A 
ATOM     14  C   UNL     1      -1.580  11.011  22.889  0.00  0.00    +0.000 A 
ATOM     15  C   UNL     1      -0.351  10.996  22.259  0.00  0.00    +0.000 A 
ATOM     16  N   UNL     1      -0.278  12.221  21.632  0.00  0.00    +0.000 N 
ATOM     17  C   UNL     1       0.800  12.787  20.860  0.00  0.00    +0.000 C 
ATOM     18  N   UNL     1      -1.414  12.945  21.726  0.00  0.00    +0.000 NA
BRANCH  13  20
ATOM     19  C   UNL     1      -3.935  12.424  24.324  0.00  0.00    +0.000 C 
ATOM     20  C   UNL     1      -3.604  12.673  22.847  0.00  0.00    +0.000 C 
ATOM     21  C   UNL     1      -3.793  14.153  22.508  0.00  0.00    +0.000 C 
ENDBRANCH  13  20
ENDBRANCH   7  15
ENDBRANCH   1  10
BRANCH   4  22
ATOM     22  O   UNL     1       3.302   4.491  17.336  0.00  0.00    +0.000 OA
BRANCH  22  23
ATOM     23  C   UNL     1       4.631   4.521  16.951  0.00  0.00    +0.000 A 
ATOM     24  N   UNL     1       4.980   4.334  15.654  0.00  0.00    +0.000 NA
ATOM     25  C   UNL     1       6.290   4.394  15.341  0.00  0.00    +0.000 A 
ATOM     26  N   UNL     1       7.329   4.617  16.167  0.00  0.00    +0.000 NA
ATOM     27  C   UNL     1       6.923   4.753  17.439  0.00  0.00    +0.000 A 
ATOM     28  N   UNL     1       7.706   4.976  18.533  0.00  0.00    +0.000 N 
ATOM     29  N   UNL     1       7.011   5.056  19.689  0.00  0.00    +0.000 NA
ATOM     30  C   UNL     1       5.742   4.883  19.297  0.00  0.00    +0.000 A 
ATOM     31  C   UNL     1       5.624   4.704  17.906  0.00  0.00    +0.000 A 
ATOM     32  H   UNL     1       8.713   5.086  18.551  0.00  0.00    +0.000 HD
ENDBRANCH  22  23
ENDBRANCH   4  22
TORSDOF 5
ENDMDL
MODEL 8
REMARK VINA RESULT:      -8.1      1.530      2.240
REMARK  Name = 
REMARK  8 active torsions:
REMARK  status: ('A' for Active; 'I' for Inactive)
REMARK    1  A    between atoms: C_1  and  C_2
REMARK    2  A    between atoms: C_2  and  C_3
REMARK    3  A    between atoms: C_2  and  C_4
REMARK    4  A    between atoms: C_6  and  N_7
REMARK    5  A    between atoms: N_10  and  C_11
REMARK    6  A    between atoms: C_14  and  O_15
REMARK    7  A    between atoms: O_15  and  C_16
REMARK    8  A    between atoms: N_27  and  C_28
REMARK                            x       y       z     vdW  Elec       q    Type
REMARK                         _______ _______ _______ _____ _____    ______ ____
ROOT
ATOM      1  C   UNL     1       0.538   9.739  19.017  0.00  0.00    +0.000 A 
ATOM      2  C   UNL     1       0.763   9.049  20.217  0.00  0.00    +0.000 A 
ATOM      3  C   UNL     1       1.688   8.007  20.298  0.00  0.00    +0.000 A 
ATOM      4  C   UNL     1       2.394   7.612  19.169  0.00  0.00    +0.000 A 
ATOM      5  C   UNL     1       2.188   8.289  17.965  0.00  0.00    +0.000 A 
ATOM      6  C   UNL     1       1.249   9.332  17.882  0.00  0.00    +0.000 A 
ENDROOT
BRANCH   1  10
ATOM      7  N   UNL     1      -2.402  11.935  18.508  0.00  0.00    +0.000 N 
ATOM      8  C   UNL     1      -1.689  10.693  18.591  0.00  0.00    +0.000 C 
ATOM      9  O   UNL     1      -2.285   9.652  18.374  0.00  0.00    +0.000 OA
ATOM     10  N   UNL     1      -0.364  10.838  18.912  0.00  0.00    +0.000 N 
ATOM     11  H   UNL     1      -1.899  12.809  18.457  0.00  0.00    +0.000 HD
ATOM     12  H   UNL     1      -0.019  11.737  19.213  0.00  0.00    +0.000 HD
BRANCH   7  15
ATOM     13  C   UNL     1      -6.000  12.015  18.750  0.00  0.00    +0.000 A 
ATOM     14  C   UNL     1      -4.733  12.260  19.318  0.00  0.00    +0.000 A 
ATOM     15  C   UNL     1      -3.799  11.934  18.354  0.00  0.00    +0.000 A 
ATOM     16  N   UNL     1      -4.555  11.635  17.241  0.00  0.00    +0.000 N 
ATOM     17  C   UNL     1      -4.120  11.273  15.915  0.00  0.00    +0.000 C 
ATOM     18  N   UNL     1      -5.885  11.635  17.474  0.00  0.00    +0.000 NA
BRANCH  13  20
ATOM     19  C   UNL     1      -7.529  11.148  20.553  0.00  0.00    +0.000 C 
ATOM     20  C   UNL     1      -7.348  12.147  19.404  0.00  0.00    +0.000 C 
ATOM     21  C   UNL     1      -7.585  13.573  19.904  0.00  0.00    +0.000 C 
ENDBRANCH  13  20
ENDBRANCH   7  15
ENDBRANCH   1  10
BRANCH   4  22
ATOM     22  O   UNL     1       3.325   6.621  19.371  0.00  0.00    +0.000 OA
BRANCH  22  23
ATOM     23  C   UNL     1       3.204   5.438  18.662  0.00  0.00    +0.000 A 
ATOM     24  N   UNL     1       2.037   4.747  18.663  0.00  0.00    +0.000 NA
ATOM     25  C   UNL     1       1.977   3.614  17.936  0.00  0.00    +0.000 A 
ATOM     26  N   UNL     1       2.949   3.056  17.191  0.00  0.00    +0.000 NA
ATOM     27  C   UNL     1       4.088   3.763  17.264  0.00  0.00    +0.000 A 
ATOM     28  N   UNL     1       5.271   3.481  16.646  0.00  0.00    +0.000 N 
ATOM     29  N   UNL     1       6.249   4.373  16.919  0.00  0.00    +0.000 NA
ATOM     30  C   UNL     1       5.648   5.249  17.733  0.00  0.00    +0.000 A 
ATOM     31  C   UNL     1       4.298   4.930  17.973  0.00  0.00    +0.000 A 
ATOM     32  H   UNL     1       5.468   2.703  16.029  0.00  0.00    +0.000 HD
ENDBRANCH  22  23
ENDBRANCH   4  22
TORSDOF 5
ENDMDL
MODEL 9
REMARK VINA RESULT:      -8.1      3.478     10.167
REMARK  Name = 
REMARK  8 active torsions:
REMARK  status: ('A' for Active; 'I' for Inactive)
REMARK    1  A    between atoms: C_1  and  C_2
REMARK    2  A    between atoms: C_2  and  C_3
REMARK    3  A    between atoms: C_2  and  C_4
REMARK    4  A    between atoms: C_6  and  N_7
REMARK    5  A    between atoms: N_10  and  C_11
REMARK    6  A    between atoms: C_14  and  O_15
REMARK    7  A    between atoms: O_15  and  C_16
REMARK    8  A    between atoms: N_27  and  C_28
REMARK                            x       y       z     vdW  Elec       q    Type
REMARK                         _______ _______ _______ _____ _____    ______ ____
ROOT
ATOM      1  C   UNL     1       0.838   9.018  21.591  0.00  0.00    +0.000 A 
ATOM      2  C   UNL     1       0.102   9.319  22.746  0.00  0.00    +0.000 A 
ATOM      3  C   UNL     1      -0.569  10.535  22.888  0.00  0.00    +0.000 A 
ATOM      4  C   UNL     1      -0.498  11.492  21.885  0.00  0.00    +0.000 A 
ATOM      5  C   UNL     1       0.227  11.211  20.724  0.00  0.00    +0.000 A 
ATOM      6  C   UNL     1       0.910   9.989  20.586  0.00  0.00    +0.000 A 
ENDROOT
BRANCH   1  10
ATOM      7  N   UNL     1       2.607   6.069  20.211  0.00  0.00    +0.000 N 
ATOM      8  C   UNL     1       2.024   7.380  20.190  0.00  0.00    +0.000 C 
ATOM      9  O   UNL     1       2.035   8.016  19.151  0.00  0.00    +0.000 OA
ATOM     10  N   UNL     1       1.494   7.767  21.394  0.00  0.00    +0.000 N 
ATOM     11  H   UNL     1       2.415   5.438  20.975  0.00  0.00    +0.000 HD
ATOM     12  H   UNL     1       1.675   7.217  22.219  0.00  0.00    +0.000 HD
BRANCH   7  15
ATOM     13  C   UNL     1       4.943   5.259  17.586  0.00  0.00    +0.000 A 
ATOM     14  C   UNL     1       4.679   5.806  18.858  0.00  0.00    +0.000 A 
ATOM     15  C   UNL     1       3.334   5.606  19.101  0.00  0.00    +0.000 A 
ATOM     16  N   UNL     1       2.907   4.853  18.030  0.00  0.00    +0.000 N 
ATOM     17  C   UNL     1       1.601   4.302  17.767  0.00  0.00    +0.000 C 
ATOM     18  N   UNL     1       3.853   4.672  17.083  0.00  0.00    +0.000 NA
BRANCH  13  20
ATOM     19  C   UNL     1       7.381   4.631  17.623  0.00  0.00    +0.000 C 
ATOM     20  C   UNL     1       6.240   5.272  16.824  0.00  0.00    +0.000 C 
ATOM     21  C   UNL     1       6.094   4.579  15.467  0.00  0.00    +0.000 C 
ENDBRANCH  13  20
ENDBRANCH   7  15
ENDBRANCH   1  10
BRANCH   4  22
ATOM     22  O   UNL     1      -1.245  12.627  22.096  0.00  0.00    +0.000 OA
BRANCH  22  23
ATOM     23  C   UNL     1      -2.569  12.638  21.693  0.00  0.00    +0.000 A 
ATOM     24  N   UNL     1      -2.892  12.765  20.382  0.00  0.00    +0.000 NA
ATOM     25  C   UNL     1      -4.199  12.748  20.052  0.00  0.00    +0.000 A 
ATOM     26  N   UNL     1      -5.258  12.622  20.873  0.00  0.00    +0.000 NA
ATOM     27  C   UNL     1      -4.875  12.542  22.157  0.00  0.00    +0.000 A 
ATOM     28  N   UNL     1      -5.682  12.419  23.250  0.00  0.00    +0.000 N 
ATOM     29  N   UNL     1      -5.006  12.374  24.419  0.00  0.00    +0.000 NA
ATOM     30  C   UNL     1      -3.726  12.464  24.038  0.00  0.00    +0.000 A 
ATOM     31  C   UNL     1      -3.581  12.556  22.641  0.00  0.00    +0.000 A 
ATOM     32  H   UNL     1      -6.693  12.358  23.259  0.00  0.00    +0.000 HD
ENDBRANCH  22  23
ENDBRANCH   4  22
TORSDOF 5
ENDMDL
