MODEL 1
REMARK VINA RESULT:      -7.8      0.000      0.000
REMARK  Name = 
REMARK  11 active torsions:
REMARK  status: ('A' for Active; 'I' for Inactive)
REMARK    1  A    between atoms: C_1  and  O_2
REMARK    2  A    between atoms: O_2  and  C_3
REMARK    3  A    between atoms: C_6  and  C_7
REMARK    4  A    between atoms: C_7  and  N_8
REMARK    5  A    between atoms: N_8  and  C_9
REMARK    6  A    between atoms: N_8  and  C_19
REMARK    7  A    between atoms: C_9  and  C_10
REMARK    8  A    between atoms: C_13  and  N_14
REMARK    9  A    between atoms: C_19  and  C_20
REMARK   10  A    between atoms: C_21  and  O_22
REMARK   11  A    between atoms: C_29  and  C_30
REMARK                            x       y       z     vdW  Elec       q    Type
REMARK                         _______ _______ _______ _____ _____    ______ ____
ROOT
ATOM      1  N   UNL     1       0.818   9.620  18.807  0.00  0.00    +0.000 NA
ENDROOT
BRANCH   1   2
ATOM      2  C   UNL     1       0.019  10.633  18.032  0.00  0.00    +0.000 C 
BRANCH   2   6
ATOM      3  C   UNL     1      -4.299  10.899  17.713  0.00  0.00    +0.000 A 
ATOM      4  C   UNL     1      -3.634  11.685  18.660  0.00  0.00    +0.000 A 
ATOM      5  C   UNL     1      -2.244  11.581  18.840  0.00  0.00    +0.000 A 
ATOM      6  C   UNL     1      -1.502  10.657  18.102  0.00  0.00    +0.000 A 
ATOM      7  C   UNL     1      -2.205   9.809  17.216  0.00  0.00    +0.000 A 
ATOM      8  C   UNL     1      -3.586   9.927  17.022  0.00  0.00    +0.000 A 
BRANCH   3  10
ATOM      9  C   UNL     1      -6.372  11.317  18.751  0.00  0.00    +0.000 C 
ATOM     10  O   UNL     1      -5.634  11.149  17.542  0.00  0.00    +0.000 OA
ENDBRANCH   3  10
ENDBRANCH   2   6
ENDBRANCH   1   2
BRANCH   1  11
ATOM     11  C   UNL     1       1.735   8.936  17.859  0.00  0.00    +0.000 C 
BRANCH  11  12
ATOM     12  C   UNL     1       2.612   7.775  18.332  0.00  0.00    +0.000 A 
ATOM     13  C   UNL     1       2.312   6.941  19.420  0.00  0.00    +0.000 A 
ATOM     14  C   UNL     1       3.082   5.788  19.680  0.00  0.00    +0.000 A 
ATOM     15  C   UNL     1       4.142   5.442  18.828  0.00  0.00    +0.000 A 
ATOM     16  C   UNL     1       4.453   6.255  17.737  0.00  0.00    +0.000 A 
ATOM     17  C   UNL     1       3.694   7.406  17.499  0.00  0.00    +0.000 A 
BRANCH  15  18
ATOM     18  N   UNL     1       4.906   4.207  19.050  0.00  0.00    +0.000 N 
ATOM     19  O   UNL     1       4.302   3.129  18.989  0.00  0.00    +0.000 OA
ATOM     20  O   UNL     1       6.129   4.317  19.281  0.00  0.00    +0.000 OA
ENDBRANCH  15  18
ENDBRANCH  11  12
ENDBRANCH   1  11
BRANCH   1  21
ATOM     21  C   UNL     1       1.565  10.386  19.867  0.00  0.00    +0.000 C 
BRANCH  21  22
ATOM     22  C   UNL     1       0.695  10.680  21.098  0.00  0.00    +0.000 A 
ATOM     23  C   UNL     1       0.299   9.618  21.944  0.00  0.00    +0.000 A 
ATOM     24  C   UNL     1      -0.664   9.772  22.940  0.00  0.00    +0.000 A 
ATOM     25  C   UNL     1      -1.246  11.010  23.146  0.00  0.00    +0.000 A 
ATOM     26  C   UNL     1      -0.831  12.098  22.375  0.00  0.00    +0.000 A 
ATOM     27  C   UNL     1      -1.480  13.393  22.607  0.00  0.00    +0.000 A 
ATOM     28  O   UNL     1      -2.343  13.563  23.457  0.00  0.00    +0.000 OA
ATOM     29  C   UNL     1      -1.012  14.508  21.791  0.00  0.00    +0.000 A 
ATOM     30  C   UNL     1       0.027  14.327  20.969  0.00  0.00    +0.000 A 
ATOM     31  C   UNL     1       0.665  15.529  20.333  0.00  0.00    +0.000 C 
ATOM     32  O   UNL     1       0.617  13.086  20.697  0.00  0.00    +0.000 OA
ATOM     33  C   UNL     1       0.161  11.963  21.382  0.00  0.00    +0.000 A 
BRANCH  23  34
ATOM     34  O   UNL     1       0.810   8.351  21.845  0.00  0.00    +0.000 OA
ATOM     35  H   UNL     1       0.665   8.032  20.942  0.00  0.00    +0.000 HD
ENDBRANCH  23  34
ENDBRANCH  21  22
ENDBRANCH   1  21
TORSDOF 9
ENDMDL
MODEL 2
REMARK VINA RESULT:      -7.6      1.549      1.619
REMARK  Name = 
REMARK  11 active torsions:
REMARK  status: ('A' for Active; 'I' for Inactive)
REMARK    1  A    between atoms: C_1  and  O_2
REMARK    2  A    between atoms: O_2  and  C_3
REMARK    3  A    between atoms: C_6  and  C_7
REMARK    4  A    between atoms: C_7  and  N_8
REMARK    5  A    between atoms: N_8  and  C_9
REMARK    6  A    between atoms: N_8  and  C_19
REMARK    7  A    between atoms: C_9  and  C_10
REMARK    8  A    between atoms: C_13  and  N_14
REMARK    9  A    between atoms: C_19  and  C_20
REMARK   10  A    between atoms: C_21  and  O_22
REMARK   11  A    between atoms: C_29  and  C_30
REMARK                            x       y       z     vdW  Elec       q    Type
REMARK                         _______ _______ _______ _____ _____    ______ ____
ROOT
ATOM      1  N   UNL     1       0.955   9.468  19.212  0.00  0.00    +0.000 NA
ENDROOT
BRANCH   1   2
ATOM      2  C   UNL     1       0.307  10.054  17.987  0.00  0.00    +0.000 C 
BRANCH   2   6
ATOM      3  C   UNL     1      -3.892  10.901  17.304  0.00  0.00    +0.000 A 
ATOM      4  C   UNL     1      -3.262  11.436  18.432  0.00  0.00    +0.000 A 
ATOM      5  C   UNL     1      -1.921  11.133  18.725  0.00  0.00    +0.000 A 
ATOM      6  C   UNL     1      -1.200  10.255  17.913  0.00  0.00    +0.000 A 
ATOM      7  C   UNL     1      -1.881   9.655  16.829  0.00  0.00    +0.000 A 
ATOM      8  C   UNL     1      -3.210   9.973  16.526  0.00  0.00    +0.000 A 
BRANCH   3  10
ATOM      9  C   UNL     1      -6.103  11.088  18.093  0.00  0.00    +0.000 C 
ATOM     10  O   UNL     1      -5.163  11.340  17.050  0.00  0.00    +0.000 OA
ENDBRANCH   3  10
ENDBRANCH   2   6
ENDBRANCH   1   2
BRANCH   1  11
ATOM     11  C   UNL     1       2.066   8.587  18.767  0.00  0.00    +0.000 C 
BRANCH  11  12
ATOM     12  C   UNL     1       2.062   7.098  19.118  0.00  0.00    +0.000 A 
ATOM     13  C   UNL     1       1.743   6.578  20.382  0.00  0.00    +0.000 A 
ATOM     14  C   UNL     1       1.592   5.188  20.574  0.00  0.00    +0.000 A 
ATOM     15  C   UNL     1       1.723   4.310  19.488  0.00  0.00    +0.000 A 
ATOM     16  C   UNL     1       2.032   4.807  18.222  0.00  0.00    +0.000 A 
ATOM     17  C   UNL     1       2.199   6.185  18.047  0.00  0.00    +0.000 A 
BRANCH  15  18
ATOM     18  N   UNL     1       1.499   2.868  19.663  0.00  0.00    +0.000 N 
ATOM     19  O   UNL     1       1.243   2.192  18.659  0.00  0.00    +0.000 OA
ATOM     20  O   UNL     1       1.586   2.405  20.820  0.00  0.00    +0.000 OA
ENDBRANCH  15  18
ENDBRANCH  11  12
ENDBRANCH   1  11
BRANCH   1  21
ATOM     21  C   UNL     1       1.446  10.631  20.035  0.00  0.00    +0.000 C 
BRANCH  21  22
ATOM     22  C   UNL     1       0.492  10.975  21.188  0.00  0.00    +0.000 A 
ATOM     23  C   UNL     1       0.258  10.024  22.208  0.00  0.00    +0.000 A 
ATOM     24  C   UNL     1      -0.754  10.175  23.156  0.00  0.00    +0.000 A 
ATOM     25  C   UNL     1      -1.553  11.304  23.133  0.00  0.00    +0.000 A 
ATOM     26  C   UNL     1      -1.308  12.296  22.180  0.00  0.00    +0.000 A 
ATOM     27  C   UNL     1      -2.184  13.473  22.172  0.00  0.00    +0.000 A 
ATOM     28  O   UNL     1      -3.095  13.631  22.973  0.00  0.00    +0.000 OA
ATOM     29  C   UNL     1      -1.891  14.492  21.172  0.00  0.00    +0.000 A 
ATOM     30  C   UNL     1      -0.805  14.360  20.400  0.00  0.00    +0.000 A 
ATOM     31  C   UNL     1      -0.367  15.526  19.562  0.00  0.00    +0.000 C 
ATOM     32  O   UNL     1       0.004  13.218  20.359  0.00  0.00    +0.000 OA
ATOM     33  C   UNL     1      -0.271  12.170  21.233  0.00  0.00    +0.000 A 
BRANCH  23  34
ATOM     34  O   UNL     1       0.988   8.873  22.342  0.00  0.00    +0.000 OA
ATOM     35  H   UNL     1       0.432   8.125  22.078  0.00  0.00    +0.000 HD
ENDBRANCH  23  34
ENDBRANCH  21  22
ENDBRANCH   1  21
TORSDOF 9
ENDMDL
MODEL 3
REMARK VINA RESULT:      -7.4      0.894      1.283
REMARK  Name = 
REMARK  11 active torsions:
REMARK  status: ('A' for Active; 'I' for Inactive)
REMARK    1  A    between atoms: C_1  and  O_2
REMARK    2  A    between atoms: O_2  and  C_3
REMARK    3  A    between atoms: C_6  and  C_7
REMARK    4  A    between atoms: C_7  and  N_8
REMARK    5  A    between atoms: N_8  and  C_9
REMARK    6  A    between atoms: N_8  and  C_19
REMARK    7  A    between atoms: C_9  and  C_10
REMARK    8  A    between atoms: C_13  and  N_14
REMARK    9  A    between atoms: C_19  and  C_20
REMARK   10  A    between atoms: C_21  and  O_22
REMARK   11  A    between atoms: C_29  and  C_30
REMARK                            x       y       z     vdW  Elec       q    Type
REMARK                         _______ _______ _______ _____ _____    ______ ____
ROOT
ATOM      1  N   UNL     1       1.111   9.925  18.877  0.00  0.00    +0.000 NA
ENDROOT
BRANCH   1   2
ATOM      2  C   UNL     1       0.259  10.630  17.857  0.00  0.00    +0.000 C 
BRANCH   2   6
ATOM      3  C   UNL     1      -4.069  10.800  17.623  0.00  0.00    +0.000 A 
ATOM      4  C   UNL     1      -3.404  11.601  18.557  0.00  0.00    +0.000 A 
ATOM      5  C   UNL     1      -2.008  11.528  18.710  0.00  0.00    +0.000 A 
ATOM      6  C   UNL     1      -1.260  10.620  17.957  0.00  0.00    +0.000 A 
ATOM      7  C   UNL     1      -1.961   9.757  17.084  0.00  0.00    +0.000 A 
ATOM      8  C   UNL     1      -3.348   9.844  16.918  0.00  0.00    +0.000 A 
BRANCH   3  10
ATOM      9  C   UNL     1      -6.210  10.606  18.585  0.00  0.00    +0.000 C 
ATOM     10  O   UNL     1      -5.412  11.021  17.478  0.00  0.00    +0.000 OA
ENDBRANCH   3  10
ENDBRANCH   2   6
ENDBRANCH   1   2
BRANCH   1  11
ATOM     11  C   UNL     1       2.292   9.358  18.176  0.00  0.00    +0.000 C 
BRANCH  11  12
ATOM     12  C   UNL     1       2.587   7.858  18.244  0.00  0.00    +0.000 A 
ATOM     13  C   UNL     1       3.545   7.198  17.460  0.00  0.00    +0.000 A 
ATOM     14  C   UNL     1       3.877   5.849  17.708  0.00  0.00    +0.000 A 
ATOM     15  C   UNL     1       3.274   5.161  18.772  0.00  0.00    +0.000 A 
ATOM     16  C   UNL     1       2.324   5.802  19.568  0.00  0.00    +0.000 A 
ATOM     17  C   UNL     1       1.989   7.133  19.301  0.00  0.00    +0.000 A 
BRANCH  15  18
ATOM     18  N   UNL     1       3.664   3.778  19.082  0.00  0.00    +0.000 N 
ATOM     19  O   UNL     1       4.254   3.129  18.210  0.00  0.00    +0.000 OA
ATOM     20  O   UNL     1       3.381   3.338  20.216  0.00  0.00    +0.000 OA
ENDBRANCH  15  18
ENDBRANCH  11  12
ENDBRANCH   1  11
BRANCH   1  21
ATOM     21  C   UNL     1       1.499  10.960  19.900  0.00  0.00    +0.000 C 
BRANCH  21  22
ATOM     22  C   UNL     1       0.665  10.855  21.185  0.00  0.00    +0.000 A 
ATOM     23  C   UNL     1       0.767   9.697  21.991  0.00  0.00    +0.000 A 
ATOM     24  C   UNL     1      -0.113   9.433  23.039  0.00  0.00    +0.000 A 
ATOM     25  C   UNL     1      -1.115  10.340  23.338  0.00  0.00    +0.000 A 
ATOM     26  C   UNL     1      -1.205  11.526  22.607  0.00  0.00    +0.000 A 
ATOM     27  C   UNL     1      -2.289  12.458  22.938  0.00  0.00    +0.000 A 
ATOM     28  O   UNL     1      -3.094  12.251  23.836  0.00  0.00    +0.000 OA
ATOM     29  C   UNL     1      -2.344  13.690  22.161  0.00  0.00    +0.000 A 
ATOM     30  C   UNL     1      -1.371  13.954  21.281  0.00  0.00    +0.000 A 
ATOM     31  C   UNL     1      -1.292  15.328  20.680  0.00  0.00    +0.000 C 
ATOM     32  O   UNL     1      -0.365  13.051  20.916  0.00  0.00    +0.000 OA
ATOM     33  C   UNL     1      -0.305  11.819  21.562  0.00  0.00    +0.000 A 
BRANCH  23  34
ATOM     34  O   UNL     1       1.722   8.733  21.801  0.00  0.00    +0.000 OA
ATOM     35  H   UNL     1       1.742   8.504  20.860  0.00  0.00    +0.000 HD
ENDBRANCH  23  34
ENDBRANCH  21  22
ENDBRANCH   1  21
TORSDOF 9
ENDMDL
MODEL 4
REMARK VINA RESULT:      -7.3      1.022      1.254
REMARK  Name = 
REMARK  11 active torsions:
REMARK  status: ('A' for Active; 'I' for Inactive)
REMARK    1  A    between atoms: C_1  and  O_2
REMARK    2  A    between atoms: O_2  and  C_3
REMARK    3  A    between atoms: C_6  and  C_7
REMARK    4  A    between atoms: C_7  and  N_8
REMARK    5  A    between atoms: N_8  and  C_9
REMARK    6  A    between atoms: N_8  and  C_19
REMARK    7  A    between atoms: C_9  and  C_10
REMARK    8  A    between atoms: C_13  and  N_14
REMARK    9  A    between atoms: C_19  and  C_20
REMARK   10  A    between atoms: C_21  and  O_22
REMARK   11  A    between atoms: C_29  and  C_30
REMARK                            x       y       z     vdW  Elec       q    Type
REMARK                         _______ _______ _______ _____ _____    ______ ____
ROOT
ATOM      1  N   UNL     1       1.099   9.058  18.732  0.00  0.00    +0.000 NA
ENDROOT
BRANCH   1   2
ATOM      2  C   UNL     1       0.406   9.959  17.747  0.00  0.00    +0.000 C 
BRANCH   2   6
ATOM      3  C   UNL     1      -3.803  10.986  17.530  0.00  0.00    +0.000 A 
ATOM      4  C   UNL     1      -3.032  11.487  18.584  0.00  0.00    +0.000 A 
ATOM      5  C   UNL     1      -1.681  11.126  18.727  0.00  0.00    +0.000 A 
ATOM      6  C   UNL     1      -1.091  10.223  17.839  0.00  0.00    +0.000 A 
ATOM      7  C   UNL     1      -1.912   9.659  16.836  0.00  0.00    +0.000 A 
ATOM      8  C   UNL     1      -3.252  10.035  16.681  0.00  0.00    +0.000 A 
BRANCH   3  10
ATOM      9  C   UNL     1      -5.954  11.115  18.482  0.00  0.00    +0.000 C 
ATOM     10  O   UNL     1      -5.075  11.479  17.419  0.00  0.00    +0.000 OA
ENDBRANCH   3  10
ENDBRANCH   2   6
ENDBRANCH   1   2
BRANCH   1  11
ATOM     11  C   UNL     1       2.075   8.225  17.984  0.00  0.00    +0.000 C 
BRANCH  11  12
ATOM     12  C   UNL     1       2.303   6.763  18.373  0.00  0.00    +0.000 A 
ATOM     13  C   UNL     1       1.655   5.669  17.777  0.00  0.00    +0.000 A 
ATOM     14  C   UNL     1       2.051   4.347  18.071  0.00  0.00    +0.000 A 
ATOM     15  C   UNL     1       3.126   4.112  18.942  0.00  0.00    +0.000 A 
ATOM     16  C   UNL     1       3.787   5.186  19.540  0.00  0.00    +0.000 A 
ATOM     17  C   UNL     1       3.374   6.492  19.255  0.00  0.00    +0.000 A 
BRANCH  15  18
ATOM     18  N   UNL     1       3.591   2.742  19.201  0.00  0.00    +0.000 N 
ATOM     19  O   UNL     1       4.014   2.475  20.333  0.00  0.00    +0.000 OA
ATOM     20  O   UNL     1       3.526   1.921  18.262  0.00  0.00    +0.000 OA
ENDBRANCH  15  18
ENDBRANCH  11  12
ENDBRANCH   1  11
BRANCH   1  21
ATOM     21  C   UNL     1       1.772   9.959  19.735  0.00  0.00    +0.000 C 
BRANCH  21  22
ATOM     22  C   UNL     1       0.907  10.194  20.983  0.00  0.00    +0.000 A 
ATOM     23  C   UNL     1       0.411   9.085  21.707  0.00  0.00    +0.000 A 
ATOM     24  C   UNL     1      -0.554   9.213  22.706  0.00  0.00    +0.000 A 
ATOM     25  C   UNL     1      -1.037  10.467  23.037  0.00  0.00    +0.000 A 
ATOM     26  C   UNL     1      -0.521  11.591  22.389  0.00  0.00    +0.000 A 
ATOM     27  C   UNL     1      -1.066  12.904  22.752  0.00  0.00    +0.000 A 
ATOM     28  O   UNL     1      -1.928  13.055  23.607  0.00  0.00    +0.000 OA
ATOM     29  C   UNL     1      -0.495  14.056  22.063  0.00  0.00    +0.000 A 
ATOM     30  C   UNL     1       0.541  13.877  21.235  0.00  0.00    +0.000 A 
ATOM     31  C   UNL     1       1.286  15.081  20.735  0.00  0.00    +0.000 C 
ATOM     32  O   UNL     1       1.032  12.627  20.838  0.00  0.00    +0.000 OA
ATOM     33  C   UNL     1       0.474  11.479  21.396  0.00  0.00    +0.000 A 
BRANCH  23  34
ATOM     34  O   UNL     1       0.818   7.797  21.479  0.00  0.00    +0.000 OA
ATOM     35  H   UNL     1       0.198   7.198  21.920  0.00  0.00    +0.000 HD
ENDBRANCH  23  34
ENDBRANCH  21  22
ENDBRANCH   1  21
TORSDOF 9
ENDMDL
MODEL 5
REMARK VINA RESULT:      -7.3      0.943      1.453
REMARK  Name = 
REMARK  11 active torsions:
REMARK  status: ('A' for Active; 'I' for Inactive)
REMARK    1  A    between atoms: C_1  and  O_2
REMARK    2  A    between atoms: O_2  and  C_3
REMARK    3  A    between atoms: C_6  and  C_7
REMARK    4  A    between atoms: C_7  and  N_8
REMARK    5  A    between atoms: N_8  and  C_9
REMARK    6  A    between atoms: N_8  and  C_19
REMARK    7  A    between atoms: C_9  and  C_10
REMARK    8  A    between atoms: C_13  and  N_14
REMARK    9  A    between atoms: C_19  and  C_20
REMARK   10  A    between atoms: C_21  and  O_22
REMARK   11  A    between atoms: C_29  and  C_30
REMARK                            x       y       z     vdW  Elec       q    Type
REMARK                         _______ _______ _______ _____ _____    ______ ____
ROOT
ATOM      1  N   UNL     1       0.827   9.368  18.897  0.00  0.00    +0.000 NA
ENDROOT
BRANCH   1   2
ATOM      2  C   UNL     1       0.135  10.604  18.390  0.00  0.00    +0.000 C 
BRANCH   2   6
ATOM      3  C   UNL     1      -4.080  10.977  17.437  0.00  0.00    +0.000 A 
ATOM      4  C   UNL     1      -3.567  11.664  18.541  0.00  0.00    +0.000 A 
ATOM      5  C   UNL     1      -2.221  11.519  18.923  0.00  0.00    +0.000 A 
ATOM      6  C   UNL     1      -1.378  10.650  18.227  0.00  0.00    +0.000 A 
ATOM      7  C   UNL     1      -1.939   9.897  17.171  0.00  0.00    +0.000 A 
ATOM      8  C   UNL     1      -3.273  10.057  16.778  0.00  0.00    +0.000 A 
BRANCH   3  10
ATOM      9  C   UNL     1      -5.994  12.278  17.874  0.00  0.00    +0.000 C 
ATOM     10  O   UNL     1      -5.371  11.266  17.085  0.00  0.00    +0.000 OA
ENDBRANCH   3  10
ENDBRANCH   2   6
ENDBRANCH   1   2
BRANCH   1  11
ATOM     11  C   UNL     1       1.694   8.848  17.808  0.00  0.00    +0.000 C 
BRANCH  11  12
ATOM     12  C   UNL     1       2.621   7.657  18.059  0.00  0.00    +0.000 A 
ATOM     13  C   UNL     1       3.799   7.399  17.341  0.00  0.00    +0.000 A 
ATOM     14  C   UNL     1       4.687   6.381  17.751  0.00  0.00    +0.000 A 
ATOM     15  C   UNL     1       4.416   5.636  18.909  0.00  0.00    +0.000 A 
ATOM     16  C   UNL     1       3.254   5.882  19.640  0.00  0.00    +0.000 A 
ATOM     17  C   UNL     1       2.371   6.880  19.214  0.00  0.00    +0.000 A 
BRANCH  15  18
ATOM     18  N   UNL     1       5.368   4.622  19.383  0.00  0.00    +0.000 N 
ATOM     19  O   UNL     1       6.493   4.998  19.734  0.00  0.00    +0.000 OA
ATOM     20  O   UNL     1       4.982   3.434  19.410  0.00  0.00    +0.000 OA
ENDBRANCH  15  18
ENDBRANCH  11  12
ENDBRANCH   1  11
BRANCH   1  21
ATOM     21  C   UNL     1       1.622   9.788  20.105  0.00  0.00    +0.000 C 
BRANCH  21  22
ATOM     22  C   UNL     1       0.795  10.635  21.084  0.00  0.00    +0.000 A 
ATOM     23  C   UNL     1      -0.216  10.019  21.858  0.00  0.00    +0.000 A 
ATOM     24  C   UNL     1      -1.147  10.751  22.594  0.00  0.00    +0.000 A 
ATOM     25  C   UNL     1      -1.080  12.133  22.604  0.00  0.00    +0.000 A 
ATOM     26  C   UNL     1      -0.054  12.773  21.905  0.00  0.00    +0.000 A 
ATOM     27  C   UNL     1      -0.022  14.240  21.922  0.00  0.00    +0.000 A 
ATOM     28  O   UNL     1      -0.833  14.917  22.538  0.00  0.00    +0.000 OA
ATOM     29  C   UNL     1       1.070  14.872  21.191  0.00  0.00    +0.000 A 
ATOM     30  C   UNL     1       2.022  14.108  20.644  0.00  0.00    +0.000 A 
ATOM     31  C   UNL     1       3.268  14.764  20.124  0.00  0.00    +0.000 C 
ATOM     32  O   UNL     1       1.973  12.710  20.572  0.00  0.00    +0.000 OA
ATOM     33  C   UNL     1       0.910  12.045  21.179  0.00  0.00    +0.000 A 
BRANCH  23  34
ATOM     34  O   UNL     1      -0.378   8.661  21.937  0.00  0.00    +0.000 OA
ATOM     35  H   UNL     1      -0.184   8.279  21.069  0.00  0.00    +0.000 HD
ENDBRANCH  23  34
ENDBRANCH  21  22
ENDBRANCH   1  21
TORSDOF 9
ENDMDL
MODEL 6
REMARK VINA RESULT:      -7.3      1.304      1.443
REMARK  Name = 
REMARK  11 active torsions:
REMARK  status: ('A' for Active; 'I' for Inactive)
REMARK    1  A    between atoms: C_1  and  O_2
REMARK    2  A    between atoms: O_2  and  C_3
REMARK    3  A    between atoms: C_6  and  C_7
REMARK    4  A    between atoms: C_7  and  N_8
REMARK    5  A    between atoms: N_8  and  C_9
REMARK    6  A    between atoms: N_8  and  C_19
REMARK    7  A    between atoms: C_9  and  C_10
REMARK    8  A    between atoms: C_13  and  N_14
REMARK    9  A    between atoms: C_19  and  C_20
REMARK   10  A    between atoms: C_21  and  O_22
REMARK   11  A    between atoms: C_29  and  C_30
REMARK                            x       y       z     vdW  Elec       q    Type
REMARK                         _______ _______ _______ _____ _____    ______ ____
ROOT
ATOM      1  N   UNL     1       0.610  10.164  19.533  0.00  0.00    +0.000 NA
ENDROOT
BRANCH   1   2
ATOM      2  C   UNL     1      -0.189  11.024  18.592  0.00  0.00    +0.000 C 
BRANCH   2   6
ATOM      3  C   UNL     1      -4.492  11.041  18.049  0.00  0.00    +0.000 A 
ATOM      4  C   UNL     1      -3.908  11.983  18.902  0.00  0.00    +0.000 A 
ATOM      5  C   UNL     1      -2.526  11.970  19.156  0.00  0.00    +0.000 A 
ATOM      6  C   UNL     1      -1.711  10.987  18.591  0.00  0.00    +0.000 A 
ATOM      7  C   UNL     1      -2.334   9.991  17.805  0.00  0.00    +0.000 A 
ATOM      8  C   UNL     1      -3.707  10.016  17.535  0.00  0.00    +0.000 A 
BRANCH   3  10
ATOM      9  C   UNL     1      -6.701  10.544  18.698  0.00  0.00    +0.000 C 
ATOM     10  O   UNL     1      -5.826  11.202  17.785  0.00  0.00    +0.000 OA
ENDBRANCH   3  10
ENDBRANCH   2   6
ENDBRANCH   1   2
BRANCH   1  11
ATOM     11  C   UNL     1       1.618   9.422  18.733  0.00  0.00    +0.000 C 
BRANCH  11  12
ATOM     12  C   UNL     1       1.989   7.983  19.098  0.00  0.00    +0.000 A 
ATOM     13  C   UNL     1       1.722   7.381  20.338  0.00  0.00    +0.000 A 
ATOM     14  C   UNL     1       1.937   6.000  20.531  0.00  0.00    +0.000 A 
ATOM     15  C   UNL     1       2.391   5.203  19.469  0.00  0.00    +0.000 A 
ATOM     16  C   UNL     1       2.656   5.781  18.227  0.00  0.00    +0.000 A 
ATOM     17  C   UNL     1       2.457   7.155  18.052  0.00  0.00    +0.000 A 
BRANCH  15  18
ATOM     18  N   UNL     1       2.552   3.753  19.640  0.00  0.00    +0.000 N 
ATOM     19  O   UNL     1       2.363   3.025  18.657  0.00  0.00    +0.000 OA
ATOM     20  O   UNL     1       2.879   3.336  20.771  0.00  0.00    +0.000 OA
ENDBRANCH  15  18
ENDBRANCH  11  12
ENDBRANCH   1  11
BRANCH   1  21
ATOM     21  C   UNL     1       1.250  11.098  20.528  0.00  0.00    +0.000 C 
BRANCH  21  22
ATOM     22  C   UNL     1       0.236  11.666  21.533  0.00  0.00    +0.000 A 
ATOM     23  C   UNL     1      -0.588  10.782  22.268  0.00  0.00    +0.000 A 
ATOM     24  C   UNL     1      -1.673  11.223  23.023  0.00  0.00    +0.000 A 
ATOM     25  C   UNL     1      -1.956  12.576  23.094  0.00  0.00    +0.000 A 
ATOM     26  C   UNL     1      -1.124  13.483  22.435  0.00  0.00    +0.000 A 
ATOM     27  C   UNL     1      -1.461  14.909  22.516  0.00  0.00    +0.000 A 
ATOM     28  O   UNL     1      -2.417  15.333  23.151  0.00  0.00    +0.000 OA
ATOM     29  C   UNL     1      -0.563  15.827  21.825  0.00  0.00    +0.000 A 
ATOM     30  C   UNL     1       0.551  15.351  21.256  0.00  0.00    +0.000 A 
ATOM     31  C   UNL     1       1.592  16.322  20.779  0.00  0.00    +0.000 C 
ATOM     32  O   UNL     1       0.854  13.991  21.123  0.00  0.00    +0.000 OA
ATOM     33  C   UNL     1      -0.007  13.054  21.689  0.00  0.00    +0.000 A 
BRANCH  23  34
ATOM     34  O   UNL     1      -0.403   9.425  22.286  0.00  0.00    +0.000 OA
ATOM     35  H   UNL     1      -0.492   9.091  21.381  0.00  0.00    +0.000 HD
ENDBRANCH  23  34
ENDBRANCH  21  22
ENDBRANCH   1  21
TORSDOF 9
ENDMDL
MODEL 7
REMARK VINA RESULT:      -7.2      1.330      1.682
REMARK  Name = 
REMARK  11 active torsions:
REMARK  status: ('A' for Active; 'I' for Inactive)
REMARK    1  A    between atoms: C_1  and  O_2
REMARK    2  A    between atoms: O_2  and  C_3
REMARK    3  A    between atoms: C_6  and  C_7
REMARK    4  A    between atoms: C_7  and  N_8
REMARK    5  A    between atoms: N_8  and  C_9
REMARK    6  A    between atoms: N_8  and  C_19
REMARK    7  A    between atoms: C_9  and  C_10
REMARK    8  A    between atoms: C_13  and  N_14
REMARK    9  A    between atoms: C_19  and  C_20
REMARK   10  A    between atoms: C_21  and  O_22
REMARK   11  A    between atoms: C_29  and  C_30
REMARK                            x       y       z     vdW  Elec       q    Type
REMARK                         _______ _______ _______ _____ _____    ______ ____
ROOT
ATOM      1  N   UNL     1       0.926   9.728  19.298  0.00  0.00    +0.000 NA
ENDROOT
BRANCH   1   2
ATOM      2  C   UNL     1       0.366  10.652  18.251  0.00  0.00    +0.000 C 
BRANCH   2   6
ATOM      3  C   UNL     1      -3.966  10.774  18.050  0.00  0.00    +0.000 A 
ATOM      4  C   UNL     1      -3.277   9.782  17.343  0.00  0.00    +0.000 A 
ATOM      5  C   UNL     1      -1.872   9.747  17.330  0.00  0.00    +0.000 A 
ATOM      6  C   UNL     1      -1.132  10.731  17.990  0.00  0.00    +0.000 A 
ATOM      7  C   UNL     1      -1.846  11.775  18.622  0.00  0.00    +0.000 A 
ATOM      8  C   UNL     1      -3.245  11.798  18.653  0.00  0.00    +0.000 A 
BRANCH   3  10
ATOM      9  C   UNL     1      -6.039  11.829  17.686  0.00  0.00    +0.000 C 
ATOM     10  O   UNL     1      -5.329  10.659  18.087  0.00  0.00    +0.000 OA
ENDBRANCH   3  10
ENDBRANCH   2   6
ENDBRANCH   1   2
BRANCH   1  11
ATOM     11  C   UNL     1       1.926   8.846  18.644  0.00  0.00    +0.000 C 
BRANCH  11  12
ATOM     12  C   UNL     1       2.068   7.384  19.074  0.00  0.00    +0.000 A 
ATOM     13  C   UNL     1       1.790   6.902  20.362  0.00  0.00    +0.000 A 
ATOM     14  C   UNL     1       1.776   5.516  20.627  0.00  0.00    +0.000 A 
ATOM     15  C   UNL     1       2.007   4.599  19.590  0.00  0.00    +0.000 A 
ATOM     16  C   UNL     1       2.278   5.058  18.300  0.00  0.00    +0.000 A 
ATOM     17  C   UNL     1       2.308   6.435  18.053  0.00  0.00    +0.000 A 
BRANCH  15  18
ATOM     18  N   UNL     1       1.926   3.153  19.840  0.00  0.00    +0.000 N 
ATOM     19  O   UNL     1       1.395   2.773  20.891  0.00  0.00    +0.000 OA
ATOM     20  O   UNL     1       2.396   2.389  18.972  0.00  0.00    +0.000 OA
ENDBRANCH  15  18
ENDBRANCH  11  12
ENDBRANCH   1  11
BRANCH   1  21
ATOM     21  C   UNL     1       1.546  10.605  20.355  0.00  0.00    +0.000 C 
BRANCH  21  22
ATOM     22  C   UNL     1       0.516  11.110  21.375  0.00  0.00    +0.000 A 
ATOM     23  C   UNL     1      -0.033  10.208  22.317  0.00  0.00    +0.000 A 
ATOM     24  C   UNL     1      -1.126  10.535  23.119  0.00  0.00    +0.000 A 
ATOM     25  C   UNL     1      -1.693  11.794  23.026  0.00  0.00    +0.000 A 
ATOM     26  C   UNL     1      -1.136  12.732  22.155  0.00  0.00    +0.000 A 
ATOM     27  C   UNL     1      -1.771  14.052  22.068  0.00  0.00    +0.000 A 
ATOM     28  O   UNL     1      -2.744  14.369  22.739  0.00  0.00    +0.000 OA
ATOM     29  C   UNL     1      -1.155  15.009  21.157  0.00  0.00    +0.000 A 
ATOM     30  C   UNL     1      -0.012  14.685  20.541  0.00  0.00    +0.000 A 
ATOM     31  C   UNL     1       0.749  15.758  19.816  0.00  0.00    +0.000 C 
ATOM     32  O   UNL     1       0.572  13.413  20.571  0.00  0.00    +0.000 OA
ATOM     33  C   UNL     1      -0.014  12.425  21.358  0.00  0.00    +0.000 A 
BRANCH  23  34
ATOM     34  O   UNL     1       0.447   8.940  22.509  0.00  0.00    +0.000 OA
ATOM     35  H   UNL     1       1.400   8.995  22.674  0.00  0.00    +0.000 HD
ENDBRANCH  23  34
ENDBRANCH  21  22
ENDBRANCH   1  21
TORSDOF 9
ENDMDL
MODEL 8
REMARK VINA RESULT:      -7.2      1.029      1.385
REMARK  Name = 
REMARK  11 active torsions:
REMARK  status: ('A' for Active; 'I' for Inactive)
REMARK    1  A    between atoms: C_1  and  O_2
REMARK    2  A    between atoms: O_2  and  C_3
REMARK    3  A    between atoms: C_6  and  C_7
REMARK    4  A    between atoms: C_7  and  N_8
REMARK    5  A    between atoms: N_8  and  C_9
REMARK    6  A    between atoms: N_8  and  C_19
REMARK    7  A    between atoms: C_9  and  C_10
REMARK    8  A    between atoms: C_13  and  N_14
REMARK    9  A    between atoms: C_19  and  C_20
REMARK   10  A    between atoms: C_21  and  O_22
REMARK   11  A    between atoms: C_29  and  C_30
REMARK                            x       y       z     vdW  Elec       q    Type
REMARK                         _______ _______ _______ _____ _____    ______ ____
ROOT
ATOM      1  N   UNL     1       0.832   9.900  19.404  0.00  0.00    +0.000 NA
ENDROOT
BRANCH   1   2
ATOM      2  C   UNL     1       0.093  10.786  18.438  0.00  0.00    +0.000 C 
BRANCH   2   6
ATOM      3  C   UNL     1      -4.175  10.918  17.671  0.00  0.00    +0.000 A 
ATOM      4  C   UNL     1      -3.643  11.694  18.706  0.00  0.00    +0.000 A 
ATOM      5  C   UNL     1      -2.276  11.630  19.030  0.00  0.00    +0.000 A 
ATOM      6  C   UNL     1      -1.427  10.756  18.347  0.00  0.00    +0.000 A 
ATOM      7  C   UNL     1      -2.001   9.916  17.367  0.00  0.00    +0.000 A 
ATOM      8  C   UNL     1      -3.358   9.994  17.031  0.00  0.00    +0.000 A 
BRANCH   3  10
ATOM      9  C   UNL     1      -5.853  12.498  17.188  0.00  0.00    +0.000 C 
ATOM     10  O   UNL     1      -5.492  11.130  17.367  0.00  0.00    +0.000 OA
ENDBRANCH   3  10
ENDBRANCH   2   6
ENDBRANCH   1   2
BRANCH   1  11
ATOM     11  C   UNL     1       1.860   9.147  18.642  0.00  0.00    +0.000 C 
BRANCH  11  12
ATOM     12  C   UNL     1       2.016   7.637  18.836  0.00  0.00    +0.000 A 
ATOM     13  C   UNL     1       2.474   6.750  17.849  0.00  0.00    +0.000 A 
ATOM     14  C   UNL     1       2.755   5.403  18.162  0.00  0.00    +0.000 A 
ATOM     15  C   UNL     1       2.613   4.943  19.481  0.00  0.00    +0.000 A 
ATOM     16  C   UNL     1       2.166   5.811  20.478  0.00  0.00    +0.000 A 
ATOM     17  C   UNL     1       1.872   7.140  20.151  0.00  0.00    +0.000 A 
BRANCH  15  18
ATOM     18  N   UNL     1       2.970   3.562  19.832  0.00  0.00    +0.000 N 
ATOM     19  O   UNL     1       2.057   2.783  20.135  0.00  0.00    +0.000 OA
ATOM     20  O   UNL     1       4.178   3.249  19.798  0.00  0.00    +0.000 OA
ENDBRANCH  15  18
ENDBRANCH  11  12
ENDBRANCH   1  11
BRANCH   1  21
ATOM     21  C   UNL     1       1.443  10.811  20.437  0.00  0.00    +0.000 C 
BRANCH  21  22
ATOM     22  C   UNL     1       0.418  11.288  21.477  0.00  0.00    +0.000 A 
ATOM     23  C   UNL     1      -0.199  10.346  22.332  0.00  0.00    +0.000 A 
ATOM     24  C   UNL     1      -1.291  10.667  23.138  0.00  0.00    +0.000 A 
ATOM     25  C   UNL     1      -1.787  11.959  23.137  0.00  0.00    +0.000 A 
ATOM     26  C   UNL     1      -1.161  12.932  22.355  0.00  0.00    +0.000 A 
ATOM     27  C   UNL     1      -1.723  14.287  22.364  0.00  0.00    +0.000 A 
ATOM     28  O   UNL     1      -2.692  14.603  23.040  0.00  0.00    +0.000 OA
ATOM     29  C   UNL     1      -1.036  15.279  21.544  0.00  0.00    +0.000 A 
ATOM     30  C   UNL     1       0.101  14.942  20.925  0.00  0.00    +0.000 A 
ATOM     31  C   UNL     1       0.935  16.026  20.303  0.00  0.00    +0.000 C 
ATOM     32  O   UNL     1       0.616  13.641  20.862  0.00  0.00    +0.000 OA
ATOM     33  C   UNL     1      -0.040  12.628  21.556  0.00  0.00    +0.000 A 
BRANCH  23  34
ATOM     34  O   UNL     1       0.208   9.041  22.430  0.00  0.00    +0.000 OA
ATOM     35  H   UNL     1       0.734   8.945  23.237  0.00  0.00    +0.000 HD
ENDBRANCH  23  34
ENDBRANCH  21  22
ENDBRANCH   1  21
TORSDOF 9
ENDMDL
MODEL 9
REMARK VINA RESULT:      -7.2      2.282      7.176
REMARK  Name = 
REMARK  11 active torsions:
REMARK  status: ('A' for Active; 'I' for Inactive)
REMARK    1  A    between atoms: C_1  and  O_2
REMARK    2  A    between atoms: O_2  and  C_3
REMARK    3  A    between atoms: C_6  and  C_7
REMARK    4  A    between atoms: C_7  and  N_8
REMARK    5  A    between atoms: N_8  and  C_9
REMARK    6  A    between atoms: N_8  and  C_19
REMARK    7  A    between atoms: C_9  and  C_10
REMARK    8  A    between atoms: C_13  and  N_14
REMARK    9  A    between atoms: C_19  and  C_20
REMARK   10  A    between atoms: C_21  and  O_22
REMARK   11  A    between atoms: C_29  and  C_30
REMARK                            x       y       z     vdW  Elec       q    Type
REMARK                         _______ _______ _______ _____ _____    ______ ____
ROOT
ATOM      1  N   UNL     1       1.416  10.036  18.735  0.00  0.00    +0.000 NA
ENDROOT
BRANCH   1   2
ATOM      2  C   UNL     1       2.282   8.917  18.225  0.00  0.00    +0.000 C 
BRANCH   2   6
ATOM      3  C   UNL     1       1.866   4.912  19.837  0.00  0.00    +0.000 A 
ATOM      4  C   UNL     1       1.680   6.010  20.682  0.00  0.00    +0.000 A 
ATOM      5  C   UNL     1       1.869   7.323  20.215  0.00  0.00    +0.000 A 
ATOM      6  C   UNL     1       2.289   7.554  18.903  0.00  0.00    +0.000 A 
ATOM      7  C   UNL     1       2.560   6.428  18.093  0.00  0.00    +0.000 A 
ATOM      8  C   UNL     1       2.352   5.122  18.552  0.00  0.00    +0.000 A 
BRANCH   3  10
ATOM      9  C   UNL     1       2.249   3.349  21.557  0.00  0.00    +0.000 C 
ATOM     10  O   UNL     1       1.556   3.684  20.356  0.00  0.00    +0.000 OA
ENDBRANCH   3  10
ENDBRANCH   2   6
ENDBRANCH   1   2
BRANCH   1  11
ATOM     11  C   UNL     1       2.041  11.322  18.331  0.00  0.00    +0.000 C 
BRANCH  11  12
ATOM     12  C   UNL     1       1.625  12.631  19.005  0.00  0.00    +0.000 A 
ATOM     13  C   UNL     1       0.908  13.659  18.374  0.00  0.00    +0.000 A 
ATOM     14  C   UNL     1       0.412  14.754  19.114  0.00  0.00    +0.000 A 
ATOM     15  C   UNL     1       0.601  14.807  20.504  0.00  0.00    +0.000 A 
ATOM     16  C   UNL     1       1.306  13.790  21.151  0.00  0.00    +0.000 A 
ATOM     17  C   UNL     1       1.809  12.720  20.404  0.00  0.00    +0.000 A 
BRANCH  15  18
ATOM     18  N   UNL     1       0.030  15.906  21.294  0.00  0.00    +0.000 N 
ATOM     19  O   UNL     1       0.804  16.748  21.766  0.00  0.00    +0.000 OA
ATOM     20  O   UNL     1      -1.211  15.931  21.438  0.00  0.00    +0.000 OA
ENDBRANCH  15  18
ENDBRANCH  11  12
ENDBRANCH   1  11
BRANCH   1  21
ATOM     21  C   UNL     1       0.058   9.843  18.112  0.00  0.00    +0.000 C 
BRANCH  21  22
ATOM     22  C   UNL     1      -1.021  10.708  18.781  0.00  0.00    +0.000 A 
ATOM     23  C   UNL     1      -1.911  11.459  17.978  0.00  0.00    +0.000 A 
ATOM     24  C   UNL     1      -2.760  12.430  18.508  0.00  0.00    +0.000 A 
ATOM     25  C   UNL     1      -2.770  12.663  19.872  0.00  0.00    +0.000 A 
ATOM     26  C   UNL     1      -1.953  11.894  20.703  0.00  0.00    +0.000 A 
ATOM     27  C   UNL     1      -1.975  12.178  22.142  0.00  0.00    +0.000 A 
ATOM     28  O   UNL     1      -2.690  13.036  22.641  0.00  0.00    +0.000 OA
ATOM     29  C   UNL     1      -1.117  11.347  22.980  0.00  0.00    +0.000 A 
ATOM     30  C   UNL     1      -0.452  10.326  22.427  0.00  0.00    +0.000 A 
ATOM     31  C   UNL     1       0.216   9.325  23.325  0.00  0.00    +0.000 C 
ATOM     32  O   UNL     1      -0.378  10.080  21.050  0.00  0.00    +0.000 OA
ATOM     33  C   UNL     1      -1.109  10.890  20.185  0.00  0.00    +0.000 A 
BRANCH  23  34
ATOM     34  O   UNL     1      -2.002  11.312  16.619  0.00  0.00    +0.000 OA
ATOM     35  H   UNL     1      -2.929  11.423  16.361  0.00  0.00    +0.000 HD
ENDBRANCH  23  34
ENDBRANCH  21  22
ENDBRANCH   1  21
TORSDOF 9
ENDMDL
