MODEL 1
REMARK VINA RESULT:      -6.4      0.000      0.000
REMARK  Name = 
REMARK  11 active torsions:
REMARK  status: ('A' for Active; 'I' for Inactive)
REMARK    1  A    between atoms: C_1  and  C_2
REMARK    2  A    between atoms: C_2  and  O_3
REMARK    3  A    between atoms: O_3  and  C_4
REMARK    4  A    between atoms: C_4  and  C_5
REMARK    5  A    between atoms: C_4  and  O_18
REMARK    6  A    between atoms: C_5  and  N_6
REMARK    7  A    between atoms: N_6  and  C_7
REMARK    8  A    between atoms: C_7  and  C_8
REMARK    9  A    between atoms: C_11  and  C_12
REMARK   10  A    between atoms: O_18  and  C_19
REMARK   11  A    between atoms: C_19  and  C_20
REMARK                            x       y       z     vdW  Elec       q    Type
REMARK                         _______ _______ _______ _____ _____    ______ ____
ROOT
ATOM      1  C   UNL     1       6.472   5.015  18.999  0.00  0.00    +0.000 C 
ENDROOT
BRANCH   1   2
ATOM      2  C   UNL     1       5.077   4.573  19.372  0.00  0.00    +0.000 A 
ATOM      3  C   UNL     1       4.728   3.216  19.354  0.00  0.00    +0.000 A 
ATOM      4  C   UNL     1       3.424   2.815  19.655  0.00  0.00    +0.000 A 
ATOM      5  C   UNL     1       2.442   3.763  19.978  0.00  0.00    +0.000 A 
ATOM      6  C   UNL     1       2.787   5.122  19.978  0.00  0.00    +0.000 A 
ATOM      7  C   UNL     1       4.091   5.524  19.673  0.00  0.00    +0.000 A 
BRANCH   5   8
ATOM      8  C   UNL     1       1.032   3.343  20.312  0.00  0.00    +0.000 C 
ATOM      9  F   UNL     1       0.493   2.470  19.416  0.00  0.00    +0.000 F 
ATOM     10  F   UNL     1       0.951   2.723  21.525  0.00  0.00    +0.000 F 
ATOM     11  F   UNL     1       0.170   4.394  20.374  0.00  0.00    +0.000 F 
ENDBRANCH   5   8
ENDBRANCH   1   2
BRANCH   1  12
ATOM     12  N   UNL     1       7.042   4.082  18.043  0.00  0.00    +0.000 NA
ATOM     13  H   UNL     1       7.927   3.704  18.388  0.00  0.00    +0.000 HD
BRANCH  12  14
ATOM     14  C   UNL     1       7.292   4.690  16.727  0.00  0.00    +0.000 C 
BRANCH  14  15
ATOM     15  C   UNL     1       6.265   4.197  15.663  0.00  0.00    +0.000 C 
BRANCH  15  16
ATOM     16  O   UNL     1       6.720   4.369  14.317  0.00  0.00    +0.000 OA
BRANCH  16  18
ATOM     17  C   UNL     1       6.723   3.544  12.075  0.00  0.00    +0.000 C 
ATOM     18  C   UNL     1       5.912   3.718  13.344  0.00  0.00    +0.000 C 
ENDBRANCH  16  18
ENDBRANCH  15  16
BRANCH  15  19
ATOM     19  O   UNL     1       5.050   4.939  15.877  0.00  0.00    +0.000 OA
BRANCH  19  20
ATOM     20  C   UNL     1       5.248   6.343  15.756  0.00  0.00    +0.000 C 
ATOM     21  C   UNL     1       4.258   7.051  16.665  0.00  0.00    +0.000 C 
ENDBRANCH  19  20
ENDBRANCH  15  19
ENDBRANCH  14  15
ENDBRANCH  12  14
ENDBRANCH   1  12
TORSDOF 9
ENDMDL
MODEL 2
REMARK VINA RESULT:      -6.2      1.592      3.216
REMARK  Name = 
REMARK  11 active torsions:
REMARK  status: ('A' for Active; 'I' for Inactive)
REMARK    1  A    between atoms: C_1  and  C_2
REMARK    2  A    between atoms: C_2  and  O_3
REMARK    3  A    between atoms: O_3  and  C_4
REMARK    4  A    between atoms: C_4  and  C_5
REMARK    5  A    between atoms: C_4  and  O_18
REMARK    6  A    between atoms: C_5  and  N_6
REMARK    7  A    between atoms: N_6  and  C_7
REMARK    8  A    between atoms: C_7  and  C_8
REMARK    9  A    between atoms: C_11  and  C_12
REMARK   10  A    between atoms: O_18  and  C_19
REMARK   11  A    between atoms: C_19  and  C_20
REMARK                            x       y       z     vdW  Elec       q    Type
REMARK                         _______ _______ _______ _____ _____    ______ ____
ROOT
ATOM      1  C   UNL     1       4.539   6.937  17.573  0.00  0.00    +0.000 C 
ENDROOT
BRANCH   1   2
ATOM      2  C   UNL     1       3.673   5.911  18.266  0.00  0.00    +0.000 A 
ATOM      3  C   UNL     1       4.055   5.370  19.500  0.00  0.00    +0.000 A 
ATOM      4  C   UNL     1       3.275   4.387  20.116  0.00  0.00    +0.000 A 
ATOM      5  C   UNL     1       2.100   3.924  19.507  0.00  0.00    +0.000 A 
ATOM      6  C   UNL     1       1.728   4.453  18.263  0.00  0.00    +0.000 A 
ATOM      7  C   UNL     1       2.510   5.433  17.645  0.00  0.00    +0.000 A 
BRANCH   5   8
ATOM      8  C   UNL     1       1.244   2.869  20.165  0.00  0.00    +0.000 C 
ATOM      9  F   UNL     1       1.010   3.099  21.487  0.00  0.00    +0.000 F 
ATOM     10  F   UNL     1       0.014   2.765  19.584  0.00  0.00    +0.000 F 
ATOM     11  F   UNL     1       1.794   1.626  20.094  0.00  0.00    +0.000 F 
ENDBRANCH   5   8
ENDBRANCH   1   2
BRANCH   1  12
ATOM     12  N   UNL     1       4.674   6.596  16.168  0.00  0.00    +0.000 NA
ATOM     13  H   UNL     1       4.041   5.834  15.917  0.00  0.00    +0.000 HD
BRANCH  12  14
ATOM     14  C   UNL     1       6.040   6.188  15.806  0.00  0.00    +0.000 C 
BRANCH  14  15
ATOM     15  C   UNL     1       6.376   4.766  16.349  0.00  0.00    +0.000 C 
BRANCH  15  16
ATOM     16  O   UNL     1       7.689   4.672  16.910  0.00  0.00    +0.000 OA
BRANCH  16  18
ATOM     17  C   UNL     1       7.879   6.071  18.837  0.00  0.00    +0.000 C 
ATOM     18  C   UNL     1       7.712   4.651  18.332  0.00  0.00    +0.000 C 
ENDBRANCH  16  18
ENDBRANCH  15  16
BRANCH  15  19
ATOM     19  O   UNL     1       6.241   3.853  15.244  0.00  0.00    +0.000 OA
BRANCH  19  20
ATOM     20  C   UNL     1       6.644   4.436  14.010  0.00  0.00    +0.000 C 
ATOM     21  C   UNL     1       6.141   3.561  12.875  0.00  0.00    +0.000 C 
ENDBRANCH  19  20
ENDBRANCH  15  19
ENDBRANCH  14  15
ENDBRANCH  12  14
ENDBRANCH   1  12
TORSDOF 9
ENDMDL
MODEL 3
REMARK VINA RESULT:      -6.2      1.533      3.070
REMARK  Name = 
REMARK  11 active torsions:
REMARK  status: ('A' for Active; 'I' for Inactive)
REMARK    1  A    between atoms: C_1  and  C_2
REMARK    2  A    between atoms: C_2  and  O_3
REMARK    3  A    between atoms: O_3  and  C_4
REMARK    4  A    between atoms: C_4  and  C_5
REMARK    5  A    between atoms: C_4  and  O_18
REMARK    6  A    between atoms: C_5  and  N_6
REMARK    7  A    between atoms: N_6  and  C_7
REMARK    8  A    between atoms: C_7  and  C_8
REMARK    9  A    between atoms: C_11  and  C_12
REMARK   10  A    between atoms: O_18  and  C_19
REMARK   11  A    between atoms: C_19  and  C_20
REMARK                            x       y       z     vdW  Elec       q    Type
REMARK                         _______ _______ _______ _____ _____    ______ ____
ROOT
ATOM      1  C   UNL     1       4.466   6.873  17.508  0.00  0.00    +0.000 C 
ENDROOT
BRANCH   1   2
ATOM      2  C   UNL     1       3.615   5.847  18.218  0.00  0.00    +0.000 A 
ATOM      3  C   UNL     1       4.053   5.258  19.412  0.00  0.00    +0.000 A 
ATOM      4  C   UNL     1       3.285   4.276  20.043  0.00  0.00    +0.000 A 
ATOM      5  C   UNL     1       2.065   3.861  19.489  0.00  0.00    +0.000 A 
ATOM      6  C   UNL     1       1.635   4.437  18.285  0.00  0.00    +0.000 A 
ATOM      7  C   UNL     1       2.406   5.417  17.653  0.00  0.00    +0.000 A 
BRANCH   5   8
ATOM      8  C   UNL     1       1.221   2.806  20.164  0.00  0.00    +0.000 C 
ATOM      9  F   UNL     1       1.781   1.565  20.146  0.00  0.00    +0.000 F 
ATOM     10  F   UNL     1       0.992   3.090  21.478  0.00  0.00    +0.000 F 
ATOM     11  F   UNL     1      -0.007   2.671  19.594  0.00  0.00    +0.000 F 
ENDBRANCH   5   8
ENDBRANCH   1   2
BRANCH   1  12
ATOM     12  N   UNL     1       4.872   6.359  16.211  0.00  0.00    +0.000 NA
ATOM     13  H   UNL     1       4.129   6.488  15.522  0.00  0.00    +0.000 HD
BRANCH  12  14
ATOM     14  C   UNL     1       5.219   4.931  16.243  0.00  0.00    +0.000 C 
BRANCH  14  15
ATOM     15  C   UNL     1       6.650   4.675  15.678  0.00  0.00    +0.000 C 
BRANCH  15  16
ATOM     16  O   UNL     1       7.689   5.179  16.522  0.00  0.00    +0.000 OA
BRANCH  16  18
ATOM     17  C   UNL     1       7.743   5.793  18.830  0.00  0.00    +0.000 C 
ATOM     18  C   UNL     1       7.675   4.646  17.840  0.00  0.00    +0.000 C 
ENDBRANCH  16  18
ENDBRANCH  15  16
BRANCH  15  19
ATOM     19  O   UNL     1       6.708   5.306  14.385  0.00  0.00    +0.000 OA
BRANCH  19  20
ATOM     20  C   UNL     1       7.145   4.412  13.368  0.00  0.00    +0.000 C 
ATOM     21  C   UNL     1       5.941   3.648  12.846  0.00  0.00    +0.000 C 
ENDBRANCH  19  20
ENDBRANCH  15  19
ENDBRANCH  14  15
ENDBRANCH  12  14
ENDBRANCH   1  12
TORSDOF 9
ENDMDL
MODEL 4
REMARK VINA RESULT:      -6.1      2.008      3.141
REMARK  Name = 
REMARK  11 active torsions:
REMARK  status: ('A' for Active; 'I' for Inactive)
REMARK    1  A    between atoms: C_1  and  C_2
REMARK    2  A    between atoms: C_2  and  O_3
REMARK    3  A    between atoms: O_3  and  C_4
REMARK    4  A    between atoms: C_4  and  C_5
REMARK    5  A    between atoms: C_4  and  O_18
REMARK    6  A    between atoms: C_5  and  N_6
REMARK    7  A    between atoms: N_6  and  C_7
REMARK    8  A    between atoms: C_7  and  C_8
REMARK    9  A    between atoms: C_11  and  C_12
REMARK   10  A    between atoms: O_18  and  C_19
REMARK   11  A    between atoms: C_19  and  C_20
REMARK                            x       y       z     vdW  Elec       q    Type
REMARK                         _______ _______ _______ _____ _____    ______ ____
ROOT
ATOM      1  C   UNL     1       4.838   3.372  15.979  0.00  0.00    +0.000 C 
ENDROOT
BRANCH   1   2
ATOM      2  C   UNL     1       4.001   3.462  17.233  0.00  0.00    +0.000 A 
ATOM      3  C   UNL     1       4.607   3.505  18.496  0.00  0.00    +0.000 A 
ATOM      4  C   UNL     1       3.829   3.542  19.656  0.00  0.00    +0.000 A 
ATOM      5  C   UNL     1       2.429   3.534  19.575  0.00  0.00    +0.000 A 
ATOM      6  C   UNL     1       1.822   3.473  18.313  0.00  0.00    +0.000 A 
ATOM      7  C   UNL     1       2.601   3.432  17.152  0.00  0.00    +0.000 A 
BRANCH   5   8
ATOM      8  C   UNL     1       1.576   3.581  20.820  0.00  0.00    +0.000 C 
ATOM      9  F   UNL     1       1.230   2.352  21.293  0.00  0.00    +0.000 F 
ATOM     10  F   UNL     1       2.204   4.212  21.854  0.00  0.00    +0.000 F 
ATOM     11  F   UNL     1       0.407   4.252  20.632  0.00  0.00    +0.000 F 
ENDBRANCH   5   8
ENDBRANCH   1   2
BRANCH   1  12
ATOM     12  N   UNL     1       5.994   4.244  16.098  0.00  0.00    +0.000 NA
ATOM     13  H   UNL     1       6.318   4.286  17.066  0.00  0.00    +0.000 HD
BRANCH  12  14
ATOM     14  C   UNL     1       5.723   5.618  15.650  0.00  0.00    +0.000 C 
BRANCH  14  15
ATOM     15  C   UNL     1       6.271   6.670  16.662  0.00  0.00    +0.000 C 
BRANCH  15  16
ATOM     16  O   UNL     1       7.546   6.317  17.207  0.00  0.00    +0.000 OA
BRANCH  16  18
ATOM     17  C   UNL     1       8.130   8.526  17.903  0.00  0.00    +0.000 C 
ATOM     18  C   UNL     1       7.926   7.089  18.340  0.00  0.00    +0.000 C 
ENDBRANCH  16  18
ENDBRANCH  15  16
BRANCH  15  19
ATOM     19  O   UNL     1       5.295   6.788  17.714  0.00  0.00    +0.000 OA
BRANCH  19  20
ATOM     20  C   UNL     1       3.982   7.003  17.209  0.00  0.00    +0.000 C 
ATOM     21  C   UNL     1       3.015   7.041  18.380  0.00  0.00    +0.000 C 
ENDBRANCH  19  20
ENDBRANCH  15  19
ENDBRANCH  14  15
ENDBRANCH  12  14
ENDBRANCH   1  12
TORSDOF 9
ENDMDL
MODEL 5
REMARK VINA RESULT:      -6.1      4.186      6.504
REMARK  Name = 
REMARK  11 active torsions:
REMARK  status: ('A' for Active; 'I' for Inactive)
REMARK    1  A    between atoms: C_1  and  C_2
REMARK    2  A    between atoms: C_2  and  O_3
REMARK    3  A    between atoms: O_3  and  C_4
REMARK    4  A    between atoms: C_4  and  C_5
REMARK    5  A    between atoms: C_4  and  O_18
REMARK    6  A    between atoms: C_5  and  N_6
REMARK    7  A    between atoms: N_6  and  C_7
REMARK    8  A    between atoms: C_7  and  C_8
REMARK    9  A    between atoms: C_11  and  C_12
REMARK   10  A    between atoms: O_18  and  C_19
REMARK   11  A    between atoms: C_19  and  C_20
REMARK                            x       y       z     vdW  Elec       q    Type
REMARK                         _______ _______ _______ _____ _____    ______ ____
ROOT
ATOM      1  C   UNL     1       6.555   4.984  17.918  0.00  0.00    +0.000 C 
ENDROOT
BRANCH   1   2
ATOM      2  C   UNL     1       6.469   4.593  16.462  0.00  0.00    +0.000 A 
ATOM      3  C   UNL     1       7.334   5.161  15.517  0.00  0.00    +0.000 A 
ATOM      4  C   UNL     1       7.221   4.832  14.164  0.00  0.00    +0.000 A 
ATOM      5  C   UNL     1       6.239   3.931  13.729  0.00  0.00    +0.000 A 
ATOM      6  C   UNL     1       5.361   3.377  14.672  0.00  0.00    +0.000 A 
ATOM      7  C   UNL     1       5.472   3.709  16.025  0.00  0.00    +0.000 A 
BRANCH   5   8
ATOM      8  C   UNL     1       6.111   3.561  12.271  0.00  0.00    +0.000 C 
ATOM      9  F   UNL     1       4.894   3.858  11.736  0.00  0.00    +0.000 F 
ATOM     10  F   UNL     1       7.024   4.208  11.491  0.00  0.00    +0.000 F 
ATOM     11  F   UNL     1       6.304   2.233  12.046  0.00  0.00    +0.000 F 
ENDBRANCH   5   8
ENDBRANCH   1   2
BRANCH   1  12
ATOM     12  N   UNL     1       5.763   4.068  18.720  0.00  0.00    +0.000 NA
ATOM     13  H   UNL     1       5.281   3.390  18.125  0.00  0.00    +0.000 HD
BRANCH  12  14
ATOM     14  C   UNL     1       4.751   4.751  19.540  0.00  0.00    +0.000 C 
BRANCH  14  15
ATOM     15  C   UNL     1       3.305   4.385  19.088  0.00  0.00    +0.000 C 
BRANCH  15  16
ATOM     16  O   UNL     1       3.156   3.007  18.732  0.00  0.00    +0.000 OA
BRANCH  16  18
ATOM     17  C   UNL     1       0.901   2.831  19.500  0.00  0.00    +0.000 C 
ATOM     18  C   UNL     1       1.840   2.653  18.324  0.00  0.00    +0.000 C 
ENDBRANCH  16  18
ENDBRANCH  15  16
BRANCH  15  19
ATOM     19  O   UNL     1       2.991   5.227  17.964  0.00  0.00    +0.000 OA
BRANCH  19  20
ATOM     20  C   UNL     1       2.490   6.497  18.364  0.00  0.00    +0.000 C 
ATOM     21  C   UNL     1       3.330   7.578  17.704  0.00  0.00    +0.000 C 
ENDBRANCH  19  20
ENDBRANCH  15  19
ENDBRANCH  14  15
ENDBRANCH  12  14
ENDBRANCH   1  12
TORSDOF 9
ENDMDL
MODEL 6
REMARK VINA RESULT:      -6.1      1.519      2.408
REMARK  Name = 
REMARK  11 active torsions:
REMARK  status: ('A' for Active; 'I' for Inactive)
REMARK    1  A    between atoms: C_1  and  C_2
REMARK    2  A    between atoms: C_2  and  O_3
REMARK    3  A    between atoms: O_3  and  C_4
REMARK    4  A    between atoms: C_4  and  C_5
REMARK    5  A    between atoms: C_4  and  O_18
REMARK    6  A    between atoms: C_5  and  N_6
REMARK    7  A    between atoms: N_6  and  C_7
REMARK    8  A    between atoms: C_7  and  C_8
REMARK    9  A    between atoms: C_11  and  C_12
REMARK   10  A    between atoms: O_18  and  C_19
REMARK   11  A    between atoms: C_19  and  C_20
REMARK                            x       y       z     vdW  Elec       q    Type
REMARK                         _______ _______ _______ _____ _____    ______ ____
ROOT
ATOM      1  C   UNL     1       4.216   7.103  17.451  0.00  0.00    +0.000 C 
ENDROOT
BRANCH   1   2
ATOM      2  C   UNL     1       3.592   5.946  18.194  0.00  0.00    +0.000 A 
ATOM      3  C   UNL     1       2.345   5.437  17.805  0.00  0.00    +0.000 A 
ATOM      4  C   UNL     1       1.749   4.396  18.523  0.00  0.00    +0.000 A 
ATOM      5  C   UNL     1       2.387   3.846  19.644  0.00  0.00    +0.000 A 
ATOM      6  C   UNL     1       3.626   4.368  20.043  0.00  0.00    +0.000 A 
ATOM      7  C   UNL     1       4.220   5.412  19.327  0.00  0.00    +0.000 A 
BRANCH   5   8
ATOM      8  C   UNL     1       1.758   2.717  20.424  0.00  0.00    +0.000 C 
ATOM      9  F   UNL     1       0.502   2.996  20.873  0.00  0.00    +0.000 F 
ATOM     10  F   UNL     1       1.640   1.579  19.681  0.00  0.00    +0.000 F 
ATOM     11  F   UNL     1       2.480   2.371  21.524  0.00  0.00    +0.000 F 
ENDBRANCH   5   8
ENDBRANCH   1   2
BRANCH   1  12
ATOM     12  N   UNL     1       4.750   6.640  16.181  0.00  0.00    +0.000 NA
ATOM     13  H   UNL     1       4.025   6.643  15.461  0.00  0.00    +0.000 HD
BRANCH  12  14
ATOM     14  C   UNL     1       5.310   5.283  16.256  0.00  0.00    +0.000 C 
BRANCH  14  15
ATOM     15  C   UNL     1       6.603   5.148  15.396  0.00  0.00    +0.000 C 
BRANCH  15  16
ATOM     16  O   UNL     1       6.659   3.929  14.648  0.00  0.00    +0.000 OA
BRANCH  16  18
ATOM     17  C   UNL     1       6.439   3.536  12.302  0.00  0.00    +0.000 C 
ATOM     18  C   UNL     1       5.709   3.853  13.593  0.00  0.00    +0.000 C 
ENDBRANCH  16  18
ENDBRANCH  15  16
BRANCH  15  19
ATOM     19  O   UNL     1       7.719   5.227  16.303  0.00  0.00    +0.000 OA
BRANCH  19  20
ATOM     20  C   UNL     1       7.420   4.667  17.576  0.00  0.00    +0.000 C 
ATOM     21  C   UNL     1       7.824   5.664  18.649  0.00  0.00    +0.000 C 
ENDBRANCH  19  20
ENDBRANCH  15  19
ENDBRANCH  14  15
ENDBRANCH  12  14
ENDBRANCH   1  12
TORSDOF 9
ENDMDL
MODEL 7
REMARK VINA RESULT:      -6.1      2.048      3.150
REMARK  Name = 
REMARK  11 active torsions:
REMARK  status: ('A' for Active; 'I' for Inactive)
REMARK    1  A    between atoms: C_1  and  C_2
REMARK    2  A    between atoms: C_2  and  O_3
REMARK    3  A    between atoms: O_3  and  C_4
REMARK    4  A    between atoms: C_4  and  C_5
REMARK    5  A    between atoms: C_4  and  O_18
REMARK    6  A    between atoms: C_5  and  N_6
REMARK    7  A    between atoms: N_6  and  C_7
REMARK    8  A    between atoms: C_7  and  C_8
REMARK    9  A    between atoms: C_11  and  C_12
REMARK   10  A    between atoms: O_18  and  C_19
REMARK   11  A    between atoms: C_19  and  C_20
REMARK                            x       y       z     vdW  Elec       q    Type
REMARK                         _______ _______ _______ _____ _____    ______ ____
ROOT
ATOM      1  C   UNL     1       5.104   3.458  16.150  0.00  0.00    +0.000 C 
ENDROOT
BRANCH   1   2
ATOM      2  C   UNL     1       4.181   3.506  17.345  0.00  0.00    +0.000 A 
ATOM      3  C   UNL     1       2.792   3.560  17.172  0.00  0.00    +0.000 A 
ATOM      4  C   UNL     1       1.943   3.651  18.279  0.00  0.00    +0.000 A 
ATOM      5  C   UNL     1       2.467   3.692  19.579  0.00  0.00    +0.000 A 
ATOM      6  C   UNL     1       3.859   3.655  19.750  0.00  0.00    +0.000 A 
ATOM      7  C   UNL     1       4.708   3.569  18.642  0.00  0.00    +0.000 A 
BRANCH   5   8
ATOM      8  C   UNL     1       1.562   3.782  20.783  0.00  0.00    +0.000 C 
ATOM      9  F   UNL     1       0.918   2.617  21.072  0.00  0.00    +0.000 F 
ATOM     10  F   UNL     1       2.241   4.120  21.917  0.00  0.00    +0.000 F 
ATOM     11  F   UNL     1       0.588   4.721  20.640  0.00  0.00    +0.000 F 
ENDBRANCH   5   8
ENDBRANCH   1   2
BRANCH   1  12
ATOM     12  N   UNL     1       5.087   4.740  15.466  0.00  0.00    +0.000 NA
ATOM     13  H   UNL     1       5.118   4.610  14.452  0.00  0.00    +0.000 HD
BRANCH  12  14
ATOM     14  C   UNL     1       6.212   5.607  15.847  0.00  0.00    +0.000 C 
BRANCH  14  15
ATOM     15  C   UNL     1       5.725   6.876  16.609  0.00  0.00    +0.000 C 
BRANCH  15  16
ATOM     16  O   UNL     1       6.302   7.008  17.912  0.00  0.00    +0.000 OA
BRANCH  16  18
ATOM     17  C   UNL     1       7.711   5.676  19.308  0.00  0.00    +0.000 C 
ATOM     18  C   UNL     1       7.615   6.474  18.022  0.00  0.00    +0.000 C 
ENDBRANCH  16  18
ENDBRANCH  15  16
BRANCH  15  19
ATOM     19  O   UNL     1       4.292   6.783  16.707  0.00  0.00    +0.000 OA
BRANCH  19  20
ATOM     20  C   UNL     1       3.822   7.057  18.022  0.00  0.00    +0.000 C 
ATOM     21  C   UNL     1       2.394   7.568  17.927  0.00  0.00    +0.000 C 
ENDBRANCH  19  20
ENDBRANCH  15  19
ENDBRANCH  14  15
ENDBRANCH  12  14
ENDBRANCH   1  12
TORSDOF 9
ENDMDL
MODEL 8
REMARK VINA RESULT:      -6.0      4.279      6.701
REMARK  Name = 
REMARK  11 active torsions:
REMARK  status: ('A' for Active; 'I' for Inactive)
REMARK    1  A    between atoms: C_1  and  C_2
REMARK    2  A    between atoms: C_2  and  O_3
REMARK    3  A    between atoms: O_3  and  C_4
REMARK    4  A    between atoms: C_4  and  C_5
REMARK    5  A    between atoms: C_4  and  O_18
REMARK    6  A    between atoms: C_5  and  N_6
REMARK    7  A    between atoms: N_6  and  C_7
REMARK    8  A    between atoms: C_7  and  C_8
REMARK    9  A    between atoms: C_11  and  C_12
REMARK   10  A    between atoms: O_18  and  C_19
REMARK   11  A    between atoms: C_19  and  C_20
REMARK                            x       y       z     vdW  Elec       q    Type
REMARK                         _______ _______ _______ _____ _____    ______ ____
ROOT
ATOM      1  C   UNL     1       6.748   5.041  17.865  0.00  0.00    +0.000 C 
ENDROOT
BRANCH   1   2
ATOM      2  C   UNL     1       6.613   4.643  16.415  0.00  0.00    +0.000 A 
ATOM      3  C   UNL     1       7.508   5.132  15.454  0.00  0.00    +0.000 A 
ATOM      4  C   UNL     1       7.352   4.798  14.105  0.00  0.00    +0.000 A 
ATOM      5  C   UNL     1       6.297   3.972  13.692  0.00  0.00    +0.000 A 
ATOM      6  C   UNL     1       5.392   3.498  14.652  0.00  0.00    +0.000 A 
ATOM      7  C   UNL     1       5.545   3.835  16.000  0.00  0.00    +0.000 A 
BRANCH   5   8
ATOM      8  C   UNL     1       6.122   3.598  12.240  0.00  0.00    +0.000 C 
ATOM      9  F   UNL     1       6.813   4.399  11.382  0.00  0.00    +0.000 F 
ATOM     10  F   UNL     1       6.543   2.327  11.979  0.00  0.00    +0.000 F 
ATOM     11  F   UNL     1       4.824   3.650  11.836  0.00  0.00    +0.000 F 
ENDBRANCH   5   8
ENDBRANCH   1   2
BRANCH   1  12
ATOM     12  N   UNL     1       5.877   4.216  18.683  0.00  0.00    +0.000 NA
ATOM     13  H   UNL     1       5.415   3.502  18.115  0.00  0.00    +0.000 HD
BRANCH  12  14
ATOM     14  C   UNL     1       4.834   4.991  19.373  0.00  0.00    +0.000 C 
BRANCH  14  15
ATOM     15  C   UNL     1       3.478   4.223  19.408  0.00  0.00    +0.000 C 
BRANCH  15  16
ATOM     16  O   UNL     1       2.449   4.858  18.643  0.00  0.00    +0.000 OA
BRANCH  16  18
ATOM     17  C   UNL     1       2.560   2.677  17.676  0.00  0.00    +0.000 C 
ATOM     18  C   UNL     1       1.908   4.044  17.610  0.00  0.00    +0.000 C 
ENDBRANCH  16  18
ENDBRANCH  15  16
BRANCH  15  19
ATOM     19  O   UNL     1       3.085   4.131  20.790  0.00  0.00    +0.000 OA
BRANCH  19  20
ATOM     20  C   UNL     1       1.671   4.082  20.947  0.00  0.00    +0.000 C 
ATOM     21  C   UNL     1       1.278   2.668  21.341  0.00  0.00    +0.000 C 
ENDBRANCH  19  20
ENDBRANCH  15  19
ENDBRANCH  14  15
ENDBRANCH  12  14
ENDBRANCH   1  12
TORSDOF 9
ENDMDL
MODEL 9
REMARK VINA RESULT:      -6.0      4.396      7.019
REMARK  Name = 
REMARK  11 active torsions:
REMARK  status: ('A' for Active; 'I' for Inactive)
REMARK    1  A    between atoms: C_1  and  C_2
REMARK    2  A    between atoms: C_2  and  O_3
REMARK    3  A    between atoms: O_3  and  C_4
REMARK    4  A    between atoms: C_4  and  C_5
REMARK    5  A    between atoms: C_4  and  O_18
REMARK    6  A    between atoms: C_5  and  N_6
REMARK    7  A    between atoms: N_6  and  C_7
REMARK    8  A    between atoms: C_7  and  C_8
REMARK    9  A    between atoms: C_11  and  C_12
REMARK   10  A    between atoms: O_18  and  C_19
REMARK   11  A    between atoms: C_19  and  C_20
REMARK                            x       y       z     vdW  Elec       q    Type
REMARK                         _______ _______ _______ _____ _____    ______ ____
ROOT
ATOM      1  C   UNL     1       5.870   5.115  18.046  0.00  0.00    +0.000 C 
ENDROOT
BRANCH   1   2
ATOM      2  C   UNL     1       6.025   4.727  16.594  0.00  0.00    +0.000 A 
ATOM      3  C   UNL     1       7.098   5.213  15.836  0.00  0.00    +0.000 A 
ATOM      4  C   UNL     1       7.214   4.890  14.481  0.00  0.00    +0.000 A 
ATOM      5  C   UNL     1       6.257   4.075  13.859  0.00  0.00    +0.000 A 
ATOM      6  C   UNL     1       5.173   3.604  14.614  0.00  0.00    +0.000 A 
ATOM      7  C   UNL     1       5.056   3.931  15.968  0.00  0.00    +0.000 A 
BRANCH   5   8
ATOM      8  C   UNL     1       6.373   3.712  12.398  0.00  0.00    +0.000 C 
ATOM      9  F   UNL     1       5.184   3.728  11.734  0.00  0.00    +0.000 F 
ATOM     10  F   UNL     1       7.190   4.566  11.716  0.00  0.00    +0.000 F 
ATOM     11  F   UNL     1       6.891   2.469  12.205  0.00  0.00    +0.000 F 
ENDBRANCH   5   8
ENDBRANCH   1   2
BRANCH   1  12
ATOM     12  N   UNL     1       4.664   5.908  18.215  0.00  0.00    +0.000 NA
ATOM     13  H   UNL     1       4.893   6.899  18.317  0.00  0.00    +0.000 HD
BRANCH  12  14
ATOM     14  C   UNL     1       3.872   5.503  19.386  0.00  0.00    +0.000 C 
BRANCH  14  15
ATOM     15  C   UNL     1       2.351   5.428  19.051  0.00  0.00    +0.000 C 
BRANCH  15  16
ATOM     16  O   UNL     1       1.579   4.789  20.072  0.00  0.00    +0.000 OA
BRANCH  16  18
ATOM     17  C   UNL     1       1.822   3.036  21.677  0.00  0.00    +0.000 C 
ATOM     18  C   UNL     1       2.338   4.381  21.203  0.00  0.00    +0.000 C 
ENDBRANCH  16  18
ENDBRANCH  15  16
BRANCH  15  19
ATOM     19  O   UNL     1       2.230   4.707  17.811  0.00  0.00    +0.000 OA
BRANCH  19  20
ATOM     20  C   UNL     1       1.457   3.520  17.950  0.00  0.00    +0.000 C 
ATOM     21  C   UNL     1       2.370   2.322  17.750  0.00  0.00    +0.000 C 
ENDBRANCH  19  20
ENDBRANCH  15  19
ENDBRANCH  14  15
ENDBRANCH  12  14
ENDBRANCH   1  12
TORSDOF 9
ENDMDL
