MODEL 1
REMARK VINA RESULT:      -7.1      0.000      0.000
REMARK  Name = 
REMARK  3 active torsions:
REMARK  status: ('A' for Active; 'I' for Inactive)
REMARK    1  A    between atoms: C_2  and  C_3
REMARK    2  A    between atoms: C_3  and  N_4
REMARK    3  A    between atoms: N_4  and  C_5
REMARK                            x       y       z     vdW  Elec       q    Type
REMARK                         _______ _______ _______ _____ _____    ______ ____
ROOT
ATOM      1  C   UNL     1       5.636   4.675  17.010  0.00  0.00    +0.000 C 
ATOM      2  C   UNL     1       6.527   4.838  18.288  0.00  0.00    +0.000 C 
ATOM      3  O   UNL     1       7.639   5.336  18.389  0.00  0.00    +0.000 OA
ATOM      4  N   UNL     1       5.822   4.304  19.370  0.00  0.00    +0.000 N 
ATOM      5  C   UNL     1       4.563   3.874  18.991  0.00  0.00    +0.000 A 
ATOM      6  C   UNL     1       3.571   3.376  19.810  0.00  0.00    +0.000 A 
ATOM      7  C   UNL     1       2.341   3.073  19.220  0.00  0.00    +0.000 A 
ATOM      8  C   UNL     1       2.133   3.272  17.844  0.00  0.00    +0.000 A 
ATOM      9  C   UNL     1       3.157   3.766  17.031  0.00  0.00    +0.000 A 
ATOM     10  C   UNL     1       4.381   4.059  17.623  0.00  0.00    +0.000 A 
ATOM     11  H   UNL     1       6.194   4.295  20.309  0.00  0.00    +0.000 HD
ENDROOT
BRANCH   1  13
ATOM     12  N   UNL     1       4.912   7.126  15.918  0.00  0.00    +0.000 NA
ATOM     13  C   UNL     1       5.240   6.015  16.413  0.00  0.00    +0.000 C 
ENDBRANCH   1  13
BRANCH   1  14
ATOM     14  N   UNL     1       6.204   3.707  16.042  0.00  0.00    +0.000 N 
ATOM     15  H   UNL     1       5.809   2.778  16.158  0.00  0.00    +0.000 HD
BRANCH  14  16
ATOM     16  C   UNL     1       6.402   4.006  14.694  0.00  0.00    +0.000 A 
ATOM     17  C   UNL     1       7.521   4.676  14.182  0.00  0.00    +0.000 A 
ATOM     18  C   UNL     1       7.665   4.926  12.812  0.00  0.00    +0.000 A 
ATOM     19  C   UNL     1       6.712   4.461  11.915  0.00  0.00    +0.000 A 
ATOM     20  C   UNL     1       5.625   3.738  12.395  0.00  0.00    +0.000 A 
ATOM     21 BR   UNL     1       4.352   3.049  11.180  0.00  0.00    +0.000 Br
ATOM     22  C   UNL     1       5.474   3.506  13.766  0.00  0.00    +0.000 A 
ENDBRANCH  14  16
ENDBRANCH   1  14
TORSDOF 3
ENDMDL
MODEL 2
REMARK VINA RESULT:      -7.1      4.424      6.507
REMARK  Name = 
REMARK  3 active torsions:
REMARK  status: ('A' for Active; 'I' for Inactive)
REMARK    1  A    between atoms: C_2  and  C_3
REMARK    2  A    between atoms: C_3  and  N_4
REMARK    3  A    between atoms: N_4  and  C_5
REMARK                            x       y       z     vdW  Elec       q    Type
REMARK                         _______ _______ _______ _____ _____    ______ ____
ROOT
ATOM      1  C   UNL     1       3.520   4.910  18.798  0.00  0.00    +0.000 C 
ATOM      2  C   UNL     1       4.130   3.632  19.465  0.00  0.00    +0.000 C 
ATOM      3  O   UNL     1       3.650   2.914  20.330  0.00  0.00    +0.000 OA
ATOM      4  N   UNL     1       5.382   3.406  18.887  0.00  0.00    +0.000 N 
ATOM      5  C   UNL     1       5.650   4.322  17.885  0.00  0.00    +0.000 A 
ATOM      6  C   UNL     1       6.747   4.346  17.050  0.00  0.00    +0.000 A 
ATOM      7  C   UNL     1       6.774   5.324  16.051  0.00  0.00    +0.000 A 
ATOM      8  C   UNL     1       5.718   6.241  15.911  0.00  0.00    +0.000 A 
ATOM      9  C   UNL     1       4.622   6.205  16.777  0.00  0.00    +0.000 A 
ATOM     10  C   UNL     1       4.605   5.235  17.774  0.00  0.00    +0.000 A 
ATOM     11  H   UNL     1       5.973   2.632  19.156  0.00  0.00    +0.000 HD
ENDROOT
BRANCH   1  13
ATOM     12  N   UNL     1       1.189   4.347  17.391  0.00  0.00    +0.000 NA
ATOM     13  C   UNL     1       2.246   4.602  18.028  0.00  0.00    +0.000 C 
ENDBRANCH   1  13
BRANCH   1  14
ATOM     14  N   UNL     1       3.416   6.048  19.741  0.00  0.00    +0.000 N 
ATOM     15  H   UNL     1       4.322   6.319  20.112  0.00  0.00    +0.000 HD
BRANCH  14  16
ATOM     16  C   UNL     1       2.616   7.166  19.501  0.00  0.00    +0.000 A 
ATOM     17  C   UNL     1       2.481   7.796  18.257  0.00  0.00    +0.000 A 
ATOM     18  C   UNL     1       1.644   8.904  18.081  0.00  0.00    +0.000 A 
ATOM     19  C   UNL     1       0.880   9.375  19.141  0.00  0.00    +0.000 A 
ATOM     20  C   UNL     1       0.951   8.725  20.369  0.00  0.00    +0.000 A 
ATOM     21 BR   UNL     1      -0.127   9.319  21.803  0.00  0.00    +0.000 Br
ATOM     22  C   UNL     1       1.802   7.630  20.546  0.00  0.00    +0.000 A 
ENDBRANCH  14  16
ENDBRANCH   1  14
TORSDOF 3
ENDMDL
MODEL 3
REMARK VINA RESULT:      -7.0      3.265      5.871
REMARK  Name = 
REMARK  3 active torsions:
REMARK  status: ('A' for Active; 'I' for Inactive)
REMARK    1  A    between atoms: C_2  and  C_3
REMARK    2  A    between atoms: C_3  and  N_4
REMARK    3  A    between atoms: N_4  and  C_5
REMARK                            x       y       z     vdW  Elec       q    Type
REMARK                         _______ _______ _______ _____ _____    ______ ____
ROOT
ATOM      1  C   UNL     1       4.956   4.930  16.828  0.00  0.00    +0.000 C 
ATOM      2  C   UNL     1       5.079   3.681  17.764  0.00  0.00    +0.000 C 
ATOM      3  O   UNL     1       4.465   2.624  17.718  0.00  0.00    +0.000 OA
ATOM      4  N   UNL     1       6.060   3.958  18.720  0.00  0.00    +0.000 N 
ATOM      5  C   UNL     1       6.647   5.193  18.499  0.00  0.00    +0.000 A 
ATOM      6  C   UNL     1       7.703   5.749  19.190  0.00  0.00    +0.000 A 
ATOM      7  C   UNL     1       8.185   6.982  18.743  0.00  0.00    +0.000 A 
ATOM      8  C   UNL     1       7.610   7.622  17.631  0.00  0.00    +0.000 A 
ATOM      9  C   UNL     1       6.533   7.044  16.954  0.00  0.00    +0.000 A 
ATOM     10  C   UNL     1       6.052   5.821  17.408  0.00  0.00    +0.000 A 
ATOM     11  H   UNL     1       6.321   3.299  19.438  0.00  0.00    +0.000 HD
ENDROOT
BRANCH   1  13
ATOM     12  N   UNL     1       5.661   4.345  14.203  0.00  0.00    +0.000 NA
ATOM     13  C   UNL     1       5.341   4.610  15.393  0.00  0.00    +0.000 C 
ENDBRANCH   1  13
BRANCH   1  14
ATOM     14  N   UNL     1       3.659   5.629  16.982  0.00  0.00    +0.000 N 
ATOM     15  H   UNL     1       2.990   5.351  16.270  0.00  0.00    +0.000 HD
BRANCH  14  16
ATOM     16  C   UNL     1       3.033   5.809  18.216  0.00  0.00    +0.000 A 
ATOM     17  C   UNL     1       2.785   7.055  18.809  0.00  0.00    +0.000 A 
ATOM     18  C   UNL     1       2.132   7.164  20.042  0.00  0.00    +0.000 A 
ATOM     19  C   UNL     1       1.665   6.027  20.688  0.00  0.00    +0.000 A 
ATOM     20  C   UNL     1       1.845   4.785  20.086  0.00  0.00    +0.000 A 
ATOM     21 BR   UNL     1       1.162   3.235  20.924  0.00  0.00    +0.000 Br
ATOM     22  C   UNL     1       2.513   4.677  18.863  0.00  0.00    +0.000 A 
ENDBRANCH  14  16
ENDBRANCH   1  14
TORSDOF 3
ENDMDL
MODEL 4
REMARK VINA RESULT:      -6.9      2.586      4.198
REMARK  Name = 
REMARK  3 active torsions:
REMARK  status: ('A' for Active; 'I' for Inactive)
REMARK    1  A    between atoms: C_2  and  C_3
REMARK    2  A    between atoms: C_3  and  N_4
REMARK    3  A    between atoms: N_4  and  C_5
REMARK                            x       y       z     vdW  Elec       q    Type
REMARK                         _______ _______ _______ _____ _____    ______ ____
ROOT
ATOM      1  C   UNL     1       4.478   2.593  19.444  0.00  0.00    +0.000 C 
ATOM      2  C   UNL     1       3.869   1.691  18.318  0.00  0.00    +0.000 C 
ATOM      3  O   UNL     1       4.402   0.795  17.679  0.00  0.00    +0.000 OA
ATOM      4  N   UNL     1       2.537   2.075  18.138  0.00  0.00    +0.000 N 
ATOM      5  C   UNL     1       2.168   3.060  19.038  0.00  0.00    +0.000 A 
ATOM      6  C   UNL     1       0.915   3.610  19.204  0.00  0.00    +0.000 A 
ATOM      7  C   UNL     1       0.752   4.542  20.233  0.00  0.00    +0.000 A 
ATOM      8  C   UNL     1       1.831   4.898  21.061  0.00  0.00    +0.000 A 
ATOM      9  C   UNL     1       3.096   4.336  20.866  0.00  0.00    +0.000 A 
ATOM     10  C   UNL     1       3.253   3.415  19.836  0.00  0.00    +0.000 A 
ATOM     11  H   UNL     1       1.931   1.634  17.461  0.00  0.00    +0.000 HD
ENDROOT
BRANCH   1  13
ATOM     12  N   UNL     1       5.238   1.116  21.673  0.00  0.00    +0.000 NA
ATOM     13  C   UNL     1       4.894   1.785  20.662  0.00  0.00    +0.000 C 
ENDBRANCH   1  13
BRANCH   1  14
ATOM     14  N   UNL     1       5.514   3.519  18.930  0.00  0.00    +0.000 N 
ATOM     15  H   UNL     1       6.432   3.084  18.899  0.00  0.00    +0.000 HD
BRANCH  14  16
ATOM     16  C   UNL     1       5.314   4.349  17.826  0.00  0.00    +0.000 A 
ATOM     17  C   UNL     1       4.832   5.663  17.894  0.00  0.00    +0.000 A 
ATOM     18  C   UNL     1       4.674   6.448  16.746  0.00  0.00    +0.000 A 
ATOM     19  C   UNL     1       5.047   5.950  15.504  0.00  0.00    +0.000 A 
ATOM     20  C   UNL     1       5.587   4.670  15.422  0.00  0.00    +0.000 A 
ATOM     21 BR   UNL     1       6.153   4.002  13.747  0.00  0.00    +0.000 Br
ATOM     22  C   UNL     1       5.727   3.882  16.568  0.00  0.00    +0.000 A 
ENDBRANCH  14  16
ENDBRANCH   1  14
TORSDOF 3
ENDMDL
MODEL 5
REMARK VINA RESULT:      -6.9      2.971      4.511
REMARK  Name = 
REMARK  3 active torsions:
REMARK  status: ('A' for Active; 'I' for Inactive)
REMARK    1  A    between atoms: C_2  and  C_3
REMARK    2  A    between atoms: C_3  and  N_4
REMARK    3  A    between atoms: N_4  and  C_5
REMARK                            x       y       z     vdW  Elec       q    Type
REMARK                         _______ _______ _______ _____ _____    ______ ____
ROOT
ATOM      1  C   UNL     1       3.816   3.327  19.434  0.00  0.00    +0.000 C 
ATOM      2  C   UNL     1       3.236   2.529  18.218  0.00  0.00    +0.000 C 
ATOM      3  O   UNL     1       3.355   1.341  17.953  0.00  0.00    +0.000 OA
ATOM      4  N   UNL     1       2.509   3.423  17.429  0.00  0.00    +0.000 N 
ATOM      5  C   UNL     1       2.474   4.686  17.995  0.00  0.00    +0.000 A 
ATOM      6  C   UNL     1       1.780   5.786  17.537  0.00  0.00    +0.000 A 
ATOM      7  C   UNL     1       1.828   6.946  18.314  0.00  0.00    +0.000 A 
ATOM      8  C   UNL     1       2.558   6.979  19.516  0.00  0.00    +0.000 A 
ATOM      9  C   UNL     1       3.263   5.856  19.954  0.00  0.00    +0.000 A 
ATOM     10  C   UNL     1       3.218   4.707  19.172  0.00  0.00    +0.000 A 
ATOM     11  H   UNL     1       2.036   3.140  16.582  0.00  0.00    +0.000 HD
ENDROOT
BRANCH   1  13
ATOM     12  N   UNL     1       2.798   2.426  21.859  0.00  0.00    +0.000 NA
ATOM     13  C   UNL     1       3.260   2.834  20.760  0.00  0.00    +0.000 C 
ENDBRANCH   1  13
BRANCH   1  14
ATOM     14  N   UNL     1       5.292   3.443  19.385  0.00  0.00    +0.000 N 
ATOM     15  H   UNL     1       5.743   2.535  19.318  0.00  0.00    +0.000 HD
BRANCH  14  16
ATOM     16  C   UNL     1       5.956   4.392  18.607  0.00  0.00    +0.000 A 
ATOM     17  C   UNL     1       6.685   5.473  19.120  0.00  0.00    +0.000 A 
ATOM     18  C   UNL     1       7.345   6.379  18.280  0.00  0.00    +0.000 A 
ATOM     19  C   UNL     1       7.333   6.190  16.905  0.00  0.00    +0.000 A 
ATOM     20  C   UNL     1       6.669   5.087  16.378  0.00  0.00    +0.000 A 
ATOM     21 BR   UNL     1       6.694   4.785  14.512  0.00  0.00    +0.000 Br
ATOM     22  C   UNL     1       5.995   4.194  17.217  0.00  0.00    +0.000 A 
ENDBRANCH  14  16
ENDBRANCH   1  14
TORSDOF 3
ENDMDL
MODEL 6
REMARK VINA RESULT:      -6.9      3.133      5.902
REMARK  Name = 
REMARK  3 active torsions:
REMARK  status: ('A' for Active; 'I' for Inactive)
REMARK    1  A    between atoms: C_2  and  C_3
REMARK    2  A    between atoms: C_3  and  N_4
REMARK    3  A    between atoms: N_4  and  C_5
REMARK                            x       y       z     vdW  Elec       q    Type
REMARK                         _______ _______ _______ _____ _____    ______ ____
ROOT
ATOM      1  C   UNL     1       5.722   4.753  18.613  0.00  0.00    +0.000 C 
ATOM      2  C   UNL     1       4.524   5.759  18.672  0.00  0.00    +0.000 C 
ATOM      3  O   UNL     1       3.894   6.146  19.646  0.00  0.00    +0.000 OA
ATOM      4  N   UNL     1       4.263   6.188  17.368  0.00  0.00    +0.000 N 
ATOM      5  C   UNL     1       5.168   5.654  16.468  0.00  0.00    +0.000 A 
ATOM      6  C   UNL     1       5.263   5.927  15.120  0.00  0.00    +0.000 A 
ATOM      7  C   UNL     1       6.310   5.327  14.414  0.00  0.00    +0.000 A 
ATOM      8  C   UNL     1       7.226   4.481  15.064  0.00  0.00    +0.000 A 
ATOM      9  C   UNL     1       7.103   4.209  16.429  0.00  0.00    +0.000 A 
ATOM     10  C   UNL     1       6.055   4.803  17.124  0.00  0.00    +0.000 A 
ATOM     11  H   UNL     1       3.529   6.846  17.150  0.00  0.00    +0.000 HD
ENDROOT
BRANCH   1  13
ATOM     12  N   UNL     1       7.946   5.689  19.994  0.00  0.00    +0.000 NA
ATOM     13  C   UNL     1       6.938   5.265  19.368  0.00  0.00    +0.000 C 
ENDBRANCH   1  13
BRANCH   1  14
ATOM     14  N   UNL     1       5.318   3.368  18.953  0.00  0.00    +0.000 N 
ATOM     15  H   UNL     1       5.842   3.002  19.743  0.00  0.00    +0.000 HD
BRANCH  14  16
ATOM     16  C   UNL     1       3.986   2.953  18.997  0.00  0.00    +0.000 A 
ATOM     17  C   UNL     1       3.267   2.466  17.897  0.00  0.00    +0.000 A 
ATOM     18  C   UNL     1       1.937   2.046  18.017  0.00  0.00    +0.000 A 
ATOM     19  C   UNL     1       1.312   2.056  19.257  0.00  0.00    +0.000 A 
ATOM     20  C   UNL     1       2.028   2.476  20.373  0.00  0.00    +0.000 A 
ATOM     21 BR   UNL     1       1.208   2.439  22.076  0.00  0.00    +0.000 Br
ATOM     22  C   UNL     1       3.350   2.912  20.248  0.00  0.00    +0.000 A 
ENDBRANCH  14  16
ENDBRANCH   1  14
TORSDOF 3
ENDMDL
MODEL 7
REMARK VINA RESULT:      -6.8      1.293      1.601
REMARK  Name = 
REMARK  3 active torsions:
REMARK  status: ('A' for Active; 'I' for Inactive)
REMARK    1  A    between atoms: C_2  and  C_3
REMARK    2  A    between atoms: C_3  and  N_4
REMARK    3  A    between atoms: N_4  and  C_5
REMARK                            x       y       z     vdW  Elec       q    Type
REMARK                         _______ _______ _______ _____ _____    ______ ____
ROOT
ATOM      1  C   UNL     1       4.465   4.511  18.063  0.00  0.00    +0.000 C 
ATOM      2  C   UNL     1       5.211   4.529  19.440  0.00  0.00    +0.000 C 
ATOM      3  O   UNL     1       6.327   4.953  19.702  0.00  0.00    +0.000 OA
ATOM      4  N   UNL     1       4.361   3.960  20.393  0.00  0.00    +0.000 N 
ATOM      5  C   UNL     1       3.133   3.632  19.845  0.00  0.00    +0.000 A 
ATOM      6  C   UNL     1       2.031   3.135  20.508  0.00  0.00    +0.000 A 
ATOM      7  C   UNL     1       0.863   2.947  19.763  0.00  0.00    +0.000 A 
ATOM      8  C   UNL     1       0.824   3.258  18.392  0.00  0.00    +0.000 A 
ATOM      9  C   UNL     1       1.958   3.749  17.739  0.00  0.00    +0.000 A 
ATOM     10  C   UNL     1       3.118   3.926  18.484  0.00  0.00    +0.000 A 
ATOM     11  H   UNL     1       4.623   3.860  21.363  0.00  0.00    +0.000 HD
ENDROOT
BRANCH   1  13
ATOM     12  N   UNL     1       3.993   7.074  17.095  0.00  0.00    +0.000 NA
ATOM     13  C   UNL     1       4.206   5.912  17.534  0.00  0.00    +0.000 C 
ENDBRANCH   1  13
BRANCH   1  14
ATOM     14  N   UNL     1       5.091   3.585  17.091  0.00  0.00    +0.000 N 
ATOM     15  H   UNL     1       4.484   2.802  16.867  0.00  0.00    +0.000 HD
BRANCH  14  16
ATOM     16  C   UNL     1       5.784   4.022  15.961  0.00  0.00    +0.000 A 
ATOM     17  C   UNL     1       6.909   4.858  15.992  0.00  0.00    +0.000 A 
ATOM     18  C   UNL     1       7.570   5.242  14.819  0.00  0.00    +0.000 A 
ATOM     19  C   UNL     1       7.150   4.753  13.589  0.00  0.00    +0.000 A 
ATOM     20  C   UNL     1       6.075   3.871  13.543  0.00  0.00    +0.000 A 
ATOM     21 BR   UNL     1       5.530   3.151  11.882  0.00  0.00    +0.000 Br
ATOM     22  C   UNL     1       5.405   3.503  14.714  0.00  0.00    +0.000 A 
ENDBRANCH  14  16
ENDBRANCH   1  14
TORSDOF 3
ENDMDL
MODEL 8
REMARK VINA RESULT:      -6.7      1.566      1.722
REMARK  Name = 
REMARK  3 active torsions:
REMARK  status: ('A' for Active; 'I' for Inactive)
REMARK    1  A    between atoms: C_2  and  C_3
REMARK    2  A    between atoms: C_3  and  N_4
REMARK    3  A    between atoms: N_4  and  C_5
REMARK                            x       y       z     vdW  Elec       q    Type
REMARK                         _______ _______ _______ _____ _____    ______ ____
ROOT
ATOM      1  C   UNL     1       5.919   5.678  16.842  0.00  0.00    +0.000 C 
ATOM      2  C   UNL     1       6.810   4.469  17.288  0.00  0.00    +0.000 C 
ATOM      3  O   UNL     1       7.880   4.094  16.830  0.00  0.00    +0.000 OA
ATOM      4  N   UNL     1       6.171   3.842  18.361  0.00  0.00    +0.000 N 
ATOM      5  C   UNL     1       5.015   4.512  18.724  0.00  0.00    +0.000 A 
ATOM      6  C   UNL     1       4.186   4.226  19.788  0.00  0.00    +0.000 A 
ATOM      7  C   UNL     1       3.109   5.088  20.014  0.00  0.00    +0.000 A 
ATOM      8  C   UNL     1       2.890   6.201  19.184  0.00  0.00    +0.000 A 
ATOM      9  C   UNL     1       3.738   6.464  18.104  0.00  0.00    +0.000 A 
ATOM     10  C   UNL     1       4.802   5.599  17.880  0.00  0.00    +0.000 A 
ATOM     11  H   UNL     1       6.556   3.031  18.823  0.00  0.00    +0.000 HD
ENDROOT
BRANCH   1  13
ATOM     12  N   UNL     1       7.209   8.115  17.192  0.00  0.00    +0.000 NA
ATOM     13  C   UNL     1       6.625   7.010  17.033  0.00  0.00    +0.000 C 
ENDBRANCH   1  13
BRANCH   1  14
ATOM     14  N   UNL     1       5.322   5.478  15.501  0.00  0.00    +0.000 N 
ATOM     15  H   UNL     1       4.665   6.215  15.264  0.00  0.00    +0.000 HD
BRANCH  14  16
ATOM     16  C   UNL     1       6.067   5.091  14.386  0.00  0.00    +0.000 A 
ATOM     17  C   UNL     1       7.311   5.630  14.033  0.00  0.00    +0.000 A 
ATOM     18  C   UNL     1       8.015   5.180  12.910  0.00  0.00    +0.000 A 
ATOM     19  C   UNL     1       7.511   4.139  12.142  0.00  0.00    +0.000 A 
ATOM     20  C   UNL     1       6.308   3.545  12.512  0.00  0.00    +0.000 A 
ATOM     21 BR   UNL     1       5.639   2.088  11.511  0.00  0.00    +0.000 Br
ATOM     22  C   UNL     1       5.598   4.009  13.624  0.00  0.00    +0.000 A 
ENDBRANCH  14  16
ENDBRANCH   1  14
TORSDOF 3
ENDMDL
MODEL 9
REMARK VINA RESULT:      -6.7      2.018      2.727
REMARK  Name = 
REMARK  3 active torsions:
REMARK  status: ('A' for Active; 'I' for Inactive)
REMARK    1  A    between atoms: C_2  and  C_3
REMARK    2  A    between atoms: C_3  and  N_4
REMARK    3  A    between atoms: N_4  and  C_5
REMARK                            x       y       z     vdW  Elec       q    Type
REMARK                         _______ _______ _______ _____ _____    ______ ____
ROOT
ATOM      1  C   UNL     1       5.257   4.290  18.390  0.00  0.00    +0.000 C 
ATOM      2  C   UNL     1       4.571   3.527  19.573  0.00  0.00    +0.000 C 
ATOM      3  O   UNL     1       4.934   2.509  20.142  0.00  0.00    +0.000 OA
ATOM      4  N   UNL     1       3.409   4.226  19.913  0.00  0.00    +0.000 N 
ATOM      5  C   UNL     1       3.274   5.380  19.162  0.00  0.00    +0.000 A 
ATOM      6  C   UNL     1       2.300   6.348  19.289  0.00  0.00    +0.000 A 
ATOM      7  C   UNL     1       2.402   7.475  18.470  0.00  0.00    +0.000 A 
ATOM      8  C   UNL     1       3.461   7.609  17.555  0.00  0.00    +0.000 A 
ATOM      9  C   UNL     1       4.430   6.609  17.435  0.00  0.00    +0.000 A 
ATOM     10  C   UNL     1       4.319   5.486  18.248  0.00  0.00    +0.000 A 
ATOM     11  H   UNL     1       2.793   3.926  20.655  0.00  0.00    +0.000 HD
ENDROOT
BRANCH   1  13
ATOM     12  N   UNL     1       7.760   5.275  19.092  0.00  0.00    +0.000 NA
ATOM     13  C   UNL     1       6.626   4.829  18.774  0.00  0.00    +0.000 C 
ENDBRANCH   1  13
BRANCH   1  14
ATOM     14  N   UNL     1       5.225   3.521  17.124  0.00  0.00    +0.000 N 
ATOM     15  H   UNL     1       4.306   3.129  16.940  0.00  0.00    +0.000 HD
BRANCH  14  16
ATOM     16  C   UNL     1       5.826   3.967  15.946  0.00  0.00    +0.000 A 
ATOM     17  C   UNL     1       7.005   4.723  15.891  0.00  0.00    +0.000 A 
ATOM     18  C   UNL     1       7.566   5.121  14.671  0.00  0.00    +0.000 A 
ATOM     19  C   UNL     1       6.984   4.725  13.474  0.00  0.00    +0.000 A 
ATOM     20  C   UNL     1       5.849   3.921  13.506  0.00  0.00    +0.000 A 
ATOM     21 BR   UNL     1       5.081   3.326  11.885  0.00  0.00    +0.000 Br
ATOM     22  C   UNL     1       5.281   3.540  14.726  0.00  0.00    +0.000 A 
ENDBRANCH  14  16
ENDBRANCH   1  14
TORSDOF 3
ENDMDL
