MODEL 1
REMARK VINA RESULT:      -8.3      0.000      0.000
REMARK  Name = 
REMARK  3 active torsions:
REMARK  status: ('A' for Active; 'I' for Inactive)
REMARK    1  A    between atoms: N_8  and  C_9
REMARK    2  A    between atoms: C_9  and  C_10
REMARK    3  A    between atoms: C_10  and  N_11
REMARK                            x       y       z     vdW  Elec       q    Type
REMARK                         _______ _______ _______ _____ _____    ______ ____
ROOT
ATOM      1  F   UNL     1      -0.226  10.940  21.001  0.00  0.00    +0.000 F 
ATOM      2  C   UNL     1       0.557  10.199  20.207  0.00  0.00    +0.000 A 
ATOM      3  C   UNL     1       1.055  10.749  19.032  0.00  0.00    +0.000 A 
ATOM      4  C   UNL     1       1.863   9.967  18.199  0.00  0.00    +0.000 A 
ATOM      5  C   UNL     1       2.185   8.658  18.505  0.00  0.00    +0.000 A 
ATOM      6  N   UNL     1       2.951   7.954  17.660  0.00  0.00    +0.000 NA
ATOM      7  C   UNL     1       3.283   6.655  17.897  0.00  0.00    +0.000 A 
ATOM      8  N   UNL     1       3.966   5.959  16.909  0.00  0.00    +0.000 N 
ATOM      9  C   UNL     1       2.833   6.045  19.102  0.00  0.00    +0.000 A 
ATOM     10  C   UNL     1       2.996   4.740  19.703  0.00  0.00    +0.000 A 
ATOM     11  C   UNL     1       3.676   3.553  19.350  0.00  0.00    +0.000 A 
ATOM     12  C   UNL     1       3.619   2.430  20.186  0.00  0.00    +0.000 A 
ATOM     13  C   UNL     1       2.895   2.465  21.371  0.00  0.00    +0.000 A 
ATOM     14  C   UNL     1       2.216   3.621  21.755  0.00  0.00    +0.000 A 
ATOM     15  C   UNL     1       2.286   4.736  20.911  0.00  0.00    +0.000 A 
ATOM     16  N   UNL     1       1.728   5.977  21.044  0.00  0.00    +0.000 N 
ATOM     17  C   UNL     1       2.035   6.793  19.984  0.00  0.00    +0.000 A 
ATOM     18  C   UNL     1       1.675   8.124  19.709  0.00  0.00    +0.000 A 
ATOM     19  C   UNL     1       0.859   8.896  20.561  0.00  0.00    +0.000 A 
ATOM     20  H   UNL     1       4.193   4.999  17.138  0.00  0.00    +0.000 HD
ATOM     21  H   UNL     1       1.150   6.252  21.836  0.00  0.00    +0.000 HD
ENDROOT
BRANCH   8  22
ATOM     22  C   UNL     1       4.946   6.634  16.063  0.00  0.00    +0.000 C 
BRANCH  22  23
ATOM     23  C   UNL     1       6.098   5.689  15.613  0.00  0.00    +0.000 C 
BRANCH  23  24
ATOM     24  N   UNL     1       7.349   5.748  16.376  0.00  0.00    +0.000 NA
ATOM     25  C   UNL     1       7.869   7.055  16.807  0.00  0.00    +0.000 C 
ATOM     26  C   UNL     1       7.795   7.391  18.328  0.00  0.00    +0.000 C 
ATOM     27  N   UNL     1       8.132   6.268  19.214  0.00  0.00    +0.000 NA
ATOM     28  C   UNL     1       7.305   5.112  18.853  0.00  0.00    +0.000 C 
ATOM     29  C   UNL     1       7.516   4.693  17.384  0.00  0.00    +0.000 C 
ATOM     30  H   UNL     1       7.958   6.527  20.184  0.00  0.00    +0.000 HD
ENDBRANCH  23  24
ENDBRANCH  22  23
ENDBRANCH   8  22
TORSDOF 3
ENDMDL
MODEL 2
REMARK VINA RESULT:      -8.3      4.061      6.619
REMARK  Name = 
REMARK  3 active torsions:
REMARK  status: ('A' for Active; 'I' for Inactive)
REMARK    1  A    between atoms: N_8  and  C_9
REMARK    2  A    between atoms: C_9  and  C_10
REMARK    3  A    between atoms: C_10  and  N_11
REMARK                            x       y       z     vdW  Elec       q    Type
REMARK                         _______ _______ _______ _____ _____    ______ ____
ROOT
ATOM      1  F   UNL     1       6.078   2.713  11.480  0.00  0.00    +0.000 F 
ATOM      2  C   UNL     1       6.364   3.535  12.498  0.00  0.00    +0.000 A 
ATOM      3  C   UNL     1       7.460   4.385  12.403  0.00  0.00    +0.000 A 
ATOM      4  C   UNL     1       7.762   5.234  13.474  0.00  0.00    +0.000 A 
ATOM      5  C   UNL     1       7.006   5.256  14.631  0.00  0.00    +0.000 A 
ATOM      6  N   UNL     1       7.354   6.080  15.629  0.00  0.00    +0.000 NA
ATOM      7  C   UNL     1       6.661   6.131  16.800  0.00  0.00    +0.000 A 
ATOM      8  N   UNL     1       7.166   6.912  17.830  0.00  0.00    +0.000 N 
ATOM      9  C   UNL     1       5.508   5.310  16.946  0.00  0.00    +0.000 A 
ATOM     10  C   UNL     1       4.527   5.109  17.989  0.00  0.00    +0.000 A 
ATOM     11  C   UNL     1       4.308   5.654  19.275  0.00  0.00    +0.000 A 
ATOM     12  C   UNL     1       3.229   5.215  20.054  0.00  0.00    +0.000 A 
ATOM     13  C   UNL     1       2.361   4.242  19.578  0.00  0.00    +0.000 A 
ATOM     14  C   UNL     1       2.543   3.685  18.311  0.00  0.00    +0.000 A 
ATOM     15  C   UNL     1       3.623   4.137  17.543  0.00  0.00    +0.000 A 
ATOM     16  N   UNL     1       4.024   3.771  16.288  0.00  0.00    +0.000 N 
ATOM     17  C   UNL     1       5.147   4.453  15.891  0.00  0.00    +0.000 A 
ATOM     18  C   UNL     1       5.892   4.391  14.700  0.00  0.00    +0.000 A 
ATOM     19  C   UNL     1       5.571   3.528  13.632  0.00  0.00    +0.000 A 
ATOM     20  H   UNL     1       6.610   6.918  18.677  0.00  0.00    +0.000 HD
ATOM     21  H   UNL     1       3.545   3.070  15.726  0.00  0.00    +0.000 HD
ENDROOT
BRANCH   8  22
ATOM     22  C   UNL     1       7.862   8.163  17.547  0.00  0.00    +0.000 C 
BRANCH  22  23
ATOM     23  C   UNL     1       8.705   8.665  18.755  0.00  0.00    +0.000 C 
BRANCH  23  24
ATOM     24  N   UNL     1       8.731  10.110  18.999  0.00  0.00    +0.000 NA
ATOM     25  C   UNL     1       9.333  10.620  20.241  0.00  0.00    +0.000 C 
ATOM     26  C   UNL     1      10.696  11.368  20.124  0.00  0.00    +0.000 C 
ATOM     27  N   UNL     1      10.794  12.273  18.970  0.00  0.00    +0.000 NA
ATOM     28  C   UNL     1      10.453  11.532  17.752  0.00  0.00    +0.000 C 
ATOM     29  C   UNL     1       9.032  10.936  17.823  0.00  0.00    +0.000 C 
ATOM     30  H   UNL     1      11.742  12.640  18.896  0.00  0.00    +0.000 HD
ENDBRANCH  23  24
ENDBRANCH  22  23
ENDBRANCH   8  22
TORSDOF 3
ENDMDL
MODEL 3
REMARK VINA RESULT:      -8.2      0.748      1.070
REMARK  Name = 
REMARK  3 active torsions:
REMARK  status: ('A' for Active; 'I' for Inactive)
REMARK    1  A    between atoms: N_8  and  C_9
REMARK    2  A    between atoms: C_9  and  C_10
REMARK    3  A    between atoms: C_10  and  N_11
REMARK                            x       y       z     vdW  Elec       q    Type
REMARK                         _______ _______ _______ _____ _____    ______ ____
ROOT
ATOM      1  F   UNL     1      -0.553  10.766  21.334  0.00  0.00    +0.000 F 
ATOM      2  C   UNL     1       0.261  10.105  20.500  0.00  0.00    +0.000 A 
ATOM      3  C   UNL     1       0.717  10.734  19.348  0.00  0.00    +0.000 A 
ATOM      4  C   UNL     1       1.557  10.036  18.474  0.00  0.00    +0.000 A 
ATOM      5  C   UNL     1       1.953   8.733  18.717  0.00  0.00    +0.000 A 
ATOM      6  N   UNL     1       2.747   8.110  17.835  0.00  0.00    +0.000 NA
ATOM      7  C   UNL     1       3.151   6.822  18.009  0.00  0.00    +0.000 A 
ATOM      8  N   UNL     1       3.861   6.210  16.985  0.00  0.00    +0.000 N 
ATOM      9  C   UNL     1       2.746   6.134  19.188  0.00  0.00    +0.000 A 
ATOM     10  C   UNL     1       2.986   4.814  19.728  0.00  0.00    +0.000 A 
ATOM     11  C   UNL     1       3.725   3.683  19.316  0.00  0.00    +0.000 A 
ATOM     12  C   UNL     1       3.738   2.522  20.100  0.00  0.00    +0.000 A 
ATOM     13  C   UNL     1       3.025   2.464  21.291  0.00  0.00    +0.000 A 
ATOM     14  C   UNL     1       2.288   3.563  21.732  0.00  0.00    +0.000 A 
ATOM     15  C   UNL     1       2.289   4.718  20.940  0.00  0.00    +0.000 A 
ATOM     16  N   UNL     1       1.666   5.919  21.135  0.00  0.00    +0.000 N 
ATOM     17  C   UNL     1       1.918   6.798  20.110  0.00  0.00    +0.000 A 
ATOM     18  C   UNL     1       1.485   8.118  19.899  0.00  0.00    +0.000 A 
ATOM     19  C   UNL     1       0.637   8.805  20.793  0.00  0.00    +0.000 A 
ATOM     20  H   UNL     1       4.141   5.255  17.168  0.00  0.00    +0.000 HD
ATOM     21  H   UNL     1       1.083   6.126  21.943  0.00  0.00    +0.000 HD
ENDROOT
BRANCH   8  22
ATOM     22  C   UNL     1       4.794   6.975  16.164  0.00  0.00    +0.000 C 
BRANCH  22  23
ATOM     23  C   UNL     1       5.945   7.608  17.000  0.00  0.00    +0.000 C 
BRANCH  23  24
ATOM     24  N   UNL     1       7.218   6.883  17.042  0.00  0.00    +0.000 NA
ATOM     25  C   UNL     1       7.865   6.639  18.341  0.00  0.00    +0.000 C 
ATOM     26  C   UNL     1       7.867   5.175  18.878  0.00  0.00    +0.000 C 
ATOM     27  N   UNL     1       8.129   4.154  17.854  0.00  0.00    +0.000 NA
ATOM     28  C   UNL     1       7.193   4.342  16.742  0.00  0.00    +0.000 C 
ATOM     29  C   UNL     1       7.321   5.746  16.117  0.00  0.00    +0.000 C 
ATOM     30  H   UNL     1       8.008   3.224  18.252  0.00  0.00    +0.000 HD
ENDBRANCH  23  24
ENDBRANCH  22  23
ENDBRANCH   8  22
TORSDOF 3
ENDMDL
MODEL 4
REMARK VINA RESULT:      -8.0      3.400      6.295
REMARK  Name = 
REMARK  3 active torsions:
REMARK  status: ('A' for Active; 'I' for Inactive)
REMARK    1  A    between atoms: N_8  and  C_9
REMARK    2  A    between atoms: C_9  and  C_10
REMARK    3  A    between atoms: C_10  and  N_11
REMARK                            x       y       z     vdW  Elec       q    Type
REMARK                         _______ _______ _______ _____ _____    ______ ____
ROOT
ATOM      1  F   UNL     1       1.337   2.951  18.947  0.00  0.00    +0.000 F 
ATOM      2  C   UNL     1       2.366   3.778  18.721  0.00  0.00    +0.000 A 
ATOM      3  C   UNL     1       2.701   4.729  19.678  0.00  0.00    +0.000 A 
ATOM      4  C   UNL     1       3.769   5.599  19.434  0.00  0.00    +0.000 A 
ATOM      5  C   UNL     1       4.509   5.546  18.266  0.00  0.00    +0.000 A 
ATOM      6  N   UNL     1       5.511   6.416  18.082  0.00  0.00    +0.000 NA
ATOM      7  C   UNL     1       6.260   6.427  16.945  0.00  0.00    +0.000 A 
ATOM      8  N   UNL     1       7.189   7.444  16.778  0.00  0.00    +0.000 N 
ATOM      9  C   UNL     1       5.989   5.454  15.942  0.00  0.00    +0.000 A 
ATOM     10  C   UNL     1       6.563   5.135  14.653  0.00  0.00    +0.000 A 
ATOM     11  C   UNL     1       7.628   5.646  13.878  0.00  0.00    +0.000 A 
ATOM     12  C   UNL     1       7.921   5.090  12.626  0.00  0.00    +0.000 A 
ATOM     13  C   UNL     1       7.172   4.032  12.128  0.00  0.00    +0.000 A 
ATOM     14  C   UNL     1       6.117   3.498  12.868  0.00  0.00    +0.000 A 
ATOM     15  C   UNL     1       5.839   4.062  14.119  0.00  0.00    +0.000 A 
ATOM     16  N   UNL     1       4.881   3.735  15.038  0.00  0.00    +0.000 N 
ATOM     17  C   UNL     1       4.939   4.542  16.146  0.00  0.00    +0.000 A 
ATOM     18  C   UNL     1       4.156   4.565  17.314  0.00  0.00    +0.000 A 
ATOM     19  C   UNL     1       3.082   3.679  17.541  0.00  0.00    +0.000 A 
ATOM     20  H   UNL     1       7.722   7.403  15.918  0.00  0.00    +0.000 HD
ATOM     21  H   UNL     1       4.205   2.985  14.904  0.00  0.00    +0.000 HD
ENDROOT
BRANCH   8  22
ATOM     22  C   UNL     1       7.915   7.986  17.922  0.00  0.00    +0.000 C 
BRANCH  22  23
ATOM     23  C   UNL     1       7.930   9.543  17.936  0.00  0.00    +0.000 C 
BRANCH  23  24
ATOM     24  N   UNL     1       9.166  10.197  18.378  0.00  0.00    +0.000 NA
ATOM     25  C   UNL     1       9.516  11.518  17.833  0.00  0.00    +0.000 C 
ATOM     26  C   UNL     1       9.406  12.742  18.793  0.00  0.00    +0.000 C 
ATOM     27  N   UNL     1       9.887  12.487  20.158  0.00  0.00    +0.000 NA
ATOM     28  C   UNL     1       9.214  11.296  20.687  0.00  0.00    +0.000 C 
ATOM     29  C   UNL     1       9.471  10.056  19.807  0.00  0.00    +0.000 C 
ATOM     30  H   UNL     1       9.685  13.289  20.753  0.00  0.00    +0.000 HD
ENDBRANCH  23  24
ENDBRANCH  22  23
ENDBRANCH   8  22
TORSDOF 3
ENDMDL
MODEL 5
REMARK VINA RESULT:      -8.0      1.973      4.950
REMARK  Name = 
REMARK  3 active torsions:
REMARK  status: ('A' for Active; 'I' for Inactive)
REMARK    1  A    between atoms: N_8  and  C_9
REMARK    2  A    between atoms: C_9  and  C_10
REMARK    3  A    between atoms: C_10  and  N_11
REMARK                            x       y       z     vdW  Elec       q    Type
REMARK                         _______ _______ _______ _____ _____    ______ ____
ROOT
ATOM      1  F   UNL     1       0.219  11.701  18.423  0.00  0.00    +0.000 F 
ATOM      2  C   UNL     1       0.615  10.522  18.917  0.00  0.00    +0.000 A 
ATOM      3  C   UNL     1       0.086  10.072  20.121  0.00  0.00    +0.000 A 
ATOM      4  C   UNL     1       0.511   8.845  20.641  0.00  0.00    +0.000 A 
ATOM      5  C   UNL     1       1.448   8.058  19.996  0.00  0.00    +0.000 A 
ATOM      6  N   UNL     1       1.829   6.900  20.550  0.00  0.00    +0.000 NA
ATOM      7  C   UNL     1       2.762   6.094  19.974  0.00  0.00    +0.000 A 
ATOM      8  N   UNL     1       3.197   4.980  20.678  0.00  0.00    +0.000 N 
ATOM      9  C   UNL     1       3.317   6.482  18.721  0.00  0.00    +0.000 A 
ATOM     10  C   UNL     1       4.279   5.900  17.811  0.00  0.00    +0.000 A 
ATOM     11  C   UNL     1       5.043   4.712  17.788  0.00  0.00    +0.000 A 
ATOM     12  C   UNL     1       5.915   4.452  16.722  0.00  0.00    +0.000 A 
ATOM     13  C   UNL     1       6.042   5.357  15.675  0.00  0.00    +0.000 A 
ATOM     14  C   UNL     1       5.300   6.538  15.662  0.00  0.00    +0.000 A 
ATOM     15  C   UNL     1       4.430   6.780  16.732  0.00  0.00    +0.000 A 
ATOM     16  N   UNL     1       3.596   7.838  16.965  0.00  0.00    +0.000 N 
ATOM     17  C   UNL     1       2.908   7.696  18.145  0.00  0.00    +0.000 A 
ATOM     18  C   UNL     1       1.965   8.532  18.770  0.00  0.00    +0.000 A 
ATOM     19  C   UNL     1       1.549   9.766  18.229  0.00  0.00    +0.000 A 
ATOM     20  H   UNL     1       3.887   4.412  20.202  0.00  0.00    +0.000 HD
ATOM     21  H   UNL     1       3.507   8.634  16.337  0.00  0.00    +0.000 HD
ENDROOT
BRANCH   8  22
ATOM     22  C   UNL     1       2.280   4.236  21.536  0.00  0.00    +0.000 C 
BRANCH  22  23
ATOM     23  C   UNL     1       2.367   2.698  21.311  0.00  0.00    +0.000 C 
BRANCH  23  24
ATOM     24  N   UNL     1       1.775   2.167  20.080  0.00  0.00    +0.000 NA
ATOM     25  C   UNL     1       0.806   2.986  19.334  0.00  0.00    +0.000 C 
ATOM     26  C   UNL     1       1.271   3.583  17.971  0.00  0.00    +0.000 C 
ATOM     27  N   UNL     1       2.069   2.664  17.147  0.00  0.00    +0.000 NA
ATOM     28  C   UNL     1       3.187   2.155  17.947  0.00  0.00    +0.000 C 
ATOM     29  C   UNL     1       2.699   1.423  19.213  0.00  0.00    +0.000 C 
ATOM     30  H   UNL     1       2.426   3.154  16.328  0.00  0.00    +0.000 HD
ENDBRANCH  23  24
ENDBRANCH  22  23
ENDBRANCH   8  22
TORSDOF 3
ENDMDL
MODEL 6
REMARK VINA RESULT:      -7.9      3.094      6.545
REMARK  Name = 
REMARK  3 active torsions:
REMARK  status: ('A' for Active; 'I' for Inactive)
REMARK    1  A    between atoms: N_8  and  C_9
REMARK    2  A    between atoms: C_9  and  C_10
REMARK    3  A    between atoms: C_10  and  N_11
REMARK                            x       y       z     vdW  Elec       q    Type
REMARK                         _______ _______ _______ _____ _____    ______ ____
ROOT
ATOM      1  F   UNL     1       6.765   3.638  14.066  0.00  0.00    +0.000 F 
ATOM      2  C   UNL     1       6.045   4.424  14.876  0.00  0.00    +0.000 A 
ATOM      3  C   UNL     1       5.977   5.789  14.622  0.00  0.00    +0.000 A 
ATOM      4  C   UNL     1       5.233   6.609  15.478  0.00  0.00    +0.000 A 
ATOM      5  C   UNL     1       4.558   6.106  16.575  0.00  0.00    +0.000 A 
ATOM      6  N   UNL     1       3.874   6.942  17.367  0.00  0.00    +0.000 NA
ATOM      7  C   UNL     1       3.208   6.509  18.473  0.00  0.00    +0.000 A 
ATOM      8  N   UNL     1       2.638   7.457  19.311  0.00  0.00    +0.000 N 
ATOM      9  C   UNL     1       3.209   5.117  18.767  0.00  0.00    +0.000 A 
ATOM     10  C   UNL     1       2.615   4.295  19.798  0.00  0.00    +0.000 A 
ATOM     11  C   UNL     1       1.786   4.535  20.916  0.00  0.00    +0.000 A 
ATOM     12  C   UNL     1       1.386   3.476  21.742  0.00  0.00    +0.000 A 
ATOM     13  C   UNL     1       1.798   2.177  21.475  0.00  0.00    +0.000 A 
ATOM     14  C   UNL     1       2.612   1.900  20.377  0.00  0.00    +0.000 A 
ATOM     15  C   UNL     1       3.000   2.969  19.560  0.00  0.00    +0.000 A 
ATOM     16  N   UNL     1       3.778   2.980  18.436  0.00  0.00    +0.000 N 
ATOM     17  C   UNL     1       3.925   4.246  17.927  0.00  0.00    +0.000 A 
ATOM     18  C   UNL     1       4.633   4.715  16.806  0.00  0.00    +0.000 A 
ATOM     19  C   UNL     1       5.378   3.872  15.956  0.00  0.00    +0.000 A 
ATOM     20  H   UNL     1       2.150   7.082  20.116  0.00  0.00    +0.000 HD
ATOM     21  H   UNL     1       4.199   2.144  18.035  0.00  0.00    +0.000 HD
ENDROOT
BRANCH   8  22
ATOM     22  C   UNL     1       2.066   8.686  18.769  0.00  0.00    +0.000 C 
BRANCH  22  23
ATOM     23  C   UNL     1       0.839   9.185  19.586  0.00  0.00    +0.000 C 
BRANCH  23  24
ATOM     24  N   UNL     1       1.113   9.934  20.816  0.00  0.00    +0.000 NA
ATOM     25  C   UNL     1       0.710  11.346  20.905  0.00  0.00    +0.000 C 
ATOM     26  C   UNL     1      -0.486  11.694  21.843  0.00  0.00    +0.000 C 
ATOM     27  N   UNL     1      -0.483  10.969  23.122  0.00  0.00    +0.000 NA
ATOM     28  C   UNL     1      -0.379   9.531  22.855  0.00  0.00    +0.000 C 
ATOM     29  C   UNL     1       0.899   9.187  22.063  0.00  0.00    +0.000 C 
ATOM     30  H   UNL     1      -1.343  11.163  23.632  0.00  0.00    +0.000 HD
ENDBRANCH  23  24
ENDBRANCH  22  23
ENDBRANCH   8  22
TORSDOF 3
ENDMDL
MODEL 7
REMARK VINA RESULT:      -7.9      1.903      4.725
REMARK  Name = 
REMARK  3 active torsions:
REMARK  status: ('A' for Active; 'I' for Inactive)
REMARK    1  A    between atoms: N_8  and  C_9
REMARK    2  A    between atoms: C_9  and  C_10
REMARK    3  A    between atoms: C_10  and  N_11
REMARK                            x       y       z     vdW  Elec       q    Type
REMARK                         _______ _______ _______ _____ _____    ______ ____
ROOT
ATOM      1  F   UNL     1       1.648   2.244  22.333  0.00  0.00    +0.000 F 
ATOM      2  C   UNL     1       2.199   2.925  21.320  0.00  0.00    +0.000 A 
ATOM      3  C   UNL     1       3.113   2.292  20.487  0.00  0.00    +0.000 A 
ATOM      4  C   UNL     1       3.695   3.011  19.437  0.00  0.00    +0.000 A 
ATOM      5  C   UNL     1       3.392   4.339  19.198  0.00  0.00    +0.000 A 
ATOM      6  N   UNL     1       3.993   4.980  18.187  0.00  0.00    +0.000 NA
ATOM      7  C   UNL     1       3.752   6.292  17.916  0.00  0.00    +0.000 A 
ATOM      8  N   UNL     1       4.514   6.914  16.937  0.00  0.00    +0.000 N 
ATOM      9  C   UNL     1       2.799   6.988  18.713  0.00  0.00    +0.000 A 
ATOM     10  C   UNL     1       2.266   8.333  18.719  0.00  0.00    +0.000 A 
ATOM     11  C   UNL     1       2.463   9.491  17.934  0.00  0.00    +0.000 A 
ATOM     12  C   UNL     1       1.768  10.671  18.228  0.00  0.00    +0.000 A 
ATOM     13  C   UNL     1       0.878  10.722  19.292  0.00  0.00    +0.000 A 
ATOM     14  C   UNL     1       0.653   9.597  20.086  0.00  0.00    +0.000 A 
ATOM     15  C   UNL     1       1.353   8.424  19.777  0.00  0.00    +0.000 A 
ATOM     16  N   UNL     1       1.320   7.196  20.378  0.00  0.00    +0.000 N 
ATOM     17  C   UNL     1       2.169   6.306  19.768  0.00  0.00    +0.000 A 
ATOM     18  C   UNL     1       2.453   4.958  20.053  0.00  0.00    +0.000 A 
ATOM     19  C   UNL     1       1.856   4.251  21.116  0.00  0.00    +0.000 A 
ATOM     20  H   UNL     1       4.291   7.888  16.772  0.00  0.00    +0.000 HD
ATOM     21  H   UNL     1       0.738   6.979  21.184  0.00  0.00    +0.000 HD
ENDROOT
BRANCH   8  22
ATOM     22  C   UNL     1       4.954   6.179  15.756  0.00  0.00    +0.000 C 
BRANCH  22  23
ATOM     23  C   UNL     1       5.957   5.039  16.100  0.00  0.00    +0.000 C 
BRANCH  23  24
ATOM     24  N   UNL     1       7.269   5.436  16.619  0.00  0.00    +0.000 NA
ATOM     25  C   UNL     1       7.683   6.845  16.530  0.00  0.00    +0.000 C 
ATOM     26  C   UNL     1       7.741   7.661  17.857  0.00  0.00    +0.000 C 
ATOM     27  N   UNL     1       8.297   6.923  18.999  0.00  0.00    +0.000 NA
ATOM     28  C   UNL     1       7.571   5.658  19.149  0.00  0.00    +0.000 C 
ATOM     29  C   UNL     1       7.664   4.791  17.878  0.00  0.00    +0.000 C 
ATOM     30  H   UNL     1       8.203   7.477  19.850  0.00  0.00    +0.000 HD
ENDBRANCH  23  24
ENDBRANCH  22  23
ENDBRANCH   8  22
TORSDOF 3
ENDMDL
MODEL 8
REMARK VINA RESULT:      -7.9      2.698      6.567
REMARK  Name = 
REMARK  3 active torsions:
REMARK  status: ('A' for Active; 'I' for Inactive)
REMARK    1  A    between atoms: N_8  and  C_9
REMARK    2  A    between atoms: C_9  and  C_10
REMARK    3  A    between atoms: C_10  and  N_11
REMARK                            x       y       z     vdW  Elec       q    Type
REMARK                         _______ _______ _______ _____ _____    ______ ____
ROOT
ATOM      1  F   UNL     1       2.616   1.493  22.003  0.00  0.00    +0.000 F 
ATOM      2  C   UNL     1       2.596   2.651  21.330  0.00  0.00    +0.000 A 
ATOM      3  C   UNL     1       1.809   3.698  21.795  0.00  0.00    +0.000 A 
ATOM      4  C   UNL     1       1.781   4.902  21.083  0.00  0.00    +0.000 A 
ATOM      5  C   UNL     1       2.513   5.088  19.924  0.00  0.00    +0.000 A 
ATOM      6  N   UNL     1       2.434   6.259  19.277  0.00  0.00    +0.000 NA
ATOM      7  C   UNL     1       3.114   6.493  18.121  0.00  0.00    +0.000 A 
ATOM      8  N   UNL     1       2.872   7.681  17.445  0.00  0.00    +0.000 N 
ATOM      9  C   UNL     1       3.965   5.473  17.612  0.00  0.00    +0.000 A 
ATOM     10  C   UNL     1       4.843   5.357  16.468  0.00  0.00    +0.000 A 
ATOM     11  C   UNL     1       5.221   6.209  15.406  0.00  0.00    +0.000 A 
ATOM     12  C   UNL     1       6.119   5.763  14.428  0.00  0.00    +0.000 A 
ATOM     13  C   UNL     1       6.650   4.481  14.485  0.00  0.00    +0.000 A 
ATOM     14  C   UNL     1       6.304   3.614  15.521  0.00  0.00    +0.000 A 
ATOM     15  C   UNL     1       5.408   4.075  16.494  0.00  0.00    +0.000 A 
ATOM     16  N   UNL     1       4.911   3.446  17.601  0.00  0.00    +0.000 N 
ATOM     17  C   UNL     1       4.046   4.250  18.301  0.00  0.00    +0.000 A 
ATOM     18  C   UNL     1       3.312   4.014  19.477  0.00  0.00    +0.000 A 
ATOM     19  C   UNL     1       3.354   2.792  20.180  0.00  0.00    +0.000 A 
ATOM     20  H   UNL     1       3.407   7.808  16.594  0.00  0.00    +0.000 HD
ATOM     21  H   UNL     1       5.154   2.493  17.864  0.00  0.00    +0.000 HD
ENDROOT
BRANCH   8  22
ATOM     22  C   UNL     1       2.587   8.912  18.176  0.00  0.00    +0.000 C 
BRANCH  22  23
ATOM     23  C   UNL     1       1.172   9.480  17.859  0.00  0.00    +0.000 C 
BRANCH  23  24
ATOM     24  N   UNL     1       0.354   9.913  18.995  0.00  0.00    +0.000 NA
ATOM     25  C   UNL     1       0.441   9.177  20.267  0.00  0.00    +0.000 C 
ATOM     26  C   UNL     1       1.147   9.889  21.461  0.00  0.00    +0.000 C 
ATOM     27  N   UNL     1       0.825  11.317  21.592  0.00  0.00    +0.000 NA
ATOM     28  C   UNL     1       1.080  11.983  20.311  0.00  0.00    +0.000 C 
ATOM     29  C   UNL     1       0.246  11.367  19.169  0.00  0.00    +0.000 C 
ATOM     30  H   UNL     1       1.401  11.737  22.319  0.00  0.00    +0.000 HD
ENDBRANCH  23  24
ENDBRANCH  22  23
ENDBRANCH   8  22
TORSDOF 3
ENDMDL
MODEL 9
REMARK VINA RESULT:      -7.7      2.787      6.853
REMARK  Name = 
REMARK  3 active torsions:
REMARK  status: ('A' for Active; 'I' for Inactive)
REMARK    1  A    between atoms: N_8  and  C_9
REMARK    2  A    between atoms: C_9  and  C_10
REMARK    3  A    between atoms: C_10  and  N_11
REMARK                            x       y       z     vdW  Elec       q    Type
REMARK                         _______ _______ _______ _____ _____    ______ ____
ROOT
ATOM      1  F   UNL     1       2.258   1.436  21.828  0.00  0.00    +0.000 F 
ATOM      2  C   UNL     1       2.288   2.607  21.178  0.00  0.00    +0.000 A 
ATOM      3  C   UNL     1       1.494   3.657  21.624  0.00  0.00    +0.000 A 
ATOM      4  C   UNL     1       1.519   4.874  20.936  0.00  0.00    +0.000 A 
ATOM      5  C   UNL     1       2.310   5.072  19.819  0.00  0.00    +0.000 A 
ATOM      6  N   UNL     1       2.281   6.256  19.192  0.00  0.00    +0.000 NA
ATOM      7  C   UNL     1       3.021   6.502  18.076  0.00  0.00    +0.000 A 
ATOM      8  N   UNL     1       2.831   7.706  17.412  0.00  0.00    +0.000 N 
ATOM      9  C   UNL     1       3.881   5.478  17.589  0.00  0.00    +0.000 A 
ATOM     10  C   UNL     1       4.813   5.370  16.488  0.00  0.00    +0.000 A 
ATOM     11  C   UNL     1       5.256   6.236  15.464  0.00  0.00    +0.000 A 
ATOM     12  C   UNL     1       6.195   5.796  14.522  0.00  0.00    +0.000 A 
ATOM     13  C   UNL     1       6.704   4.505  14.580  0.00  0.00    +0.000 A 
ATOM     14  C   UNL     1       6.294   3.623  15.580  0.00  0.00    +0.000 A 
ATOM     15  C   UNL     1       5.358   4.080  16.516  0.00  0.00    +0.000 A 
ATOM     16  N   UNL     1       4.797   3.437  17.585  0.00  0.00    +0.000 N 
ATOM     17  C   UNL     1       3.910   4.241  18.257  0.00  0.00    +0.000 A 
ATOM     18  C   UNL     1       3.115   3.994  19.390  0.00  0.00    +0.000 A 
ATOM     19  C   UNL     1       3.104   2.758  20.070  0.00  0.00    +0.000 A 
ATOM     20  H   UNL     1       3.409   7.841  16.592  0.00  0.00    +0.000 HD
ATOM     21  H   UNL     1       5.012   2.476  17.840  0.00  0.00    +0.000 HD
ENDROOT
BRANCH   8  22
ATOM     22  C   UNL     1       2.527   8.926  18.153  0.00  0.00    +0.000 C 
BRANCH  22  23
ATOM     23  C   UNL     1       1.110   9.485  17.828  0.00  0.00    +0.000 C 
BRANCH  23  24
ATOM     24  N   UNL     1       0.537  10.446  18.774  0.00  0.00    +0.000 NA
ATOM     25  C   UNL     1       1.204  11.742  18.977  0.00  0.00    +0.000 C 
ATOM     26  C   UNL     1       0.496  13.010  18.409  0.00  0.00    +0.000 C 
ATOM     27  N   UNL     1      -0.961  13.027  18.597  0.00  0.00    +0.000 NA
ATOM     28  C   UNL     1      -1.525  11.783  18.064  0.00  0.00    +0.000 C 
ATOM     29  C   UNL     1      -0.929  10.541  18.757  0.00  0.00    +0.000 C 
ATOM     30  H   UNL     1      -1.365  13.825  18.109  0.00  0.00    +0.000 HD
ENDBRANCH  23  24
ENDBRANCH  22  23
ENDBRANCH   8  22
TORSDOF 3
ENDMDL
