MODEL 1
REMARK VINA RESULT:      -7.3      0.000      0.000
REMARK  Name = 
REMARK  5 active torsions:
REMARK  status: ('A' for Active; 'I' for Inactive)
REMARK    1  A    between atoms: C_1  and  C_2
REMARK    2  A    between atoms: C_2  and  C_14
REMARK    3  A    between atoms: C_3  and  C_4
REMARK    4  A    between atoms: C_8  and  C_9
REMARK    5  A    between atoms: N_16  and  C_17
REMARK                            x       y       z     vdW  Elec       q    Type
REMARK                         _______ _______ _______ _____ _____    ______ ____
ROOT
ATOM      1  C   UNL     1       7.066   4.678  17.282  0.00  0.00    +0.000 C 
ATOM      2  C   UNL     1       6.018   4.683  16.199  0.00  0.00    +0.000 C 
ATOM      3  C   UNL     1       4.690   4.756  16.413  0.00  0.00    +0.000 C 
ENDROOT
BRANCH   3   4
ATOM      4  C   UNL     1       4.062   4.928  17.727  0.00  0.00    +0.000 A 
ATOM      5  C   UNL     1       3.671   6.202  18.152  0.00  0.00    +0.000 A 
ATOM      6  C   UNL     1       3.046   6.371  19.389  0.00  0.00    +0.000 A 
ATOM      7  C   UNL     1       2.806   5.268  20.204  0.00  0.00    +0.000 A 
ATOM      8  C   UNL     1       3.193   3.981  19.799  0.00  0.00    +0.000 A 
ATOM      9  C   UNL     1       3.830   3.824  18.554  0.00  0.00    +0.000 A 
BRANCH   8  10
ATOM     10  C   UNL     1       2.928   2.776  20.665  0.00  0.00    +0.000 C 
ATOM     11  F   UNL     1       2.330   3.078  21.853  0.00  0.00    +0.000 F 
ATOM     12  F   UNL     1       2.111   1.871  20.058  0.00  0.00    +0.000 F 
ATOM     13  F   UNL     1       4.066   2.099  20.983  0.00  0.00    +0.000 F 
ENDBRANCH   8  10
ENDBRANCH   3   4
BRANCH   2  14
ATOM     14  C   UNL     1       6.592   4.523  14.815  0.00  0.00    +0.000 C 
ATOM     15  O   UNL     1       7.606   5.133  14.489  0.00  0.00    +0.000 OA
ATOM     16  N   UNL     1       5.883   3.731  13.938  0.00  0.00    +0.000 N 
ATOM     17  H   UNL     1       4.987   3.349  14.207  0.00  0.00    +0.000 HD
BRANCH  16  18
ATOM     18  C   UNL     1       6.311   3.549  12.584  0.00  0.00    +0.000 C 
ATOM     19  C   UNL     1       6.292   2.178  11.966  0.00  0.00    +0.000 C 
ATOM     20  C   UNL     1       5.338   3.229  11.483  0.00  0.00    +0.000 C 
ENDBRANCH  16  18
ENDBRANCH   2  14
TORSDOF 4
ENDMDL
MODEL 2
REMARK VINA RESULT:      -7.1      3.113      4.570
REMARK  Name = 
REMARK  5 active torsions:
REMARK  status: ('A' for Active; 'I' for Inactive)
REMARK    1  A    between atoms: C_1  and  C_2
REMARK    2  A    between atoms: C_2  and  C_14
REMARK    3  A    between atoms: C_3  and  C_4
REMARK    4  A    between atoms: C_8  and  C_9
REMARK    5  A    between atoms: N_16  and  C_17
REMARK                            x       y       z     vdW  Elec       q    Type
REMARK                         _______ _______ _______ _____ _____    ______ ____
ROOT
ATOM      1  C   UNL     1       4.328   6.794  16.827  0.00  0.00    +0.000 C 
ATOM      2  C   UNL     1       5.539   6.047  17.323  0.00  0.00    +0.000 C 
ATOM      3  C   UNL     1       5.502   4.868  17.976  0.00  0.00    +0.000 C 
ENDROOT
BRANCH   3   4
ATOM      4  C   UNL     1       4.286   4.089  18.229  0.00  0.00    +0.000 A 
ATOM      5  C   UNL     1       3.893   3.095  17.327  0.00  0.00    +0.000 A 
ATOM      6  C   UNL     1       2.754   2.328  17.576  0.00  0.00    +0.000 A 
ATOM      7  C   UNL     1       2.003   2.549  18.728  0.00  0.00    +0.000 A 
ATOM      8  C   UNL     1       2.376   3.545  19.645  0.00  0.00    +0.000 A 
ATOM      9  C   UNL     1       3.523   4.316  19.380  0.00  0.00    +0.000 A 
BRANCH   8  10
ATOM     10  C   UNL     1       1.582   3.786  20.903  0.00  0.00    +0.000 C 
ATOM     11  F   UNL     1       0.603   4.724  20.759  0.00  0.00    +0.000 F 
ATOM     12  F   UNL     1       0.955   2.660  21.345  0.00  0.00    +0.000 F 
ATOM     13  F   UNL     1       2.357   4.213  21.938  0.00  0.00    +0.000 F 
ENDBRANCH   8  10
ENDBRANCH   3   4
BRANCH   2  14
ATOM     14  C   UNL     1       6.832   6.782  17.085  0.00  0.00    +0.000 C 
ATOM     15  O   UNL     1       7.636   6.369  16.253  0.00  0.00    +0.000 OA
ATOM     16  N   UNL     1       7.083   7.872  17.890  0.00  0.00    +0.000 N 
ATOM     17  H   UNL     1       6.454   8.102  18.647  0.00  0.00    +0.000 HD
BRANCH  16  18
ATOM     18  C   UNL     1       8.302   8.614  17.782  0.00  0.00    +0.000 C 
ATOM     19  C   UNL     1       8.278  10.116  17.846  0.00  0.00    +0.000 C 
ATOM     20  C   UNL     1       8.900   9.331  18.961  0.00  0.00    +0.000 C 
ENDBRANCH  16  18
ENDBRANCH   2  14
TORSDOF 4
ENDMDL
MODEL 3
REMARK VINA RESULT:      -7.0      1.628      1.996
REMARK  Name = 
REMARK  5 active torsions:
REMARK  status: ('A' for Active; 'I' for Inactive)
REMARK    1  A    between atoms: C_1  and  C_2
REMARK    2  A    between atoms: C_2  and  C_14
REMARK    3  A    between atoms: C_3  and  C_4
REMARK    4  A    between atoms: C_8  and  C_9
REMARK    5  A    between atoms: N_16  and  C_17
REMARK                            x       y       z     vdW  Elec       q    Type
REMARK                         _______ _______ _______ _____ _____    ______ ____
ROOT
ATOM      1  C   UNL     1       4.803   6.046  16.681  0.00  0.00    +0.000 C 
ATOM      2  C   UNL     1       5.267   4.621  16.516  0.00  0.00    +0.000 C 
ATOM      3  C   UNL     1       4.679   3.550  17.083  0.00  0.00    +0.000 C 
ENDROOT
BRANCH   3   4
ATOM      4  C   UNL     1       3.449   3.593  17.880  0.00  0.00    +0.000 A 
ATOM      5  C   UNL     1       2.226   3.869  17.261  0.00  0.00    +0.000 A 
ATOM      6  C   UNL     1       1.046   3.883  18.006  0.00  0.00    +0.000 A 
ATOM      7  C   UNL     1       1.083   3.619  19.374  0.00  0.00    +0.000 A 
ATOM      8  C   UNL     1       2.300   3.344  20.017  0.00  0.00    +0.000 A 
ATOM      9  C   UNL     1       3.484   3.340  19.256  0.00  0.00    +0.000 A 
BRANCH   8  10
ATOM     10  C   UNL     1       2.354   3.043  21.493  0.00  0.00    +0.000 C 
ATOM     11  F   UNL     1       2.545   4.147  22.269  0.00  0.00    +0.000 F 
ATOM     12  F   UNL     1       1.207   2.464  21.946  0.00  0.00    +0.000 F 
ATOM     13  F   UNL     1       3.359   2.183  21.815  0.00  0.00    +0.000 F 
ENDBRANCH   8  10
ENDBRANCH   3   4
BRANCH   2  14
ATOM     14  C   UNL     1       6.524   4.495  15.694  0.00  0.00    +0.000 C 
ATOM     15  O   UNL     1       7.618   4.400  16.244  0.00  0.00    +0.000 OA
ATOM     16  N   UNL     1       6.379   4.569  14.326  0.00  0.00    +0.000 N 
ATOM     17  H   UNL     1       5.477   4.774  13.919  0.00  0.00    +0.000 HD
BRANCH  16  18
ATOM     18  C   UNL     1       7.511   4.509  13.452  0.00  0.00    +0.000 C 
ATOM     19  C   UNL     1       7.319   4.227  11.987  0.00  0.00    +0.000 C 
ATOM     20  C   UNL     1       7.783   5.581  12.433  0.00  0.00    +0.000 C 
ENDBRANCH  16  18
ENDBRANCH   2  14
TORSDOF 4
ENDMDL
MODEL 4
REMARK VINA RESULT:      -7.0      3.657      5.031
REMARK  Name = 
REMARK  5 active torsions:
REMARK  status: ('A' for Active; 'I' for Inactive)
REMARK    1  A    between atoms: C_1  and  C_2
REMARK    2  A    between atoms: C_2  and  C_14
REMARK    3  A    between atoms: C_3  and  C_4
REMARK    4  A    between atoms: C_8  and  C_9
REMARK    5  A    between atoms: N_16  and  C_17
REMARK                            x       y       z     vdW  Elec       q    Type
REMARK                         _______ _______ _______ _____ _____    ______ ____
ROOT
ATOM      1  C   UNL     1       1.666   5.032  17.934  0.00  0.00    +0.000 C 
ATOM      2  C   UNL     1       3.047   5.635  17.941  0.00  0.00    +0.000 C 
ATOM      3  C   UNL     1       3.321   6.928  18.202  0.00  0.00    +0.000 C 
ENDROOT
BRANCH   3   4
ATOM      4  C   UNL     1       2.328   7.930  18.602  0.00  0.00    +0.000 A 
ATOM      5  C   UNL     1       1.792   8.802  17.649  0.00  0.00    +0.000 A 
ATOM      6  C   UNL     1       0.824   9.738  18.015  0.00  0.00    +0.000 A 
ATOM      7  C   UNL     1       0.386   9.807  19.336  0.00  0.00    +0.000 A 
ATOM      8  C   UNL     1       0.913   8.945  20.310  0.00  0.00    +0.000 A 
ATOM      9  C   UNL     1       1.894   8.009  19.930  0.00  0.00    +0.000 A 
BRANCH   8  10
ATOM     10  C   UNL     1       0.439   8.998  21.740  0.00  0.00    +0.000 C 
ATOM     11  F   UNL     1      -0.616   8.174  21.996  0.00  0.00    +0.000 F 
ATOM     12  F   UNL     1       1.412   8.640  22.623  0.00  0.00    +0.000 F 
ATOM     13  F   UNL     1       0.036  10.244  22.112  0.00  0.00    +0.000 F 
ENDBRANCH   8  10
ENDBRANCH   3   4
BRANCH   2  14
ATOM     14  C   UNL     1       4.126   4.658  17.552  0.00  0.00    +0.000 C 
ATOM     15  O   UNL     1       4.440   3.745  18.311  0.00  0.00    +0.000 OA
ATOM     16  N   UNL     1       4.773   4.892  16.358  0.00  0.00    +0.000 N 
ATOM     17  H   UNL     1       4.571   5.726  15.825  0.00  0.00    +0.000 HD
BRANCH  16  18
ATOM     18  C   UNL     1       5.846   4.055  15.914  0.00  0.00    +0.000 C 
ATOM     19  C   UNL     1       6.131   3.911  14.445  0.00  0.00    +0.000 C 
ATOM     20  C   UNL     1       7.107   4.628  15.329  0.00  0.00    +0.000 C 
ENDBRANCH  16  18
ENDBRANCH   2  14
TORSDOF 4
ENDMDL
MODEL 5
REMARK VINA RESULT:      -6.9      4.262      7.259
REMARK  Name = 
REMARK  5 active torsions:
REMARK  status: ('A' for Active; 'I' for Inactive)
REMARK    1  A    between atoms: C_1  and  C_2
REMARK    2  A    between atoms: C_2  and  C_14
REMARK    3  A    between atoms: C_3  and  C_4
REMARK    4  A    between atoms: C_8  and  C_9
REMARK    5  A    between atoms: N_16  and  C_17
REMARK                            x       y       z     vdW  Elec       q    Type
REMARK                         _______ _______ _______ _____ _____    ______ ____
ROOT
ATOM      1  C   UNL     1       4.725   6.628  16.629  0.00  0.00    +0.000 C 
ATOM      2  C   UNL     1       4.863   5.226  17.165  0.00  0.00    +0.000 C 
ATOM      3  C   UNL     1       5.305   4.170  16.455  0.00  0.00    +0.000 C 
ENDROOT
BRANCH   3   4
ATOM      4  C   UNL     1       5.799   4.236  15.075  0.00  0.00    +0.000 A 
ATOM      5  C   UNL     1       7.053   4.795  14.809  0.00  0.00    +0.000 A 
ATOM      6  C   UNL     1       7.543   4.834  13.503  0.00  0.00    +0.000 A 
ATOM      7  C   UNL     1       6.784   4.314  12.458  0.00  0.00    +0.000 A 
ATOM      8  C   UNL     1       5.521   3.753  12.701  0.00  0.00    +0.000 A 
ATOM      9  C   UNL     1       5.034   3.725  14.021  0.00  0.00    +0.000 A 
BRANCH   8  10
ATOM     10  C   UNL     1       4.694   3.174  11.582  0.00  0.00    +0.000 C 
ATOM     11  F   UNL     1       3.399   2.929  11.930  0.00  0.00    +0.000 F 
ATOM     12  F   UNL     1       4.639   3.997  10.499  0.00  0.00    +0.000 F 
ATOM     13  F   UNL     1       5.187   1.989  11.126  0.00  0.00    +0.000 F 
ENDBRANCH   8  10
ENDBRANCH   3   4
BRANCH   2  14
ATOM     14  C   UNL     1       4.387   5.083  18.588  0.00  0.00    +0.000 C 
ATOM     15  O   UNL     1       5.110   5.418  19.521  0.00  0.00    +0.000 OA
ATOM     16  N   UNL     1       3.153   4.496  18.772  0.00  0.00    +0.000 N 
ATOM     17  H   UNL     1       2.646   4.120  17.984  0.00  0.00    +0.000 HD
BRANCH  16  18
ATOM     18  C   UNL     1       2.625   4.268  20.082  0.00  0.00    +0.000 C 
ATOM     19  C   UNL     1       1.646   5.240  20.680  0.00  0.00    +0.000 C 
ATOM     20  C   UNL     1       1.192   3.863  20.298  0.00  0.00    +0.000 C 
ENDBRANCH  16  18
ENDBRANCH   2  14
TORSDOF 4
ENDMDL
MODEL 6
REMARK VINA RESULT:      -6.9      4.670      7.809
REMARK  Name = 
REMARK  5 active torsions:
REMARK  status: ('A' for Active; 'I' for Inactive)
REMARK    1  A    between atoms: C_1  and  C_2
REMARK    2  A    between atoms: C_2  and  C_14
REMARK    3  A    between atoms: C_3  and  C_4
REMARK    4  A    between atoms: C_8  and  C_9
REMARK    5  A    between atoms: N_16  and  C_17
REMARK                            x       y       z     vdW  Elec       q    Type
REMARK                         _______ _______ _______ _____ _____    ______ ____
ROOT
ATOM      1  C   UNL     1       2.147   5.842  20.579  0.00  0.00    +0.000 C 
ATOM      2  C   UNL     1       2.265   7.031  19.662  0.00  0.00    +0.000 C 
ATOM      3  C   UNL     1       2.950   7.044  18.501  0.00  0.00    +0.000 C 
ENDROOT
BRANCH   3   4
ATOM      4  C   UNL     1       3.615   5.878  17.909  0.00  0.00    +0.000 A 
ATOM      5  C   UNL     1       2.885   4.713  17.654  0.00  0.00    +0.000 A 
ATOM      6  C   UNL     1       3.502   3.609  17.063  0.00  0.00    +0.000 A 
ATOM      7  C   UNL     1       4.851   3.666  16.722  0.00  0.00    +0.000 A 
ATOM      8  C   UNL     1       5.604   4.824  16.972  0.00  0.00    +0.000 A 
ATOM      9  C   UNL     1       4.973   5.928  17.575  0.00  0.00    +0.000 A 
BRANCH   8  10
ATOM     10  C   UNL     1       7.062   4.906  16.595  0.00  0.00    +0.000 C 
ATOM     11  F   UNL     1       7.337   4.393  15.363  0.00  0.00    +0.000 F 
ATOM     12  F   UNL     1       7.521   6.188  16.575  0.00  0.00    +0.000 F 
ATOM     13  F   UNL     1       7.865   4.234  17.465  0.00  0.00    +0.000 F 
ENDBRANCH   8  10
ENDBRANCH   3   4
BRANCH   2  14
ATOM     14  C   UNL     1       1.592   8.268  20.199  0.00  0.00    +0.000 C 
ATOM     15  O   UNL     1       1.221   9.154  19.434  0.00  0.00    +0.000 OA
ATOM     16  N   UNL     1       1.492   8.373  21.569  0.00  0.00    +0.000 N 
ATOM     17  H   UNL     1       1.924   7.682  22.166  0.00  0.00    +0.000 HD
BRANCH  16  18
ATOM     18  C   UNL     1       0.914   9.527  22.188  0.00  0.00    +0.000 C 
ATOM     19  C   UNL     1      -0.571   9.754  22.121  0.00  0.00    +0.000 C 
ATOM     20  C   UNL     1       0.076   9.422  23.432  0.00  0.00    +0.000 C 
ENDBRANCH  16  18
ENDBRANCH   2  14
TORSDOF 4
ENDMDL
MODEL 7
REMARK VINA RESULT:      -6.9      4.378      7.172
REMARK  Name = 
REMARK  5 active torsions:
REMARK  status: ('A' for Active; 'I' for Inactive)
REMARK    1  A    between atoms: C_1  and  C_2
REMARK    2  A    between atoms: C_2  and  C_14
REMARK    3  A    between atoms: C_3  and  C_4
REMARK    4  A    between atoms: C_8  and  C_9
REMARK    5  A    between atoms: N_16  and  C_17
REMARK                            x       y       z     vdW  Elec       q    Type
REMARK                         _______ _______ _______ _____ _____    ______ ____
ROOT
ATOM      1  C   UNL     1       4.146   7.085  17.326  0.00  0.00    +0.000 C 
ATOM      2  C   UNL     1       3.841   5.662  17.718  0.00  0.00    +0.000 C 
ATOM      3  C   UNL     1       4.357   4.571  17.119  0.00  0.00    +0.000 C 
ENDROOT
BRANCH   3   4
ATOM      4  C   UNL     1       5.360   4.599  16.050  0.00  0.00    +0.000 A 
ATOM      5  C   UNL     1       6.633   5.121  16.300  0.00  0.00    +0.000 A 
ATOM      6  C   UNL     1       7.603   5.123  15.297  0.00  0.00    +0.000 A 
ATOM      7  C   UNL     1       7.307   4.603  14.040  0.00  0.00    +0.000 A 
ATOM      8  C   UNL     1       6.034   4.077  13.765  0.00  0.00    +0.000 A 
ATOM      9  C   UNL     1       5.062   4.087  14.782  0.00  0.00    +0.000 A 
BRANCH   8  10
ATOM     10  C   UNL     1       5.703   3.498  12.414  0.00  0.00    +0.000 C 
ATOM     11  F   UNL     1       5.864   2.146  12.345  0.00  0.00    +0.000 F 
ATOM     12  F   UNL     1       4.413   3.737  12.049  0.00  0.00    +0.000 F 
ATOM     13  F   UNL     1       6.475   4.016  11.419  0.00  0.00    +0.000 F 
ENDBRANCH   8  10
ENDBRANCH   3   4
BRANCH   2  14
ATOM     14  C   UNL     1       2.824   5.554  18.825  0.00  0.00    +0.000 C 
ATOM     15  O   UNL     1       2.355   6.567  19.338  0.00  0.00    +0.000 OA
ATOM     16  N   UNL     1       2.521   4.284  19.266  0.00  0.00    +0.000 N 
ATOM     17  H   UNL     1       3.023   3.486  18.904  0.00  0.00    +0.000 HD
BRANCH  16  18
ATOM     18  C   UNL     1       1.605   4.068  20.344  0.00  0.00    +0.000 C 
ATOM     19  C   UNL     1       1.210   2.669  20.729  0.00  0.00    +0.000 C 
ATOM     20  C   UNL     1       2.052   3.490  21.659  0.00  0.00    +0.000 C 
ENDBRANCH  16  18
ENDBRANCH   2  14
TORSDOF 4
ENDMDL
MODEL 8
REMARK VINA RESULT:      -6.9      4.583      7.371
REMARK  Name = 
REMARK  5 active torsions:
REMARK  status: ('A' for Active; 'I' for Inactive)
REMARK    1  A    between atoms: C_1  and  C_2
REMARK    2  A    between atoms: C_2  and  C_14
REMARK    3  A    between atoms: C_3  and  C_4
REMARK    4  A    between atoms: C_8  and  C_9
REMARK    5  A    between atoms: N_16  and  C_17
REMARK                            x       y       z     vdW  Elec       q    Type
REMARK                         _______ _______ _______ _____ _____    ______ ____
ROOT
ATOM      1  C   UNL     1       4.043   6.354  17.521  0.00  0.00    +0.000 C 
ATOM      2  C   UNL     1       3.678   4.891  17.523  0.00  0.00    +0.000 C 
ATOM      3  C   UNL     1       4.231   3.959  16.723  0.00  0.00    +0.000 C 
ENDROOT
BRANCH   3   4
ATOM      4  C   UNL     1       5.333   4.206  15.787  0.00  0.00    +0.000 A 
ATOM      5  C   UNL     1       6.506   4.821  16.236  0.00  0.00    +0.000 A 
ATOM      6  C   UNL     1       7.571   5.032  15.358  0.00  0.00    +0.000 A 
ATOM      7  C   UNL     1       7.469   4.628  14.029  0.00  0.00    +0.000 A 
ATOM      8  C   UNL     1       6.299   4.012  13.556  0.00  0.00    +0.000 A 
ATOM      9  C   UNL     1       5.230   3.811  14.449  0.00  0.00    +0.000 A 
BRANCH   8  10
ATOM     10  C   UNL     1       6.180   3.557  12.125  0.00  0.00    +0.000 C 
ATOM     11  F   UNL     1       4.917   3.662  11.621  0.00  0.00    +0.000 F 
ATOM     12  F   UNL     1       6.976   4.274  11.284  0.00  0.00    +0.000 F 
ATOM     13  F   UNL     1       6.539   2.254  11.958  0.00  0.00    +0.000 F 
ENDBRANCH   8  10
ENDBRANCH   3   4
BRANCH   2  14
ATOM     14  C   UNL     1       2.558   4.558  18.475  0.00  0.00    +0.000 C 
ATOM     15  O   UNL     1       1.405   4.458  18.065  0.00  0.00    +0.000 OA
ATOM     16  N   UNL     1       2.890   4.450  19.808  0.00  0.00    +0.000 N 
ATOM     17  H   UNL     1       3.827   4.664  20.119  0.00  0.00    +0.000 HD
BRANCH  16  18
ATOM     18  C   UNL     1       1.897   4.184  20.804  0.00  0.00    +0.000 C 
ATOM     19  C   UNL     1       1.153   2.876  20.796  0.00  0.00    +0.000 C 
ATOM     20  C   UNL     1       2.124   3.178  21.899  0.00  0.00    +0.000 C 
ENDBRANCH  16  18
ENDBRANCH   2  14
TORSDOF 4
ENDMDL
MODEL 9
REMARK VINA RESULT:      -6.9      3.148      4.680
REMARK  Name = 
REMARK  5 active torsions:
REMARK  status: ('A' for Active; 'I' for Inactive)
REMARK    1  A    between atoms: C_1  and  C_2
REMARK    2  A    between atoms: C_2  and  C_14
REMARK    3  A    between atoms: C_3  and  C_4
REMARK    4  A    between atoms: C_8  and  C_9
REMARK    5  A    between atoms: N_16  and  C_17
REMARK                            x       y       z     vdW  Elec       q    Type
REMARK                         _______ _______ _______ _____ _____    ______ ____
ROOT
ATOM      1  C   UNL     1       4.537   6.737  16.689  0.00  0.00    +0.000 C 
ATOM      2  C   UNL     1       5.765   6.136  17.323  0.00  0.00    +0.000 C 
ATOM      3  C   UNL     1       5.771   5.031  18.093  0.00  0.00    +0.000 C 
ENDROOT
BRANCH   3   4
ATOM      4  C   UNL     1       4.598   4.193  18.364  0.00  0.00    +0.000 A 
ATOM      5  C   UNL     1       4.315   3.099  17.539  0.00  0.00    +0.000 A 
ATOM      6  C   UNL     1       3.219   2.279  17.807  0.00  0.00    +0.000 A 
ATOM      7  C   UNL     1       2.400   2.546  18.902  0.00  0.00    +0.000 A 
ATOM      8  C   UNL     1       2.662   3.641  19.741  0.00  0.00    +0.000 A 
ATOM      9  C   UNL     1       3.767   4.465  19.457  0.00  0.00    +0.000 A 
BRANCH   8  10
ATOM     10  C   UNL     1       1.794   3.934  20.937  0.00  0.00    +0.000 C 
ATOM     11  F   UNL     1       2.237   3.356  22.089  0.00  0.00    +0.000 F 
ATOM     12  F   UNL     1       1.707   5.268  21.201  0.00  0.00    +0.000 F 
ATOM     13  F   UNL     1       0.513   3.502  20.773  0.00  0.00    +0.000 F 
ENDBRANCH   8  10
ENDBRANCH   3   4
BRANCH   2  14
ATOM     14  C   UNL     1       7.017   6.938  17.076  0.00  0.00    +0.000 C 
ATOM     15  O   UNL     1       7.831   6.572  16.233  0.00  0.00    +0.000 OA
ATOM     16  N   UNL     1       7.222   8.033  17.886  0.00  0.00    +0.000 N 
ATOM     17  H   UNL     1       6.591   8.226  18.651  0.00  0.00    +0.000 HD
BRANCH  16  18
ATOM     18  C   UNL     1       8.401   8.837  17.770  0.00  0.00    +0.000 C 
ATOM     19  C   UNL     1       8.295  10.337  17.793  0.00  0.00    +0.000 C 
ATOM     20  C   UNL     1       8.946   9.616  18.935  0.00  0.00    +0.000 C 
ENDBRANCH  16  18
ENDBRANCH   2  14
TORSDOF 4
ENDMDL
