MODEL 1
REMARK VINA RESULT:      -9.0      0.000      0.000
REMARK  Name = 
REMARK  8 active torsions:
REMARK  status: ('A' for Active; 'I' for Inactive)
REMARK    1  A    between atoms: C_1  and  C_2
REMARK    2  A    between atoms: C_10  and  O_11
REMARK    3  A    between atoms: O_11  and  C_12
REMARK    4  A    between atoms: C_12  and  C_13
REMARK    5  A    between atoms: C_13  and  O_14
REMARK    6  A    between atoms: C_13  and  C_15
REMARK    7  A    between atoms: C_15  and  N_16
REMARK    8  A    between atoms: N_19  and  C_20
REMARK                            x       y       z     vdW  Elec       q    Type
REMARK                         _______ _______ _______ _____ _____    ______ ____
ROOT
ATOM      1  C   UNL     1       2.302   3.636  20.966  0.00  0.00    +0.000 C 
ENDROOT
BRANCH   1   2
ATOM      2  O   UNL     1       2.107   3.180  22.317  0.00  0.00    +0.000 OA
ATOM      3  H   UNL     1       1.867   2.238  22.286  0.00  0.00    +0.000 HD
ENDBRANCH   1   2
BRANCH   1   4
ATOM      4  C   UNL     1       1.653   5.021  20.759  0.00  0.00    +0.000 C 
BRANCH   4   5
ATOM      5  O   UNL     1       2.606   5.924  20.172  0.00  0.00    +0.000 OA
BRANCH   5  15
ATOM      6  C   UNL     1      -0.179   9.370  22.829  0.00  0.00    +0.000 C 
ATOM      7  C   UNL     1       0.102   9.915  21.463  0.00  0.00    +0.000 A 
ATOM      8  C   UNL     1      -0.342  11.127  21.092  0.00  0.00    +0.000 A 
ATOM      9  C   UNL     1      -0.104  11.714  19.765  0.00  0.00    +0.000 A 
ATOM     10  O   UNL     1      -0.531  12.828  19.485  0.00  0.00    +0.000 OA
ATOM     11  O   UNL     1       0.613  10.944  18.865  0.00  0.00    +0.000 OA
ATOM     12  C   UNL     1       1.100   9.672  19.222  0.00  0.00    +0.000 A 
ATOM     13  C   UNL     1       1.818   8.991  18.242  0.00  0.00    +0.000 A 
ATOM     14  C   UNL     1       2.338   7.727  18.521  0.00  0.00    +0.000 A 
ATOM     15  C   UNL     1       2.141   7.152  19.778  0.00  0.00    +0.000 A 
ATOM     16  C   UNL     1       1.409   7.856  20.750  0.00  0.00    +0.000 A 
ATOM     17  C   UNL     1       0.876   9.128  20.487  0.00  0.00    +0.000 A 
ENDBRANCH   5  15
ENDBRANCH   4   5
ENDBRANCH   1   4
BRANCH   1  18
ATOM     18  C   UNL     1       1.721   2.557  20.009  0.00  0.00    +0.000 C 
BRANCH  18  19
ATOM     19  N   UNL     1       2.700   1.890  19.136  0.00  0.00    +0.000 NA
ATOM     20  C   UNL     1       2.501   2.212  17.702  0.00  0.00    +0.000 C 
ATOM     21  C   UNL     1       2.899   3.649  17.306  0.00  0.00    +0.000 C 
ATOM     22  N   UNL     1       4.306   3.885  17.641  0.00  0.00    +0.000 N 
ATOM     23  C   UNL     1       4.670   3.607  19.037  0.00  0.00    +0.000 C 
ATOM     24  C   UNL     1       4.105   2.229  19.500  0.00  0.00    +0.000 C 
BRANCH  22  25
ATOM     25  C   UNL     1       5.245   4.143  16.662  0.00  0.00    +0.000 A 
ATOM     26  C   UNL     1       6.558   4.528  16.983  0.00  0.00    +0.000 A 
ATOM     27  C   UNL     1       7.488   4.871  15.991  0.00  0.00    +0.000 A 
ATOM     28  C   UNL     1       7.130   4.822  14.646  0.00  0.00    +0.000 A 
ATOM     29  C   UNL     1       5.852   4.417  14.298  0.00  0.00    +0.000 A 
ATOM     30  C   UNL     1       4.928   4.083  15.295  0.00  0.00    +0.000 A 
ENDBRANCH  22  25
ENDBRANCH  18  19
ENDBRANCH   1  18
TORSDOF 7
ENDMDL
MODEL 2
REMARK VINA RESULT:      -8.1      6.568      8.154
REMARK  Name = 
REMARK  8 active torsions:
REMARK  status: ('A' for Active; 'I' for Inactive)
REMARK    1  A    between atoms: C_1  and  C_2
REMARK    2  A    between atoms: C_10  and  O_11
REMARK    3  A    between atoms: O_11  and  C_12
REMARK    4  A    between atoms: C_12  and  C_13
REMARK    5  A    between atoms: C_13  and  O_14
REMARK    6  A    between atoms: C_13  and  C_15
REMARK    7  A    between atoms: C_15  and  N_16
REMARK    8  A    between atoms: N_19  and  C_20
REMARK                            x       y       z     vdW  Elec       q    Type
REMARK                         _______ _______ _______ _____ _____    ______ ____
ROOT
ATOM      1  C   UNL     1       8.267   8.001  17.832  0.00  0.00    +0.000 C 
ENDROOT
BRANCH   1   2
ATOM      2  O   UNL     1       8.660   7.442  19.099  0.00  0.00    +0.000 OA
ATOM      3  H   UNL     1       8.986   8.166  19.659  0.00  0.00    +0.000 HD
ENDBRANCH   1   2
BRANCH   1   4
ATOM      4  C   UNL     1       8.028   9.520  17.957  0.00  0.00    +0.000 C 
BRANCH   4   5
ATOM      5  O   UNL     1       9.024  10.104  18.814  0.00  0.00    +0.000 OA
BRANCH   5  15
ATOM      6  C   UNL     1       7.098  14.894  18.637  0.00  0.00    +0.000 C 
ATOM      7  C   UNL     1       8.508  14.914  18.133  0.00  0.00    +0.000 A 
ATOM      8  C   UNL     1       9.087  16.056  17.729  0.00  0.00    +0.000 A 
ATOM      9  C   UNL     1      10.464  16.138  17.218  0.00  0.00    +0.000 A 
ATOM     10  O   UNL     1      10.941  17.212  16.869  0.00  0.00    +0.000 OA
ATOM     11  O   UNL     1      11.174  14.952  17.153  0.00  0.00    +0.000 OA
ATOM     12  C   UNL     1      10.600  13.737  17.575  0.00  0.00    +0.000 A 
ATOM     13  C   UNL     1      11.410  12.608  17.475  0.00  0.00    +0.000 A 
ATOM     14  C   UNL     1      10.915  11.367  17.878  0.00  0.00    +0.000 A 
ATOM     15  C   UNL     1       9.618  11.262  18.381  0.00  0.00    +0.000 A 
ATOM     16  C   UNL     1       8.817  12.414  18.469  0.00  0.00    +0.000 A 
ATOM     17  C   UNL     1       9.296  13.671  18.065  0.00  0.00    +0.000 A 
ENDBRANCH   5  15
ENDBRANCH   4   5
ENDBRANCH   1   4
BRANCH   1  18
ATOM     18  C   UNL     1       7.005   7.237  17.344  0.00  0.00    +0.000 C 
BRANCH  18  19
ATOM     19  N   UNL     1       6.902   5.835  17.778  0.00  0.00    +0.000 NA
ATOM     20  C   UNL     1       6.051   5.668  18.981  0.00  0.00    +0.000 C 
ATOM     21  C   UNL     1       4.541   5.861  18.730  0.00  0.00    +0.000 C 
ATOM     22  N   UNL     1       4.083   4.917  17.708  0.00  0.00    +0.000 N 
ATOM     23  C   UNL     1       4.831   4.955  16.444  0.00  0.00    +0.000 C 
ATOM     24  C   UNL     1       6.369   4.949  16.704  0.00  0.00    +0.000 C 
BRANCH  22  25
ATOM     25  C   UNL     1       3.158   3.933  17.999  0.00  0.00    +0.000 A 
ATOM     26  C   UNL     1       1.800   4.233  18.197  0.00  0.00    +0.000 A 
ATOM     27  C   UNL     1       0.876   3.247  18.573  0.00  0.00    +0.000 A 
ATOM     28  C   UNL     1       1.288   1.928  18.747  0.00  0.00    +0.000 A 
ATOM     29  C   UNL     1       2.615   1.597  18.529  0.00  0.00    +0.000 A 
ATOM     30  C   UNL     1       3.532   2.589  18.160  0.00  0.00    +0.000 A 
ENDBRANCH  22  25
ENDBRANCH  18  19
ENDBRANCH   1  18
TORSDOF 7
ENDMDL
MODEL 3
REMARK VINA RESULT:      -8.1      6.628      8.126
REMARK  Name = 
REMARK  8 active torsions:
REMARK  status: ('A' for Active; 'I' for Inactive)
REMARK    1  A    between atoms: C_1  and  C_2
REMARK    2  A    between atoms: C_10  and  O_11
REMARK    3  A    between atoms: O_11  and  C_12
REMARK    4  A    between atoms: C_12  and  C_13
REMARK    5  A    between atoms: C_13  and  O_14
REMARK    6  A    between atoms: C_13  and  C_15
REMARK    7  A    between atoms: C_15  and  N_16
REMARK    8  A    between atoms: N_19  and  C_20
REMARK                            x       y       z     vdW  Elec       q    Type
REMARK                         _______ _______ _______ _____ _____    ______ ____
ROOT
ATOM      1  C   UNL     1       8.076   7.479  17.850  0.00  0.00    +0.000 C 
ENDROOT
BRANCH   1   2
ATOM      2  O   UNL     1       8.461   6.867  19.094  0.00  0.00    +0.000 OA
ATOM      3  H   UNL     1       9.336   6.461  18.971  0.00  0.00    +0.000 HD
ENDBRANCH   1   2
BRANCH   1   4
ATOM      4  C   UNL     1       8.095   9.018  17.970  0.00  0.00    +0.000 C 
BRANCH   4   5
ATOM      5  O   UNL     1       8.931   9.412  19.071  0.00  0.00    +0.000 OA
BRANCH   5  15
ATOM      6  C   UNL     1       9.043  13.170  22.614  0.00  0.00    +0.000 C 
ATOM      7  C   UNL     1       9.793  13.619  21.399  0.00  0.00    +0.000 A 
ATOM      8  C   UNL     1      10.373  14.830  21.346  0.00  0.00    +0.000 A 
ATOM      9  C   UNL     1      11.115  15.331  20.180  0.00  0.00    +0.000 A 
ATOM     10  O   UNL     1      11.628  16.444  20.193  0.00  0.00    +0.000 OA
ATOM     11  O   UNL     1      11.195  14.487  19.086  0.00  0.00    +0.000 OA
ATOM     12  C   UNL     1      10.605  13.209  19.108  0.00  0.00    +0.000 A 
ATOM     13  C   UNL     1      10.759  12.441  17.956  0.00  0.00    +0.000 A 
ATOM     14  C   UNL     1      10.207  11.160  17.903  0.00  0.00    +0.000 A 
ATOM     15  C   UNL     1       9.510  10.653  19.001  0.00  0.00    +0.000 A 
ATOM     16  C   UNL     1       9.365  11.448  20.151  0.00  0.00    +0.000 A 
ATOM     17  C   UNL     1       9.910  12.740  20.223  0.00  0.00    +0.000 A 
ENDBRANCH   5  15
ENDBRANCH   4   5
ENDBRANCH   1   4
BRANCH   1  18
ATOM     18  C   UNL     1       6.675   6.930  17.460  0.00  0.00    +0.000 C 
BRANCH  18  19
ATOM     19  N   UNL     1       6.440   5.510  17.769  0.00  0.00    +0.000 NA
ATOM     20  C   UNL     1       5.969   5.296  19.159  0.00  0.00    +0.000 C 
ATOM     21  C   UNL     1       4.519   5.751  19.423  0.00  0.00    +0.000 C 
ATOM     22  N   UNL     1       3.606   5.052  18.515  0.00  0.00    +0.000 N 
ATOM     23  C   UNL     1       3.938   5.165  17.088  0.00  0.00    +0.000 C 
ATOM     24  C   UNL     1       5.454   4.887  16.842  0.00  0.00    +0.000 C 
BRANCH  22  25
ATOM     25  C   UNL     1       2.640   4.187  18.990  0.00  0.00    +0.000 A 
ATOM     26  C   UNL     1       1.981   3.281  18.143  0.00  0.00    +0.000 A 
ATOM     27  C   UNL     1       0.943   2.460  18.608  0.00  0.00    +0.000 A 
ATOM     28  C   UNL     1       0.547   2.517  19.942  0.00  0.00    +0.000 A 
ATOM     29  C   UNL     1       1.200   3.379  20.808  0.00  0.00    +0.000 A 
ATOM     30  C   UNL     1       2.231   4.200  20.333  0.00  0.00    +0.000 A 
ENDBRANCH  22  25
ENDBRANCH  18  19
ENDBRANCH   1  18
TORSDOF 7
ENDMDL
MODEL 4
REMARK VINA RESULT:      -8.0      3.632      9.826
REMARK  Name = 
REMARK  8 active torsions:
REMARK  status: ('A' for Active; 'I' for Inactive)
REMARK    1  A    between atoms: C_1  and  C_2
REMARK    2  A    between atoms: C_10  and  O_11
REMARK    3  A    between atoms: O_11  and  C_12
REMARK    4  A    between atoms: C_12  and  C_13
REMARK    5  A    between atoms: C_13  and  O_14
REMARK    6  A    between atoms: C_13  and  C_15
REMARK    7  A    between atoms: C_15  and  N_16
REMARK    8  A    between atoms: N_19  and  C_20
REMARK                            x       y       z     vdW  Elec       q    Type
REMARK                         _______ _______ _______ _____ _____    ______ ____
ROOT
ATOM      1  C   UNL     1       1.113   9.942  18.364  0.00  0.00    +0.000 C 
ENDROOT
BRANCH   1   2
ATOM      2  O   UNL     1       0.024   9.690  17.458  0.00  0.00    +0.000 OA
ATOM      3  H   UNL     1       0.183   8.832  17.028  0.00  0.00    +0.000 HD
ENDBRANCH   1   2
BRANCH   1   4
ATOM      4  C   UNL     1       2.345   9.094  17.988  0.00  0.00    +0.000 C 
BRANCH   4   5
ATOM      5  O   UNL     1       1.937   7.750  17.679  0.00  0.00    +0.000 OA
BRANCH   5  15
ATOM      6  C   UNL     1       0.917   3.585  20.561  0.00  0.00    +0.000 C 
ATOM      7  C   UNL     1       2.356   3.555  20.148  0.00  0.00    +0.000 A 
ATOM      8  C   UNL     1       3.167   2.551  20.520  0.00  0.00    +0.000 A 
ATOM      9  C   UNL     1       4.588   2.469  20.153  0.00  0.00    +0.000 A 
ATOM     10  O   UNL     1       5.277   1.524  20.517  0.00  0.00    +0.000 OA
ATOM     11  O   UNL     1       5.093   3.507  19.389  0.00  0.00    +0.000 OA
ATOM     12  C   UNL     1       4.271   4.573  18.976  0.00  0.00    +0.000 A 
ATOM     13  C   UNL     1       4.882   5.556  18.201  0.00  0.00    +0.000 A 
ATOM     14  C   UNL     1       4.132   6.642  17.749  0.00  0.00    +0.000 A 
ATOM     15  C   UNL     1       2.777   6.738  18.069  0.00  0.00    +0.000 A 
ATOM     16  C   UNL     1       2.182   5.736  18.856  0.00  0.00    +0.000 A 
ATOM     17  C   UNL     1       2.921   4.637  19.323  0.00  0.00    +0.000 A 
ENDBRANCH   5  15
ENDBRANCH   4   5
ENDBRANCH   1   4
BRANCH   1  18
ATOM     18  C   UNL     1       0.610   9.655  19.807  0.00  0.00    +0.000 C 
BRANCH  18  19
ATOM     19  N   UNL     1       0.964  10.666  20.817  0.00  0.00    +0.000 NA
ATOM     20  C   UNL     1       0.367  11.994  20.532  0.00  0.00    +0.000 C 
ATOM     21  C   UNL     1      -1.156  12.074  20.763  0.00  0.00    +0.000 C 
ATOM     22  N   UNL     1      -1.469  11.716  22.149  0.00  0.00    +0.000 N 
ATOM     23  C   UNL     1      -0.942  10.418  22.591  0.00  0.00    +0.000 C 
ATOM     24  C   UNL     1       0.558  10.256  22.191  0.00  0.00    +0.000 C 
BRANCH  22  25
ATOM     25  C   UNL     1      -2.032  12.629  23.019  0.00  0.00    +0.000 A 
ATOM     26  C   UNL     1      -1.326  13.761  23.458  0.00  0.00    +0.000 A 
ATOM     27  C   UNL     1      -1.866  14.645  24.404  0.00  0.00    +0.000 A 
ATOM     28  C   UNL     1      -3.138  14.422  24.926  0.00  0.00    +0.000 A 
ATOM     29  C   UNL     1      -3.870  13.330  24.490  0.00  0.00    +0.000 A 
ATOM     30  C   UNL     1      -3.320  12.450  23.549  0.00  0.00    +0.000 A 
ENDBRANCH  22  25
ENDBRANCH  18  19
ENDBRANCH   1  18
TORSDOF 7
ENDMDL
MODEL 5
REMARK VINA RESULT:      -8.0      3.961     10.390
REMARK  Name = 
REMARK  8 active torsions:
REMARK  status: ('A' for Active; 'I' for Inactive)
REMARK    1  A    between atoms: C_1  and  C_2
REMARK    2  A    between atoms: C_10  and  O_11
REMARK    3  A    between atoms: O_11  and  C_12
REMARK    4  A    between atoms: C_12  and  C_13
REMARK    5  A    between atoms: C_13  and  O_14
REMARK    6  A    between atoms: C_13  and  C_15
REMARK    7  A    between atoms: C_15  and  N_16
REMARK    8  A    between atoms: N_19  and  C_20
REMARK                            x       y       z     vdW  Elec       q    Type
REMARK                         _______ _______ _______ _____ _____    ______ ____
ROOT
ATOM      1  C   UNL     1       1.644  11.283  18.555  0.00  0.00    +0.000 C 
ENDROOT
BRANCH   1   2
ATOM      2  O   UNL     1       2.191  12.206  17.596  0.00  0.00    +0.000 OA
ATOM      3  H   UNL     1       1.450  12.650  17.150  0.00  0.00    +0.000 HD
ENDBRANCH   1   2
BRANCH   1   4
ATOM      4  C   UNL     1       1.156   9.996  17.858  0.00  0.00    +0.000 C 
BRANCH   4   5
ATOM      5  O   UNL     1       2.284   9.240  17.383  0.00  0.00    +0.000 OA
BRANCH   5  15
ATOM      6  C   UNL     1       5.379   5.352  15.970  0.00  0.00    +0.000 C 
ATOM      7  C   UNL     1       4.811   5.059  17.324  0.00  0.00    +0.000 A 
ATOM      8  C   UNL     1       5.127   3.932  17.983  0.00  0.00    +0.000 A 
ATOM      9  C   UNL     1       4.597   3.585  19.310  0.00  0.00    +0.000 A 
ATOM     10  O   UNL     1       4.928   2.544  19.865  0.00  0.00    +0.000 OA
ATOM     11  O   UNL     1       3.714   4.486  19.881  0.00  0.00    +0.000 OA
ATOM     12  C   UNL     1       3.365   5.680  19.221  0.00  0.00    +0.000 A 
ATOM     13  C   UNL     1       2.478   6.517  19.894  0.00  0.00    +0.000 A 
ATOM     14  C   UNL     1       2.087   7.721  19.307  0.00  0.00    +0.000 A 
ATOM     15  C   UNL     1       2.587   8.084  18.056  0.00  0.00    +0.000 A 
ATOM     16  C   UNL     1       3.478   7.221  17.394  0.00  0.00    +0.000 A 
ATOM     17  C   UNL     1       3.880   6.004  17.966  0.00  0.00    +0.000 A 
ENDBRANCH   5  15
ENDBRANCH   4   5
ENDBRANCH   1   4
BRANCH   1  18
ATOM     18  C   UNL     1       0.506  12.011  19.325  0.00  0.00    +0.000 C 
BRANCH  18  19
ATOM     19  N   UNL     1      -0.617  11.162  19.751  0.00  0.00    +0.000 NA
ATOM     20  C   UNL     1      -0.664  10.967  21.221  0.00  0.00    +0.000 C 
ATOM     21  C   UNL     1      -1.102  12.212  22.019  0.00  0.00    +0.000 C 
ATOM     22  N   UNL     1      -2.427  12.649  21.570  0.00  0.00    +0.000 N 
ATOM     23  C   UNL     1      -2.549  12.885  20.126  0.00  0.00    +0.000 C 
ATOM     24  C   UNL     1      -1.934  11.705  19.311  0.00  0.00    +0.000 C 
BRANCH  22  25
ATOM     25  C   UNL     1      -3.516  12.631  22.419  0.00  0.00    +0.000 A 
ATOM     26  C   UNL     1      -4.816  12.897  21.955  0.00  0.00    +0.000 A 
ATOM     27  C   UNL     1      -5.911  12.960  22.829  0.00  0.00    +0.000 A 
ATOM     28  C   UNL     1      -5.733  12.743  24.194  0.00  0.00    +0.000 A 
ATOM     29  C   UNL     1      -4.468  12.449  24.676  0.00  0.00    +0.000 A 
ATOM     30  C   UNL     1      -3.380  12.394  23.796  0.00  0.00    +0.000 A 
ENDBRANCH  22  25
ENDBRANCH  18  19
ENDBRANCH   1  18
TORSDOF 7
ENDMDL
MODEL 6
REMARK VINA RESULT:      -8.0      6.932      8.632
REMARK  Name = 
REMARK  8 active torsions:
REMARK  status: ('A' for Active; 'I' for Inactive)
REMARK    1  A    between atoms: C_1  and  C_2
REMARK    2  A    between atoms: C_10  and  O_11
REMARK    3  A    between atoms: O_11  and  C_12
REMARK    4  A    between atoms: C_12  and  C_13
REMARK    5  A    between atoms: C_13  and  O_14
REMARK    6  A    between atoms: C_13  and  C_15
REMARK    7  A    between atoms: C_15  and  N_16
REMARK    8  A    between atoms: N_19  and  C_20
REMARK                            x       y       z     vdW  Elec       q    Type
REMARK                         _______ _______ _______ _____ _____    ______ ____
ROOT
ATOM      1  C   UNL     1       8.058   8.012  17.888  0.00  0.00    +0.000 C 
ENDROOT
BRANCH   1   2
ATOM      2  O   UNL     1       8.490   7.163  18.967  0.00  0.00    +0.000 OA
ATOM      3  H   UNL     1       8.889   6.365  18.580  0.00  0.00    +0.000 HD
ENDBRANCH   1   2
BRANCH   1   4
ATOM      4  C   UNL     1       8.436   9.482  18.166  0.00  0.00    +0.000 C 
BRANCH   4   5
ATOM      5  O   UNL     1       9.399   9.546  19.233  0.00  0.00    +0.000 OA
BRANCH   5  15
ATOM      6  C   UNL     1      12.333  13.284  17.205  0.00  0.00    +0.000 C 
ATOM      7  C   UNL     1      11.774  13.754  18.511  0.00  0.00    +0.000 A 
ATOM      8  C   UNL     1      12.052  14.979  18.987  0.00  0.00    +0.000 A 
ATOM      9  C   UNL     1      11.539  15.495  20.265  0.00  0.00    +0.000 A 
ATOM     10  O   UNL     1      11.822  16.625  20.644  0.00  0.00    +0.000 OA
ATOM     11  O   UNL     1      10.737  14.641  21.002  0.00  0.00    +0.000 OA
ATOM     12  C   UNL     1      10.420  13.353  20.532  0.00  0.00    +0.000 A 
ATOM     13  C   UNL     1       9.596  12.585  21.351  0.00  0.00    +0.000 A 
ATOM     14  C   UNL     1       9.233  11.298  20.951  0.00  0.00    +0.000 A 
ATOM     15  C   UNL     1       9.691  10.788  19.735  0.00  0.00    +0.000 A 
ATOM     16  C   UNL     1      10.526  11.580  18.927  0.00  0.00    +0.000 A 
ATOM     17  C   UNL     1      10.905  12.876  19.313  0.00  0.00    +0.000 A 
ENDBRANCH   5  15
ENDBRANCH   4   5
ENDBRANCH   1   4
BRANCH   1  18
ATOM     18  C   UNL     1       6.527   7.815  17.708  0.00  0.00    +0.000 C 
BRANCH  18  19
ATOM     19  N   UNL     1       6.114   6.513  17.160  0.00  0.00    +0.000 NA
ATOM     20  C   UNL     1       6.099   5.439  18.183  0.00  0.00    +0.000 C 
ATOM     21  C   UNL     1       4.951   5.544  19.208  0.00  0.00    +0.000 C 
ATOM     22  N   UNL     1       3.662   5.535  18.512  0.00  0.00    +0.000 N 
ATOM     23  C   UNL     1       3.515   6.547  17.457  0.00  0.00    +0.000 C 
ATOM     24  C   UNL     1       4.766   6.571  16.526  0.00  0.00    +0.000 C 
BRANCH  22  25
ATOM     25  C   UNL     1       2.750   4.515  18.700  0.00  0.00    +0.000 A 
ATOM     26  C   UNL     1       1.822   4.542  19.755  0.00  0.00    +0.000 A 
ATOM     27  C   UNL     1       0.951   3.470  19.996  0.00  0.00    +0.000 A 
ATOM     28  C   UNL     1       0.977   2.345  19.174  0.00  0.00    +0.000 A 
ATOM     29  C   UNL     1       1.861   2.304  18.109  0.00  0.00    +0.000 A 
ATOM     30  C   UNL     1       2.731   3.376  17.879  0.00  0.00    +0.000 A 
ENDBRANCH  22  25
ENDBRANCH  18  19
ENDBRANCH   1  18
TORSDOF 7
ENDMDL
MODEL 7
REMARK VINA RESULT:      -7.9      3.828     10.021
REMARK  Name = 
REMARK  8 active torsions:
REMARK  status: ('A' for Active; 'I' for Inactive)
REMARK    1  A    between atoms: C_1  and  C_2
REMARK    2  A    between atoms: C_10  and  O_11
REMARK    3  A    between atoms: O_11  and  C_12
REMARK    4  A    between atoms: C_12  and  C_13
REMARK    5  A    between atoms: C_13  and  O_14
REMARK    6  A    between atoms: C_13  and  C_15
REMARK    7  A    between atoms: C_15  and  N_16
REMARK    8  A    between atoms: N_19  and  C_20
REMARK                            x       y       z     vdW  Elec       q    Type
REMARK                         _______ _______ _______ _____ _____    ______ ____
ROOT
ATOM      1  C   UNL     1       2.056  10.687  18.442  0.00  0.00    +0.000 C 
ENDROOT
BRANCH   1   2
ATOM      2  O   UNL     1       2.496  11.371  17.254  0.00  0.00    +0.000 OA
ATOM      3  H   UNL     1       3.461  11.275  17.191  0.00  0.00    +0.000 HD
ENDBRANCH   1   2
BRANCH   1   4
ATOM      4  C   UNL     1       1.574   9.261  18.104  0.00  0.00    +0.000 C 
BRANCH   4   5
ATOM      5  O   UNL     1       1.999   8.346  19.128  0.00  0.00    +0.000 OA
BRANCH   5  15
ATOM      6  C   UNL     1       1.002   3.553  20.780  0.00  0.00    +0.000 C 
ATOM      7  C   UNL     1       2.029   3.493  19.692  0.00  0.00    +0.000 A 
ATOM      8  C   UNL     1       2.541   2.321  19.281  0.00  0.00    +0.000 A 
ATOM      9  C   UNL     1       3.555   2.198  18.224  0.00  0.00    +0.000 A 
ATOM     10  O   UNL     1       3.980   1.099  17.888  0.00  0.00    +0.000 OA
ATOM     11  O   UNL     1       3.995   3.376  17.646  0.00  0.00    +0.000 OA
ATOM     12  C   UNL     1       3.476   4.622  18.047  0.00  0.00    +0.000 A 
ATOM     13  C   UNL     1       3.984   5.739  17.388  0.00  0.00    +0.000 A 
ATOM     14  C   UNL     1       3.515   7.010  17.726  0.00  0.00    +0.000 A 
ATOM     15  C   UNL     1       2.541   7.155  18.715  0.00  0.00    +0.000 A 
ATOM     16  C   UNL     1       2.047   6.013  19.369  0.00  0.00    +0.000 A 
ATOM     17  C   UNL     1       2.508   4.727  19.045  0.00  0.00    +0.000 A 
ENDBRANCH   5  15
ENDBRANCH   4   5
ENDBRANCH   1   4
BRANCH   1  18
ATOM     18  C   UNL     1       0.947  11.549  19.107  0.00  0.00    +0.000 C 
BRANCH  18  19
ATOM     19  N   UNL     1      -0.240  10.812  19.569  0.00  0.00    +0.000 NA
ATOM     20  C   UNL     1      -0.310  10.707  21.047  0.00  0.00    +0.000 C 
ATOM     21  C   UNL     1      -0.660  12.026  21.767  0.00  0.00    +0.000 C 
ATOM     22  N   UNL     1      -1.945  12.532  21.280  0.00  0.00    +0.000 N 
ATOM     23  C   UNL     1      -2.040  12.692  19.823  0.00  0.00    +0.000 C 
ATOM     24  C   UNL     1      -1.509  11.424  19.084  0.00  0.00    +0.000 C 
BRANCH  22  25
ATOM     25  C   UNL     1      -3.038  12.644  22.116  0.00  0.00    +0.000 A 
ATOM     26  C   UNL     1      -2.925  12.469  23.505  0.00  0.00    +0.000 A 
ATOM     27  C   UNL     1      -4.047  12.501  24.346  0.00  0.00    +0.000 A 
ATOM     28  C   UNL     1      -5.315  12.725  23.815  0.00  0.00    +0.000 A 
ATOM     29  C   UNL     1      -5.454  12.931  22.453  0.00  0.00    +0.000 A 
ATOM     30  C   UNL     1      -4.329  12.891  21.620  0.00  0.00    +0.000 A 
ENDBRANCH  22  25
ENDBRANCH  18  19
ENDBRANCH   1  18
TORSDOF 7
ENDMDL
MODEL 8
REMARK VINA RESULT:      -7.8      6.850      8.377
REMARK  Name = 
REMARK  8 active torsions:
REMARK  status: ('A' for Active; 'I' for Inactive)
REMARK    1  A    between atoms: C_1  and  C_2
REMARK    2  A    between atoms: C_10  and  O_11
REMARK    3  A    between atoms: O_11  and  C_12
REMARK    4  A    between atoms: C_12  and  C_13
REMARK    5  A    between atoms: C_13  and  O_14
REMARK    6  A    between atoms: C_13  and  C_15
REMARK    7  A    between atoms: C_15  and  N_16
REMARK    8  A    between atoms: N_19  and  C_20
REMARK                            x       y       z     vdW  Elec       q    Type
REMARK                         _______ _______ _______ _____ _____    ______ ____
ROOT
ATOM      1  C   UNL     1       8.167   8.294  17.813  0.00  0.00    +0.000 C 
ENDROOT
BRANCH   1   2
ATOM      2  O   UNL     1       8.583   7.572  18.986  0.00  0.00    +0.000 OA
ATOM      3  H   UNL     1       8.590   8.192  19.735  0.00  0.00    +0.000 HD
ENDBRANCH   1   2
BRANCH   1   4
ATOM      4  C   UNL     1       8.443   9.803  17.974  0.00  0.00    +0.000 C 
BRANCH   4   5
ATOM      5  O   UNL     1       9.490  10.008  18.939  0.00  0.00    +0.000 OA
BRANCH   5  15
ATOM      6  C   UNL     1       7.446  14.619  17.819  0.00  0.00    +0.000 C 
ATOM      7  C   UNL     1       8.873  14.803  18.232  0.00  0.00    +0.000 A 
ATOM      8  C   UNL     1       9.434  16.023  18.276  0.00  0.00    +0.000 A 
ATOM      9  C   UNL     1      10.830  16.267  18.666  0.00  0.00    +0.000 A 
ATOM     10  O   UNL     1      11.285  17.404  18.693  0.00  0.00    +0.000 OA
ATOM     11  O   UNL     1      11.588  15.154  18.990  0.00  0.00    +0.000 OA
ATOM     12  C   UNL     1      11.031  13.861  18.962  0.00  0.00    +0.000 A 
ATOM     13  C   UNL     1      11.882  12.818  19.318  0.00  0.00    +0.000 A 
ATOM     14  C   UNL     1      11.402  11.507  19.320  0.00  0.00    +0.000 A 
ATOM     15  C   UNL     1      10.077  11.248  18.969  0.00  0.00    +0.000 A 
ATOM     16  C   UNL     1       9.238  12.317  18.609  0.00  0.00    +0.000 A 
ATOM     17  C   UNL     1       9.702  13.641  18.598  0.00  0.00    +0.000 A 
ENDBRANCH   5  15
ENDBRANCH   4   5
ENDBRANCH   1   4
BRANCH   1  18
ATOM     18  C   UNL     1       6.663   7.987  17.571  0.00  0.00    +0.000 C 
BRANCH  18  19
ATOM     19  N   UNL     1       6.372   6.688  16.943  0.00  0.00    +0.000 NA
ATOM     20  C   UNL     1       6.538   5.549  17.879  0.00  0.00    +0.000 C 
ATOM     21  C   UNL     1       5.444   5.443  18.961  0.00  0.00    +0.000 C 
ATOM     22  N   UNL     1       4.128   5.331  18.328  0.00  0.00    +0.000 N 
ATOM     23  C   UNL     1       3.807   6.391  17.363  0.00  0.00    +0.000 C 
ATOM     24  C   UNL     1       4.994   6.630  16.378  0.00  0.00    +0.000 C 
BRANCH  22  25
ATOM     25  C   UNL     1       3.351   4.199  18.478  0.00  0.00    +0.000 A 
ATOM     26  C   UNL     1       2.054   4.261  19.015  0.00  0.00    +0.000 A 
ATOM     27  C   UNL     1       1.296   3.104  19.245  0.00  0.00    +0.000 A 
ATOM     28  C   UNL     1       1.814   1.851  18.927  0.00  0.00    +0.000 A 
ATOM     29  C   UNL     1       3.078   1.760  18.368  0.00  0.00    +0.000 A 
ATOM     30  C   UNL     1       3.830   2.921  18.148  0.00  0.00    +0.000 A 
ENDBRANCH  22  25
ENDBRANCH  18  19
ENDBRANCH   1  18
TORSDOF 7
ENDMDL
MODEL 9
REMARK VINA RESULT:      -7.7      4.024      9.297
REMARK  Name = 
REMARK  8 active torsions:
REMARK  status: ('A' for Active; 'I' for Inactive)
REMARK    1  A    between atoms: C_1  and  C_2
REMARK    2  A    between atoms: C_10  and  O_11
REMARK    3  A    between atoms: O_11  and  C_12
REMARK    4  A    between atoms: C_12  and  C_13
REMARK    5  A    between atoms: C_13  and  O_14
REMARK    6  A    between atoms: C_13  and  C_15
REMARK    7  A    between atoms: C_15  and  N_16
REMARK    8  A    between atoms: N_19  and  C_20
REMARK                            x       y       z     vdW  Elec       q    Type
REMARK                         _______ _______ _______ _____ _____    ______ ____
ROOT
ATOM      1  C   UNL     1       0.488   9.450  21.965  0.00  0.00    +0.000 C 
ENDROOT
BRANCH   1   2
ATOM      2  O   UNL     1       0.787   9.659  23.357  0.00  0.00    +0.000 OA
ATOM      3  H   UNL     1      -0.040   9.893  23.811  0.00  0.00    +0.000 HD
ENDBRANCH   1   2
BRANCH   1   4
ATOM      4  C   UNL     1       1.105   8.127  21.466  0.00  0.00    +0.000 C 
BRANCH   4   5
ATOM      5  O   UNL     1       1.719   8.328  20.181  0.00  0.00    +0.000 OA
BRANCH   5  15
ATOM      6  C   UNL     1       1.558   3.379  21.656  0.00  0.00    +0.000 C 
ATOM      7  C   UNL     1       2.233   3.471  20.323  0.00  0.00    +0.000 A 
ATOM      8  C   UNL     1       2.684   2.374  19.693  0.00  0.00    +0.000 A 
ATOM      9  C   UNL     1       3.360   2.401  18.388  0.00  0.00    +0.000 A 
ATOM     10  O   UNL     1       3.745   1.365  17.859  0.00  0.00    +0.000 OA
ATOM     11  O   UNL     1       3.537   3.644  17.806  0.00  0.00    +0.000 OA
ATOM     12  C   UNL     1       3.072   4.815  18.434  0.00  0.00    +0.000 A 
ATOM     13  C   UNL     1       3.294   6.009  17.752  0.00  0.00    +0.000 A 
ATOM     14  C   UNL     1       2.857   7.212  18.308  0.00  0.00    +0.000 A 
ATOM     15  C   UNL     1       2.198   7.215  19.539  0.00  0.00    +0.000 A 
ATOM     16  C   UNL     1       1.989   5.998  20.211  0.00  0.00    +0.000 A 
ATOM     17  C   UNL     1       2.424   4.778  19.669  0.00  0.00    +0.000 A 
ENDBRANCH   5  15
ENDBRANCH   4   5
ENDBRANCH   1   4
BRANCH   1  18
ATOM     18  C   UNL     1       1.006  10.684  21.174  0.00  0.00    +0.000 C 
BRANCH  18  19
ATOM     19  N   UNL     1      -0.032  11.530  20.563  0.00  0.00    +0.000 NA
ATOM     20  C   UNL     1      -0.137  12.863  21.206  0.00  0.00    +0.000 C 
ATOM     21  C   UNL     1       1.036  13.817  20.901  0.00  0.00    +0.000 C 
ATOM     22  N   UNL     1       1.154  14.012  19.454  0.00  0.00    +0.000 N 
ATOM     23  C   UNL     1       1.265  12.777  18.665  0.00  0.00    +0.000 C 
ATOM     24  C   UNL     1       0.193  11.733  19.104  0.00  0.00    +0.000 C 
BRANCH  22  25
ATOM     25  C   UNL     1       0.961  15.251  18.876  0.00  0.00    +0.000 A 
ATOM     26  C   UNL     1       2.042  16.077  18.525  0.00  0.00    +0.000 A 
ATOM     27  C   UNL     1       1.846  17.369  18.015  0.00  0.00    +0.000 A 
ATOM     28  C   UNL     1       0.557  17.863  17.830  0.00  0.00    +0.000 A 
ATOM     29  C   UNL     1      -0.529  17.060  18.139  0.00  0.00    +0.000 A 
ATOM     30  C   UNL     1      -0.323  15.774  18.654  0.00  0.00    +0.000 A 
ENDBRANCH  22  25
ENDBRANCH  18  19
ENDBRANCH   1  18
TORSDOF 7
ENDMDL
