MODEL 1
REMARK VINA RESULT:      -8.0      0.000      0.000
REMARK  Name = 
REMARK  1 active torsions:
REMARK  status: ('A' for Active; 'I' for Inactive)
REMARK    1  A    between atoms: C_4  and  C_5
REMARK                            x       y       z     vdW  Elec       q    Type
REMARK                         _______ _______ _______ _____ _____    ______ ____
ROOT
ATOM      1  O   UNL     1       5.198   1.768  20.758  0.00  0.00    +0.000 OA
ATOM      2  C   UNL     1       4.684   2.543  19.962  0.00  0.00    +0.000 A 
ATOM      3  N   UNL     1       5.339   2.989  18.845  0.00  0.00    +0.000 N 
ATOM      4  C   UNL     1       4.785   3.857  17.940  0.00  0.00    +0.000 A 
ATOM      5  N   UNL     1       3.595   4.350  18.068  0.00  0.00    +0.000 NA
ATOM      6  C   UNL     1       2.834   3.950  19.178  0.00  0.00    +0.000 A 
ATOM      7  C   UNL     1       1.537   4.449  19.319  0.00  0.00    +0.000 A 
ATOM      8  C   UNL     1       0.736   4.053  20.394  0.00  0.00    +0.000 A 
ATOM      9  C   UNL     1       1.228   3.152  21.342  0.00  0.00    +0.000 A 
ATOM     10  C   UNL     1       2.523   2.651  21.218  0.00  0.00    +0.000 A 
ATOM     11  C   UNL     1       3.315   3.055  20.138  0.00  0.00    +0.000 A 
ATOM     12  H   UNL     1       6.277   2.645  18.691  0.00  0.00    +0.000 HD
ENDROOT
BRANCH   4  13
ATOM     13  C   UNL     1       5.598   4.201  16.802  0.00  0.00    +0.000 A 
ATOM     14  C   UNL     1       6.678   5.054  16.674  0.00  0.00    +0.000 A 
ATOM     15  C   UNL     1       7.066   5.018  15.313  0.00  0.00    +0.000 A 
ATOM     16  C   UNL     1       6.201   4.149  14.691  0.00  0.00    +0.000 A 
ATOM     17 BR   UNL     1       6.234   3.717  12.877  0.00  0.00    +0.000 Br
ATOM     18  O   UNL     1       5.308   3.643  15.585  0.00  0.00    +0.000 OA
ENDBRANCH   4  13
TORSDOF 1
ENDMDL
MODEL 2
REMARK VINA RESULT:      -7.6      1.269      1.299
REMARK  Name = 
REMARK  1 active torsions:
REMARK  status: ('A' for Active; 'I' for Inactive)
REMARK    1  A    between atoms: C_4  and  C_5
REMARK                            x       y       z     vdW  Elec       q    Type
REMARK                         _______ _______ _______ _____ _____    ______ ____
ROOT
ATOM      1  O   UNL     1       3.467   1.077  18.668  0.00  0.00    +0.000 OA
ATOM      2  C   UNL     1       3.656   2.264  18.434  0.00  0.00    +0.000 A 
ATOM      3  N   UNL     1       4.497   2.690  17.441  0.00  0.00    +0.000 N 
ATOM      4  C   UNL     1       4.726   4.014  17.160  0.00  0.00    +0.000 A 
ATOM      5  N   UNL     1       4.179   4.982  17.822  0.00  0.00    +0.000 NA
ATOM      6  C   UNL     1       3.291   4.652  18.858  0.00  0.00    +0.000 A 
ATOM      7  C   UNL     1       2.669   5.684  19.565  0.00  0.00    +0.000 A 
ATOM      8  C   UNL     1       1.756   5.397  20.584  0.00  0.00    +0.000 A 
ATOM      9  C   UNL     1       1.458   4.071  20.907  0.00  0.00    +0.000 A 
ATOM     10  C   UNL     1       2.077   3.031  20.215  0.00  0.00    +0.000 A 
ATOM     11  C   UNL     1       2.988   3.330  19.198  0.00  0.00    +0.000 A 
ATOM     12  H   UNL     1       4.962   1.980  16.891  0.00  0.00    +0.000 HD
ENDROOT
BRANCH   4  13
ATOM     13  C   UNL     1       5.615   4.290  16.062  0.00  0.00    +0.000 A 
ATOM     14  C   UNL     1       6.708   5.130  15.960  0.00  0.00    +0.000 A 
ATOM     15  C   UNL     1       7.185   5.017  14.631  0.00  0.00    +0.000 A 
ATOM     16  C   UNL     1       6.356   4.119  14.002  0.00  0.00    +0.000 A 
ATOM     17 BR   UNL     1       6.505   3.588  12.220  0.00  0.00    +0.000 Br
ATOM     18  O   UNL     1       5.402   3.667  14.860  0.00  0.00    +0.000 OA
ENDBRANCH   4  13
TORSDOF 1
ENDMDL
MODEL 3
REMARK VINA RESULT:      -7.5      1.868      2.320
REMARK  Name = 
REMARK  1 active torsions:
REMARK  status: ('A' for Active; 'I' for Inactive)
REMARK    1  A    between atoms: C_4  and  C_5
REMARK                            x       y       z     vdW  Elec       q    Type
REMARK                         _______ _______ _______ _____ _____    ______ ____
ROOT
ATOM      1  O   UNL     1       2.742   7.150  19.107  0.00  0.00    +0.000 OA
ATOM      2  C   UNL     1       3.056   6.045  18.685  0.00  0.00    +0.000 A 
ATOM      3  N   UNL     1       3.937   5.878  17.650  0.00  0.00    +0.000 N 
ATOM      4  C   UNL     1       4.304   4.650  17.160  0.00  0.00    +0.000 A 
ATOM      5  N   UNL     1       3.836   3.535  17.621  0.00  0.00    +0.000 NA
ATOM      6  C   UNL     1       2.928   3.595  18.691  0.00  0.00    +0.000 A 
ATOM      7  C   UNL     1       2.434   2.401  19.221  0.00  0.00    +0.000 A 
ATOM      8  C   UNL     1       1.552   2.417  20.305  0.00  0.00    +0.000 A 
ATOM      9  C   UNL     1       1.154   3.631  20.869  0.00  0.00    +0.000 A 
ATOM     10  C   UNL     1       1.634   4.831  20.346  0.00  0.00    +0.000 A 
ATOM     11  C   UNL     1       2.516   4.802  19.262  0.00  0.00    +0.000 A 
ATOM     12  H   UNL     1       4.334   6.713  17.241  0.00  0.00    +0.000 HD
ENDROOT
BRANCH   4  13
ATOM     13  C   UNL     1       5.266   4.650  16.089  0.00  0.00    +0.000 A 
ATOM     14  C   UNL     1       6.507   5.248  15.974  0.00  0.00    +0.000 A 
ATOM     15  C   UNL     1       6.996   4.928  14.685  0.00  0.00    +0.000 A 
ATOM     16  C   UNL     1       6.026   4.156  14.088  0.00  0.00    +0.000 A 
ATOM     17 BR   UNL     1       6.126   3.452  12.364  0.00  0.00    +0.000 Br
ATOM     18  O   UNL     1       4.974   3.977  14.932  0.00  0.00    +0.000 OA
ENDBRANCH   4  13
TORSDOF 1
ENDMDL
MODEL 4
REMARK VINA RESULT:      -7.5      1.616      2.325
REMARK  Name = 
REMARK  1 active torsions:
REMARK  status: ('A' for Active; 'I' for Inactive)
REMARK    1  A    between atoms: C_4  and  C_5
REMARK                            x       y       z     vdW  Elec       q    Type
REMARK                         _______ _______ _______ _____ _____    ______ ____
ROOT
ATOM      1  O   UNL     1       0.753   4.310  17.330  0.00  0.00    +0.000 OA
ATOM      2  C   UNL     1       1.867   4.019  17.745  0.00  0.00    +0.000 A 
ATOM      3  N   UNL     1       2.995   4.161  16.981  0.00  0.00    +0.000 N 
ATOM      4  C   UNL     1       4.253   3.841  17.424  0.00  0.00    +0.000 A 
ATOM      5  N   UNL     1       4.488   3.357  18.601  0.00  0.00    +0.000 NA
ATOM      6  C   UNL     1       3.398   3.178  19.468  0.00  0.00    +0.000 A 
ATOM      7  C   UNL     1       3.634   2.684  20.753  0.00  0.00    +0.000 A 
ATOM      8  C   UNL     1       2.580   2.520  21.656  0.00  0.00    +0.000 A 
ATOM      9  C   UNL     1       1.276   2.848  21.280  0.00  0.00    +0.000 A 
ATOM     10  C   UNL     1       1.023   3.336  19.999  0.00  0.00    +0.000 A 
ATOM     11  C   UNL     1       2.086   3.496  19.104  0.00  0.00    +0.000 A 
ATOM     12  H   UNL     1       2.877   4.529  16.047  0.00  0.00    +0.000 HD
ENDROOT
BRANCH   4  13
ATOM     13  C   UNL     1       5.335   4.081  16.505  0.00  0.00    +0.000 A 
ATOM     14  C   UNL     1       6.591   4.626  16.693  0.00  0.00    +0.000 A 
ATOM     15  C   UNL     1       7.223   4.641  15.426  0.00  0.00    +0.000 A 
ATOM     16  C   UNL     1       6.317   4.108  14.540  0.00  0.00    +0.000 A 
ATOM     17 BR   UNL     1       6.606   3.889  12.711  0.00  0.00    +0.000 Br
ATOM     18  O   UNL     1       5.169   3.760  15.183  0.00  0.00    +0.000 OA
ENDBRANCH   4  13
TORSDOF 1
ENDMDL
MODEL 5
REMARK VINA RESULT:      -7.3      1.540      1.761
REMARK  Name = 
REMARK  1 active torsions:
REMARK  status: ('A' for Active; 'I' for Inactive)
REMARK    1  A    between atoms: C_4  and  C_5
REMARK                            x       y       z     vdW  Elec       q    Type
REMARK                         _______ _______ _______ _____ _____    ______ ____
ROOT
ATOM      1  O   UNL     1       4.095   2.448  19.738  0.00  0.00    +0.000 OA
ATOM      2  C   UNL     1       4.113   3.467  19.059  0.00  0.00    +0.000 A 
ATOM      3  N   UNL     1       4.851   3.569  17.910  0.00  0.00    +0.000 N 
ATOM      4  C   UNL     1       4.887   4.699  17.133  0.00  0.00    +0.000 A 
ATOM      5  N   UNL     1       4.240   5.781  17.426  0.00  0.00    +0.000 NA
ATOM      6  C   UNL     1       3.446   5.778  18.583  0.00  0.00    +0.000 A 
ATOM      7  C   UNL     1       2.717   6.927  18.901  0.00  0.00    +0.000 A 
ATOM      8  C   UNL     1       1.891   6.955  20.028  0.00  0.00    +0.000 A 
ATOM      9  C   UNL     1       1.787   5.832  20.851  0.00  0.00    +0.000 A 
ATOM     10  C   UNL     1       2.514   4.681  20.551  0.00  0.00    +0.000 A 
ATOM     11  C   UNL     1       3.337   4.664  19.421  0.00  0.00    +0.000 A 
ATOM     12  H   UNL     1       5.385   2.757  17.630  0.00  0.00    +0.000 HD
ENDROOT
BRANCH   4  13
ATOM     13  C   UNL     1       5.689   4.628  15.939  0.00  0.00    +0.000 A 
ATOM     14  C   UNL     1       6.909   5.193  15.622  0.00  0.00    +0.000 A 
ATOM     15  C   UNL     1       7.207   4.803  14.294  0.00  0.00    +0.000 A 
ATOM     16  C   UNL     1       6.151   4.026  13.878  0.00  0.00    +0.000 A 
ATOM     17 BR   UNL     1       5.995   3.240  12.194  0.00  0.00    +0.000 Br
ATOM     18  O   UNL     1       5.225   3.908  14.869  0.00  0.00    +0.000 OA
ENDBRANCH   4  13
TORSDOF 1
ENDMDL
MODEL 6
REMARK VINA RESULT:      -7.1      5.355      6.635
REMARK  Name = 
REMARK  1 active torsions:
REMARK  status: ('A' for Active; 'I' for Inactive)
REMARK    1  A    between atoms: C_4  and  C_5
REMARK                            x       y       z     vdW  Elec       q    Type
REMARK                         _______ _______ _______ _____ _____    ______ ____
ROOT
ATOM      1  O   UNL     1       8.315   5.131  19.778  0.00  0.00    +0.000 OA
ATOM      2  C   UNL     1       7.927   5.972  18.977  0.00  0.00    +0.000 A 
ATOM      3  N   UNL     1       8.363   7.270  19.007  0.00  0.00    +0.000 N 
ATOM      4  C   UNL     1       7.943   8.229  18.121  0.00  0.00    +0.000 A 
ATOM      5  N   UNL     1       7.079   7.999  17.185  0.00  0.00    +0.000 NA
ATOM      6  C   UNL     1       6.574   6.695  17.063  0.00  0.00    +0.000 A 
ATOM      7  C   UNL     1       5.662   6.420  16.041  0.00  0.00    +0.000 A 
ATOM      8  C   UNL     1       5.159   5.127  15.867  0.00  0.00    +0.000 A 
ATOM      9  C   UNL     1       5.561   4.096  16.718  0.00  0.00    +0.000 A 
ATOM     10  C   UNL     1       6.465   4.357  17.748  0.00  0.00    +0.000 A 
ATOM     11  C   UNL     1       6.962   5.654  17.911  0.00  0.00    +0.000 A 
ATOM     12  H   UNL     1       9.036   7.515  19.721  0.00  0.00    +0.000 HD
ENDROOT
BRANCH   4  13
ATOM     13  C   UNL     1       8.525   9.537  18.271  0.00  0.00    +0.000 A 
ATOM     14  C   UNL     1       8.342  10.707  17.559  0.00  0.00    +0.000 A 
ATOM     15  C   UNL     1       9.197  11.676  18.139  0.00  0.00    +0.000 A 
ATOM     16  C   UNL     1       9.852  11.041  19.168  0.00  0.00    +0.000 A 
ATOM     17 BR   UNL     1      11.118  11.833  20.284  0.00  0.00    +0.000 Br
ATOM     18  O   UNL     1       9.450   9.744  19.262  0.00  0.00    +0.000 OA
ENDBRANCH   4  13
TORSDOF 1
ENDMDL
MODEL 7
REMARK VINA RESULT:      -7.0      2.039      2.888
REMARK  Name = 
REMARK  1 active torsions:
REMARK  status: ('A' for Active; 'I' for Inactive)
REMARK    1  A    between atoms: C_4  and  C_5
REMARK                            x       y       z     vdW  Elec       q    Type
REMARK                         _______ _______ _______ _____ _____    ______ ____
ROOT
ATOM      1  O   UNL     1       3.044   8.163  18.006  0.00  0.00    +0.000 OA
ATOM      2  C   UNL     1       3.383   6.989  17.933  0.00  0.00    +0.000 A 
ATOM      3  N   UNL     1       4.236   6.531  16.964  0.00  0.00    +0.000 N 
ATOM      4  C   UNL     1       4.630   5.221  16.862  0.00  0.00    +0.000 A 
ATOM      5  N   UNL     1       4.217   4.292  17.663  0.00  0.00    +0.000 NA
ATOM      6  C   UNL     1       3.342   4.659  18.698  0.00  0.00    +0.000 A 
ATOM      7  C   UNL     1       2.907   3.676  19.590  0.00  0.00    +0.000 A 
ATOM      8  C   UNL     1       2.061   4.006  20.653  0.00  0.00    +0.000 A 
ATOM      9  C   UNL     1       1.638   5.324  20.831  0.00  0.00    +0.000 A 
ATOM     10  C   UNL     1       2.059   6.315  19.945  0.00  0.00    +0.000 A 
ATOM     11  C   UNL     1       2.906   5.974  18.886  0.00  0.00    +0.000 A 
ATOM     12  H   UNL     1       4.590   7.208  16.302  0.00  0.00    +0.000 HD
ENDROOT
BRANCH   4  13
ATOM     13  C   UNL     1       5.557   4.913  15.804  0.00  0.00    +0.000 A 
ATOM     14  C   UNL     1       6.900   5.203  15.651  0.00  0.00    +0.000 A 
ATOM     15  C   UNL     1       7.291   4.673  14.398  0.00  0.00    +0.000 A 
ATOM     16  C   UNL     1       6.167   4.093  13.860  0.00  0.00    +0.000 A 
ATOM     17 BR   UNL     1       6.087   3.240  12.203  0.00  0.00    +0.000 Br
ATOM     18  O   UNL     1       5.109   4.228  14.705  0.00  0.00    +0.000 OA
ENDBRANCH   4  13
TORSDOF 1
ENDMDL
MODEL 8
REMARK VINA RESULT:      -6.9      2.580      3.169
REMARK  Name = 
REMARK  1 active torsions:
REMARK  status: ('A' for Active; 'I' for Inactive)
REMARK    1  A    between atoms: C_4  and  C_5
REMARK                            x       y       z     vdW  Elec       q    Type
REMARK                         _______ _______ _______ _____ _____    ______ ____
ROOT
ATOM      1  O   UNL     1       0.959   4.196  17.089  0.00  0.00    +0.000 OA
ATOM      2  C   UNL     1       1.952   4.185  17.803  0.00  0.00    +0.000 A 
ATOM      3  N   UNL     1       3.156   4.694  17.394  0.00  0.00    +0.000 N 
ATOM      4  C   UNL     1       4.283   4.693  18.176  0.00  0.00    +0.000 A 
ATOM      5  N   UNL     1       4.316   4.192  19.370  0.00  0.00    +0.000 NA
ATOM      6  C   UNL     1       3.129   3.651  19.888  0.00  0.00    +0.000 A 
ATOM      7  C   UNL     1       3.137   3.132  21.185  0.00  0.00    +0.000 A 
ATOM      8  C   UNL     1       1.969   2.611  21.750  0.00  0.00    +0.000 A 
ATOM      9  C   UNL     1       0.779   2.602  21.018  0.00  0.00    +0.000 A 
ATOM     10  C   UNL     1       0.757   3.110  19.720  0.00  0.00    +0.000 A 
ATOM     11  C   UNL     1       1.932   3.629  19.166  0.00  0.00    +0.000 A 
ATOM     12  H   UNL     1       3.197   5.094  16.466  0.00  0.00    +0.000 HD
ENDROOT
BRANCH   4  13
ATOM     13  C   UNL     1       5.458   5.296  17.605  0.00  0.00    +0.000 A 
ATOM     14  C   UNL     1       6.314   4.867  16.608  0.00  0.00    +0.000 A 
ATOM     15  C   UNL     1       7.318   5.858  16.478  0.00  0.00    +0.000 A 
ATOM     16  C   UNL     1       7.017   6.830  17.403  0.00  0.00    +0.000 A 
ATOM     17 BR   UNL     1       8.010   8.383  17.689  0.00  0.00    +0.000 Br
ATOM     18  O   UNL     1       5.889   6.503  18.090  0.00  0.00    +0.000 OA
ENDBRANCH   4  13
TORSDOF 1
ENDMDL
MODEL 9
REMARK VINA RESULT:      -6.9      3.002      6.574
REMARK  Name = 
REMARK  1 active torsions:
REMARK  status: ('A' for Active; 'I' for Inactive)
REMARK    1  A    between atoms: C_4  and  C_5
REMARK                            x       y       z     vdW  Elec       q    Type
REMARK                         _______ _______ _______ _____ _____    ______ ____
ROOT
ATOM      1  O   UNL     1       7.664   6.380  16.486  0.00  0.00    +0.000 OA
ATOM      2  C   UNL     1       6.882   5.510  16.126  0.00  0.00    +0.000 A 
ATOM      3  N   UNL     1       5.956   4.960  16.973  0.00  0.00    +0.000 N 
ATOM      4  C   UNL     1       5.070   3.984  16.593  0.00  0.00    +0.000 A 
ATOM      5  N   UNL     1       5.040   3.480  15.402  0.00  0.00    +0.000 NA
ATOM      6  C   UNL     1       5.945   3.981  14.453  0.00  0.00    +0.000 A 
ATOM      7  C   UNL     1       5.908   3.470  13.153  0.00  0.00    +0.000 A 
ATOM      8  C   UNL     1       6.772   3.963  12.171  0.00  0.00    +0.000 A 
ATOM      9  C   UNL     1       7.684   4.973  12.481  0.00  0.00    +0.000 A 
ATOM     10  C   UNL     1       7.738   5.489  13.776  0.00  0.00    +0.000 A 
ATOM     11  C   UNL     1       6.868   4.988  14.750  0.00  0.00    +0.000 A 
ATOM     12  H   UNL     1       5.934   5.308  17.922  0.00  0.00    +0.000 HD
ENDROOT
BRANCH   4  13
ATOM     13  C   UNL     1       4.142   3.538  17.599  0.00  0.00    +0.000 A 
ATOM     14  C   UNL     1       3.559   2.305  17.823  0.00  0.00    +0.000 A 
ATOM     15  C   UNL     1       2.705   2.454  18.943  0.00  0.00    +0.000 A 
ATOM     16  C   UNL     1       2.815   3.768  19.334  0.00  0.00    +0.000 A 
ATOM     17 BR   UNL     1       1.899   4.542  20.763  0.00  0.00    +0.000 Br
ATOM     18  O   UNL     1       3.686   4.435  18.530  0.00  0.00    +0.000 OA
ENDBRANCH   4  13
TORSDOF 1
ENDMDL
