MODEL 1
REMARK VINA RESULT:      -7.3      0.000      0.000
REMARK  Name = 
REMARK  4 active torsions:
REMARK  status: ('A' for Active; 'I' for Inactive)
REMARK    1  A    between atoms: C_2  and  C_4
REMARK    2  A    between atoms: C_4  and  C_5
REMARK    3  A    between atoms: N_12  and  C_13
REMARK    4  A    between atoms: C_13  and  C_14
REMARK                            x       y       z     vdW  Elec       q    Type
REMARK                         _______ _______ _______ _____ _____    ______ ____
ROOT
ATOM      1  C   UNL     1       7.284   6.327  17.810  0.00  0.00    +0.000 A 
ATOM      2  N   UNL     1       7.713   6.156  16.533  0.00  0.00    +0.000 NA
ATOM      3  C   UNL     1       6.984   5.391  15.690  0.00  0.00    +0.000 A 
ATOM      4  N   UNL     1       7.470   5.216  14.397  0.00  0.00    +0.000 N 
ATOM      5  C   UNL     1       5.806   4.817  16.163  0.00  0.00    +0.000 A 
ATOM      6  N   UNL     1       4.885   3.975  15.601  0.00  0.00    +0.000 NA
ATOM      7  N   UNL     1       3.921   3.774  16.490  0.00  0.00    +0.000 NA
ATOM      8  N   UNL     1       4.206   4.522  17.579  0.00  0.00    +0.000 N 
ATOM      9  C   UNL     1       5.423   5.140  17.454  0.00  0.00    +0.000 A 
ATOM     10  N   UNL     1       6.102   5.900  18.333  0.00  0.00    +0.000 NA
ATOM     11  H   UNL     1       8.462   5.401  14.340  0.00  0.00    +0.000 HD
ATOM     12  H   UNL     1       7.132   4.376  13.938  0.00  0.00    +0.000 HD
ENDROOT
BRANCH   1  13
ATOM     13  C   UNL     1       8.206   7.107  18.708  0.00  0.00    +0.000 C 
BRANCH  13  15
ATOM     14  N   UNL     1       7.412   8.955  17.329  0.00  0.00    +0.000 N 
ATOM     15  C   UNL     1       8.271   8.570  18.325  0.00  0.00    +0.000 C 
ATOM     16  O   UNL     1       8.979   9.412  18.869  0.00  0.00    +0.000 OA
ATOM     17  H   UNL     1       7.433   9.929  17.048  0.00  0.00    +0.000 HD
ATOM     18  H   UNL     1       6.773   8.331  16.860  0.00  0.00    +0.000 HD
ENDBRANCH  13  15
ENDBRANCH   1  13
BRANCH   8  19
ATOM     19  C   UNL     1       3.239   4.610  18.651  0.00  0.00    +0.000 C 
BRANCH  19  20
ATOM     20  C   UNL     1       2.386   3.333  18.782  0.00  0.00    +0.000 C 
ATOM     21  C   UNL     1       1.066   3.515  19.537  0.00  0.00    +0.000 C 
ATOM     22  C   UNL     1       1.274   3.730  21.030  0.00  0.00    +0.000 C 
ATOM     23  C   UNL     1       2.251   2.723  21.628  0.00  0.00    +0.000 C 
ATOM     24  C   UNL     1       3.465   2.456  20.748  0.00  0.00    +0.000 C 
ATOM     25  O   UNL     1       3.121   2.254  19.381  0.00  0.00    +0.000 OA
ENDBRANCH  19  20
ENDBRANCH   8  19
TORSDOF 4
ENDMDL
MODEL 2
REMARK VINA RESULT:      -7.3      3.137      5.233
REMARK  Name = 
REMARK  4 active torsions:
REMARK  status: ('A' for Active; 'I' for Inactive)
REMARK    1  A    between atoms: C_2  and  C_4
REMARK    2  A    between atoms: C_4  and  C_5
REMARK    3  A    between atoms: N_12  and  C_13
REMARK    4  A    between atoms: C_13  and  C_14
REMARK                            x       y       z     vdW  Elec       q    Type
REMARK                         _______ _______ _______ _____ _____    ______ ____
ROOT
ATOM      1  C   UNL     1       5.966   3.595  12.871  0.00  0.00    +0.000 A 
ATOM      2  N   UNL     1       7.068   4.335  12.585  0.00  0.00    +0.000 NA
ATOM      3  C   UNL     1       7.608   5.113  13.550  0.00  0.00    +0.000 A 
ATOM      4  N   UNL     1       8.721   5.878  13.212  0.00  0.00    +0.000 N 
ATOM      5  C   UNL     1       7.017   5.114  14.811  0.00  0.00    +0.000 A 
ATOM      6  N   UNL     1       7.276   5.804  15.965  0.00  0.00    +0.000 NA
ATOM      7  N   UNL     1       6.424   5.384  16.891  0.00  0.00    +0.000 NA
ATOM      8  N   UNL     1       5.672   4.404  16.341  0.00  0.00    +0.000 N 
ATOM      9  C   UNL     1       5.955   4.248  15.009  0.00  0.00    +0.000 A 
ATOM     10  N   UNL     1       5.382   3.446  14.091  0.00  0.00    +0.000 NA
ATOM     11  H   UNL     1       8.792   6.017  12.213  0.00  0.00    +0.000 HD
ATOM     12  H   UNL     1       8.857   6.694  13.801  0.00  0.00    +0.000 HD
ENDROOT
BRANCH   1  13
ATOM     13  C   UNL     1       5.371   2.838  11.713  0.00  0.00    +0.000 C 
BRANCH  13  15
ATOM     14  N   UNL     1       7.531   1.817  11.223  0.00  0.00    +0.000 N 
ATOM     15  C   UNL     1       6.184   1.610  11.359  0.00  0.00    +0.000 C 
ATOM     16  O   UNL     1       5.732   0.475  11.246  0.00  0.00    +0.000 OA
ATOM     17  H   UNL     1       8.102   1.014  10.984  0.00  0.00    +0.000 HD
ATOM     18  H   UNL     1       7.982   2.712  11.338  0.00  0.00    +0.000 HD
ENDBRANCH  13  15
ENDBRANCH   1  13
BRANCH   8  19
ATOM     19  C   UNL     1       4.756   3.659  17.178  0.00  0.00    +0.000 C 
BRANCH  19  20
ATOM     20  C   UNL     1       3.318   4.209  17.113  0.00  0.00    +0.000 C 
ATOM     21  C   UNL     1       2.902   5.065  18.312  0.00  0.00    +0.000 C 
ATOM     22  C   UNL     1       2.707   4.240  19.577  0.00  0.00    +0.000 C 
ATOM     23  C   UNL     1       1.870   2.989  19.327  0.00  0.00    +0.000 C 
ATOM     24  C   UNL     1       2.217   2.274  18.028  0.00  0.00    +0.000 C 
ATOM     25  O   UNL     1       2.350   3.166  16.926  0.00  0.00    +0.000 OA
ENDBRANCH  19  20
ENDBRANCH   8  19
TORSDOF 4
ENDMDL
MODEL 3
REMARK VINA RESULT:      -7.3      2.408      3.917
REMARK  Name = 
REMARK  4 active torsions:
REMARK  status: ('A' for Active; 'I' for Inactive)
REMARK    1  A    between atoms: C_2  and  C_4
REMARK    2  A    between atoms: C_4  and  C_5
REMARK    3  A    between atoms: N_12  and  C_13
REMARK    4  A    between atoms: C_13  and  C_14
REMARK                            x       y       z     vdW  Elec       q    Type
REMARK                         _______ _______ _______ _____ _____    ______ ____
ROOT
ATOM      1  C   UNL     1       5.563   4.640  15.016  0.00  0.00    +0.000 A 
ATOM      2  N   UNL     1       6.517   5.583  15.229  0.00  0.00    +0.000 NA
ATOM      3  C   UNL     1       6.819   5.940  16.497  0.00  0.00    +0.000 A 
ATOM      4  N   UNL     1       7.782   6.930  16.675  0.00  0.00    +0.000 N 
ATOM      5  C   UNL     1       6.146   5.313  17.543  0.00  0.00    +0.000 A 
ATOM      6  N   UNL     1       6.177   5.470  18.902  0.00  0.00    +0.000 NA
ATOM      7  N   UNL     1       5.357   4.574  19.435  0.00  0.00    +0.000 NA
ATOM      8  N   UNL     1       4.855   3.827  18.425  0.00  0.00    +0.000 N 
ATOM      9  C   UNL     1       5.262   4.302  17.206  0.00  0.00    +0.000 A 
ATOM     10  N   UNL     1       4.930   3.898  15.965  0.00  0.00    +0.000 NA
ATOM     11  H   UNL     1       7.899   7.493  15.843  0.00  0.00    +0.000 HD
ATOM     12  H   UNL     1       7.710   7.424  17.558  0.00  0.00    +0.000 HD
ENDROOT
BRANCH   1  13
ATOM     13  C   UNL     1       5.218   4.376  13.575  0.00  0.00    +0.000 C 
BRANCH  13  15
ATOM     14  N   UNL     1       6.304   2.574  12.341  0.00  0.00    +0.000 N 
ATOM     15  C   UNL     1       6.407   3.864  12.790  0.00  0.00    +0.000 C 
ATOM     16  O   UNL     1       7.395   4.529  12.494  0.00  0.00    +0.000 OA
ATOM     17  H   UNL     1       7.085   2.202  11.813  0.00  0.00    +0.000 HD
ATOM     18  H   UNL     1       5.508   1.977  12.510  0.00  0.00    +0.000 HD
ENDBRANCH  13  15
ENDBRANCH   1  13
BRANCH   8  19
ATOM     19  C   UNL     1       4.044   2.670  18.735  0.00  0.00    +0.000 C 
BRANCH  19  20
ATOM     20  C   UNL     1       2.584   2.832  18.267  0.00  0.00    +0.000 C 
ATOM     21  C   UNL     1       2.064   4.272  18.268  0.00  0.00    +0.000 C 
ATOM     22  C   UNL     1       1.848   4.813  19.675  0.00  0.00    +0.000 C 
ATOM     23  C   UNL     1       1.091   3.829  20.561  0.00  0.00    +0.000 C 
ATOM     24  C   UNL     1       1.539   2.384  20.389  0.00  0.00    +0.000 C 
ATOM     25  O   UNL     1       1.681   2.010  19.023  0.00  0.00    +0.000 OA
ENDBRANCH  19  20
ENDBRANCH   8  19
TORSDOF 4
ENDMDL
MODEL 4
REMARK VINA RESULT:      -7.3      0.993      1.334
REMARK  Name = 
REMARK  4 active torsions:
REMARK  status: ('A' for Active; 'I' for Inactive)
REMARK    1  A    between atoms: C_2  and  C_4
REMARK    2  A    between atoms: C_4  and  C_5
REMARK    3  A    between atoms: N_12  and  C_13
REMARK    4  A    between atoms: C_13  and  C_14
REMARK                            x       y       z     vdW  Elec       q    Type
REMARK                         _______ _______ _______ _____ _____    ______ ____
ROOT
ATOM      1  C   UNL     1       7.470   6.412  17.851  0.00  0.00    +0.000 A 
ATOM      2  N   UNL     1       7.691   6.304  16.514  0.00  0.00    +0.000 NA
ATOM      3  C   UNL     1       7.009   5.377  15.806  0.00  0.00    +0.000 A 
ATOM      4  N   UNL     1       7.283   5.277  14.445  0.00  0.00    +0.000 N 
ATOM      5  C   UNL     1       6.091   4.572  16.476  0.00  0.00    +0.000 A 
ATOM      6  N   UNL     1       5.292   3.534  16.078  0.00  0.00    +0.000 NA
ATOM      7  N   UNL     1       4.571   3.151  17.123  0.00  0.00    +0.000 NA
ATOM      8  N   UNL     1       4.874   3.972  18.153  0.00  0.00    +0.000 N 
ATOM      9  C   UNL     1       5.883   4.838  17.819  0.00  0.00    +0.000 A 
ATOM     10  N   UNL     1       6.524   5.752  18.572  0.00  0.00    +0.000 NA
ATOM     11  H   UNL     1       8.184   5.673  14.213  0.00  0.00    +0.000 HD
ATOM     12  H   UNL     1       7.062   4.372  14.043  0.00  0.00    +0.000 HD
ENDROOT
BRANCH   1  13
ATOM     13  C   UNL     1       8.343   7.399  18.578  0.00  0.00    +0.000 C 
BRANCH  13  15
ATOM     14  N   UNL     1       7.031   9.011  17.301  0.00  0.00    +0.000 N 
ATOM     15  C   UNL     1       8.144   8.814  18.076  0.00  0.00    +0.000 C 
ATOM     16  O   UNL     1       8.861   9.769  18.356  0.00  0.00    +0.000 OA
ATOM     17  H   UNL     1       6.871   9.947  16.948  0.00  0.00    +0.000 HD
ATOM     18  H   UNL     1       6.374   8.285  17.059  0.00  0.00    +0.000 HD
ENDBRANCH  13  15
ENDBRANCH   1  13
BRANCH   8  19
ATOM     19  C   UNL     1       4.118   3.876  19.383  0.00  0.00    +0.000 C 
BRANCH  19  20
ATOM     20  C   UNL     1       2.891   4.809  19.395  0.00  0.00    +0.000 C 
ATOM     21  C   UNL     1       2.159   4.892  20.738  0.00  0.00    +0.000 C 
ATOM     22  C   UNL     1       1.400   3.613  21.067  0.00  0.00    +0.000 C 
ATOM     23  C   UNL     1       0.574   3.113  19.886  0.00  0.00    +0.000 C 
ATOM     24  C   UNL     1       1.297   3.215  18.550  0.00  0.00    +0.000 C 
ATOM     25  O   UNL     1       1.945   4.469  18.369  0.00  0.00    +0.000 OA
ENDBRANCH  19  20
ENDBRANCH   8  19
TORSDOF 4
ENDMDL
MODEL 5
REMARK VINA RESULT:      -7.1      3.201      5.318
REMARK  Name = 
REMARK  4 active torsions:
REMARK  status: ('A' for Active; 'I' for Inactive)
REMARK    1  A    between atoms: C_2  and  C_4
REMARK    2  A    between atoms: C_4  and  C_5
REMARK    3  A    between atoms: N_12  and  C_13
REMARK    4  A    between atoms: C_13  and  C_14
REMARK                            x       y       z     vdW  Elec       q    Type
REMARK                         _______ _______ _______ _____ _____    ______ ____
ROOT
ATOM      1  C   UNL     1       5.987   3.577  12.781  0.00  0.00    +0.000 A 
ATOM      2  N   UNL     1       7.108   4.299  12.521  0.00  0.00    +0.000 NA
ATOM      3  C   UNL     1       7.616   5.098  13.487  0.00  0.00    +0.000 A 
ATOM      4  N   UNL     1       8.750   5.843  13.175  0.00  0.00    +0.000 N 
ATOM      5  C   UNL     1       6.974   5.138  14.722  0.00  0.00    +0.000 A 
ATOM      6  N   UNL     1       7.193   5.856  15.867  0.00  0.00    +0.000 NA
ATOM      7  N   UNL     1       6.299   5.468  16.768  0.00  0.00    +0.000 NA
ATOM      8  N   UNL     1       5.560   4.481  16.213  0.00  0.00    +0.000 N 
ATOM      9  C   UNL     1       5.895   4.287  14.899  0.00  0.00    +0.000 A 
ATOM     10  N   UNL     1       5.353   3.467  13.979  0.00  0.00    +0.000 NA
ATOM     11  H   UNL     1       8.863   5.955  12.176  0.00  0.00    +0.000 HD
ATOM     12  H   UNL     1       8.870   6.673  13.747  0.00  0.00    +0.000 HD
ENDROOT
BRANCH   1  13
ATOM     13  C   UNL     1       5.433   2.795  11.620  0.00  0.00    +0.000 C 
BRANCH  13  15
ATOM     14  N   UNL     1       7.598   1.763  11.176  0.00  0.00    +0.000 N 
ATOM     15  C   UNL     1       6.252   1.556  11.326  0.00  0.00    +0.000 C 
ATOM     16  O   UNL     1       5.807   0.414  11.270  0.00  0.00    +0.000 OA
ATOM     17  H   UNL     1       8.173   0.953  10.977  0.00  0.00    +0.000 HD
ATOM     18  H   UNL     1       8.043   2.666  11.246  0.00  0.00    +0.000 HD
ENDBRANCH  13  15
ENDBRANCH   1  13
BRANCH   8  19
ATOM     19  C   UNL     1       4.604   3.768  17.031  0.00  0.00    +0.000 C 
BRANCH  19  20
ATOM     20  C   UNL     1       4.670   4.182  18.514  0.00  0.00    +0.000 C 
ATOM     21  C   UNL     1       4.413   3.050  19.511  0.00  0.00    +0.000 C 
ATOM     22  C   UNL     1       2.955   2.608  19.528  0.00  0.00    +0.000 C 
ATOM     23  C   UNL     1       1.995   3.791  19.599  0.00  0.00    +0.000 C 
ATOM     24  C   UNL     1       2.400   4.958  18.709  0.00  0.00    +0.000 C 
ATOM     25  O   UNL     1       3.784   5.274  18.809  0.00  0.00    +0.000 OA
ENDBRANCH  19  20
ENDBRANCH   8  19
TORSDOF 4
ENDMDL
MODEL 6
REMARK VINA RESULT:      -7.0      2.448      3.891
REMARK  Name = 
REMARK  4 active torsions:
REMARK  status: ('A' for Active; 'I' for Inactive)
REMARK    1  A    between atoms: C_2  and  C_4
REMARK    2  A    between atoms: C_4  and  C_5
REMARK    3  A    between atoms: N_12  and  C_13
REMARK    4  A    between atoms: C_13  and  C_14
REMARK                            x       y       z     vdW  Elec       q    Type
REMARK                         _______ _______ _______ _____ _____    ______ ____
ROOT
ATOM      1  C   UNL     1       6.820   5.007  15.426  0.00  0.00    +0.000 A 
ATOM      2  N   UNL     1       7.524   6.022  15.994  0.00  0.00    +0.000 NA
ATOM      3  C   UNL     1       7.247   6.382  17.268  0.00  0.00    +0.000 A 
ATOM      4  N   UNL     1       7.969   7.444  17.807  0.00  0.00    +0.000 N 
ATOM      5  C   UNL     1       6.257   5.686  17.956  0.00  0.00    +0.000 A 
ATOM      6  N   UNL     1       5.713   5.824  19.205  0.00  0.00    +0.000 NA
ATOM      7  N   UNL     1       4.822   4.855  19.370  0.00  0.00    +0.000 NA
ATOM      8  N   UNL     1       4.842   4.086  18.258  0.00  0.00    +0.000 N 
ATOM      9  C   UNL     1       5.675   4.611  17.305  0.00  0.00    +0.000 A 
ATOM     10  N   UNL     1       5.916   4.201  16.045  0.00  0.00    +0.000 NA
ATOM     11  H   UNL     1       8.372   8.028  17.086  0.00  0.00    +0.000 HD
ATOM     12  H   UNL     1       7.500   7.917  18.573  0.00  0.00    +0.000 HD
ENDROOT
BRANCH   1  13
ATOM     13  C   UNL     1       7.121   4.739  13.976  0.00  0.00    +0.000 C 
BRANCH  13  15
ATOM     14  N   UNL     1       6.495   2.836  12.586  0.00  0.00    +0.000 N 
ATOM     15  C   UNL     1       6.045   3.904  13.316  0.00  0.00    +0.000 C 
ATOM     16  O   UNL     1       4.837   4.086  13.438  0.00  0.00    +0.000 OA
ATOM     17  H   UNL     1       5.798   2.258  12.131  0.00  0.00    +0.000 HD
ATOM     18  H   UNL     1       7.468   2.598  12.471  0.00  0.00    +0.000 HD
ENDBRANCH  13  15
ENDBRANCH   1  13
BRANCH   8  19
ATOM     19  C   UNL     1       4.071   2.862  18.229  0.00  0.00    +0.000 C 
BRANCH  19  20
ATOM     20  C   UNL     1       2.707   3.042  17.534  0.00  0.00    +0.000 C 
ATOM     21  C   UNL     1       2.000   4.366  17.836  0.00  0.00    +0.000 C 
ATOM     22  C   UNL     1       1.470   4.431  19.262  0.00  0.00    +0.000 C 
ATOM     23  C   UNL     1       0.713   3.166  19.654  0.00  0.00    +0.000 C 
ATOM     24  C   UNL     1       1.381   1.884  19.176  0.00  0.00    +0.000 C 
ATOM     25  O   UNL     1       1.809   1.958  17.820  0.00  0.00    +0.000 OA
ENDBRANCH  19  20
ENDBRANCH   8  19
TORSDOF 4
ENDMDL
MODEL 7
REMARK VINA RESULT:      -7.0      2.602      3.510
REMARK  Name = 
REMARK  4 active torsions:
REMARK  status: ('A' for Active; 'I' for Inactive)
REMARK    1  A    between atoms: C_2  and  C_4
REMARK    2  A    between atoms: C_4  and  C_5
REMARK    3  A    between atoms: N_12  and  C_13
REMARK    4  A    between atoms: C_13  and  C_14
REMARK                            x       y       z     vdW  Elec       q    Type
REMARK                         _______ _______ _______ _____ _____    ______ ____
ROOT
ATOM      1  C   UNL     1       6.021   4.106  15.620  0.00  0.00    +0.000 A 
ATOM      2  N   UNL     1       7.272   4.086  16.148  0.00  0.00    +0.000 NA
ATOM      3  C   UNL     1       7.442   4.406  17.451  0.00  0.00    +0.000 A 
ATOM      4  N   UNL     1       8.742   4.401  17.950  0.00  0.00    +0.000 N 
ATOM      5  C   UNL     1       6.319   4.732  18.207  0.00  0.00    +0.000 A 
ATOM      6  N   UNL     1       6.151   5.138  19.504  0.00  0.00    +0.000 NA
ATOM      7  N   UNL     1       4.849   5.271  19.723  0.00  0.00    +0.000 NA
ATOM      8  N   UNL     1       4.204   4.902  18.594  0.00  0.00    +0.000 N 
ATOM      9  C   UNL     1       5.087   4.626  17.583  0.00  0.00    +0.000 A 
ATOM     10  N   UNL     1       4.857   4.305  16.296  0.00  0.00    +0.000 NA
ATOM     11  H   UNL     1       9.428   4.485  17.212  0.00  0.00    +0.000 HD
ATOM     12  H   UNL     1       8.873   4.987  18.768  0.00  0.00    +0.000 HD
ENDROOT
BRANCH   1  13
ATOM     13  C   UNL     1       5.934   3.836  14.141  0.00  0.00    +0.000 C 
BRANCH  13  15
ATOM     14  N   UNL     1       7.707   5.509  14.071  0.00  0.00    +0.000 N 
ATOM     15  C   UNL     1       7.015   4.560  13.366  0.00  0.00    +0.000 C 
ATOM     16  O   UNL     1       7.333   4.318  12.206  0.00  0.00    +0.000 OA
ATOM     17  H   UNL     1       8.437   6.012  13.578  0.00  0.00    +0.000 HD
ATOM     18  H   UNL     1       7.531   5.738  15.037  0.00  0.00    +0.000 HD
ENDBRANCH  13  15
ENDBRANCH   1  13
BRANCH   8  19
ATOM     19  C   UNL     1       2.760   4.806  18.602  0.00  0.00    +0.000 C 
BRANCH  19  20
ATOM     20  C   UNL     1       2.267   3.347  18.538  0.00  0.00    +0.000 C 
ATOM     21  C   UNL     1       0.798   3.147  18.921  0.00  0.00    +0.000 C 
ATOM     22  C   UNL     1       0.553   3.340  20.411  0.00  0.00    +0.000 C 
ATOM     23  C   UNL     1       1.573   2.593  21.264  0.00  0.00    +0.000 C 
ATOM     24  C   UNL     1       2.997   2.688  20.735  0.00  0.00    +0.000 C 
ATOM     25  O   UNL     1       3.079   2.467  19.331  0.00  0.00    +0.000 OA
ENDBRANCH  19  20
ENDBRANCH   8  19
TORSDOF 4
ENDMDL
MODEL 8
REMARK VINA RESULT:      -7.0      0.914      1.325
REMARK  Name = 
REMARK  4 active torsions:
REMARK  status: ('A' for Active; 'I' for Inactive)
REMARK    1  A    between atoms: C_2  and  C_4
REMARK    2  A    between atoms: C_4  and  C_5
REMARK    3  A    between atoms: N_12  and  C_13
REMARK    4  A    between atoms: C_13  and  C_14
REMARK                            x       y       z     vdW  Elec       q    Type
REMARK                         _______ _______ _______ _____ _____    ______ ____
ROOT
ATOM      1  C   UNL     1       7.284   6.483  17.748  0.00  0.00    +0.000 A 
ATOM      2  N   UNL     1       7.731   6.168  16.504  0.00  0.00    +0.000 NA
ATOM      3  C   UNL     1       6.963   5.394  15.705  0.00  0.00    +0.000 A 
ATOM      4  N   UNL     1       7.466   5.069  14.448  0.00  0.00    +0.000 N 
ATOM      5  C   UNL     1       5.731   4.959  16.186  0.00  0.00    +0.000 A 
ATOM      6  N   UNL     1       4.758   4.147  15.667  0.00  0.00    +0.000 NA
ATOM      7  N   UNL     1       3.758   4.102  16.538  0.00  0.00    +0.000 NA
ATOM      8  N   UNL     1       4.076   4.917  17.569  0.00  0.00    +0.000 N 
ATOM      9  C   UNL     1       5.342   5.422  17.432  0.00  0.00    +0.000 A 
ATOM     10  N   UNL     1       6.059   6.200  18.266  0.00  0.00    +0.000 NA
ATOM     11  H   UNL     1       8.472   5.168  14.409  0.00  0.00    +0.000 HD
ATOM     12  H   UNL     1       7.073   4.222  14.051  0.00  0.00    +0.000 HD
ENDROOT
BRANCH   1  13
ATOM     13  C   UNL     1       8.245   7.263  18.607  0.00  0.00    +0.000 C 
BRANCH  13  15
ATOM     14  N   UNL     1       7.369   9.114  17.282  0.00  0.00    +0.000 N 
ATOM     15  C   UNL     1       8.253   8.736  18.258  0.00  0.00    +0.000 C 
ATOM     16  O   UNL     1       8.939   9.588  18.814  0.00  0.00    +0.000 OA
ATOM     17  H   UNL     1       7.352  10.094  17.025  0.00  0.00    +0.000 HD
ATOM     18  H   UNL     1       6.745   8.479  16.806  0.00  0.00    +0.000 HD
ENDBRANCH  13  15
ENDBRANCH   1  13
BRANCH   8  19
ATOM     19  C   UNL     1       3.091   5.175  18.597  0.00  0.00    +0.000 C 
BRANCH  19  20
ATOM     20  C   UNL     1       3.410   4.442  19.916  0.00  0.00    +0.000 C 
ATOM     21  C   UNL     1       3.567   2.925  19.787  0.00  0.00    +0.000 C 
ATOM     22  C   UNL     1       2.242   2.222  19.523  0.00  0.00    +0.000 C 
ATOM     23  C   UNL     1       1.138   2.702  20.460  0.00  0.00    +0.000 C 
ATOM     24  C   UNL     1       1.140   4.208  20.683  0.00  0.00    +0.000 C 
ATOM     25  O   UNL     1       2.442   4.726  20.938  0.00  0.00    +0.000 OA
ENDBRANCH  19  20
ENDBRANCH   8  19
TORSDOF 4
ENDMDL
MODEL 9
REMARK VINA RESULT:      -7.0      2.309      3.607
REMARK  Name = 
REMARK  4 active torsions:
REMARK  status: ('A' for Active; 'I' for Inactive)
REMARK    1  A    between atoms: C_2  and  C_4
REMARK    2  A    between atoms: C_4  and  C_5
REMARK    3  A    between atoms: N_12  and  C_13
REMARK    4  A    between atoms: C_13  and  C_14
REMARK                            x       y       z     vdW  Elec       q    Type
REMARK                         _______ _______ _______ _____ _____    ______ ____
ROOT
ATOM      1  C   UNL     1       5.988   4.764  15.865  0.00  0.00    +0.000 A 
ATOM      2  N   UNL     1       6.747   5.851  16.162  0.00  0.00    +0.000 NA
ATOM      3  C   UNL     1       6.211   6.849  16.899  0.00  0.00    +0.000 A 
ATOM      4  N   UNL     1       7.010   7.959  17.159  0.00  0.00    +0.000 N 
ATOM      5  C   UNL     1       4.896   6.716  17.341  0.00  0.00    +0.000 A 
ATOM      6  N   UNL     1       4.060   7.538  18.046  0.00  0.00    +0.000 NA
ATOM      7  N   UNL     1       2.916   6.892  18.234  0.00  0.00    +0.000 NA
ATOM      8  N   UNL     1       3.051   5.658  17.698  0.00  0.00    +0.000 N 
ATOM      9  C   UNL     1       4.254   5.523  17.056  0.00  0.00    +0.000 A 
ATOM     10  N   UNL     1       4.740   4.494  16.336  0.00  0.00    +0.000 NA
ATOM     11  H   UNL     1       7.770   8.037  16.497  0.00  0.00    +0.000 HD
ATOM     12  H   UNL     1       6.490   8.805  17.364  0.00  0.00    +0.000 HD
ENDROOT
BRANCH   1  13
ATOM     13  C   UNL     1       6.629   3.749  14.957  0.00  0.00    +0.000 C 
BRANCH  13  15
ATOM     14  N   UNL     1       7.574   5.360  13.388  0.00  0.00    +0.000 N 
ATOM     15  C   UNL     1       6.769   4.263  13.539  0.00  0.00    +0.000 C 
ATOM     16  O   UNL     1       6.267   3.741  12.548  0.00  0.00    +0.000 OA
ATOM     17  H   UNL     1       7.687   5.728  12.451  0.00  0.00    +0.000 HD
ATOM     18  H   UNL     1       8.051   5.821  14.148  0.00  0.00    +0.000 HD
ENDBRANCH  13  15
ENDBRANCH   1  13
BRANCH   8  19
ATOM     19  C   UNL     1       2.001   4.682  17.894  0.00  0.00    +0.000 C 
BRANCH  19  20
ATOM     20  C   UNL     1       2.522   3.372  18.518  0.00  0.00    +0.000 C 
ATOM     21  C   UNL     1       1.447   2.319  18.795  0.00  0.00    +0.000 C 
ATOM     22  C   UNL     1       0.539   2.705  19.955  0.00  0.00    +0.000 C 
ATOM     23  C   UNL     1       1.327   3.190  21.168  0.00  0.00    +0.000 C 
ATOM     24  C   UNL     1       2.493   4.102  20.812  0.00  0.00    +0.000 C 
ATOM     25  O   UNL     1       3.266   3.608  19.723  0.00  0.00    +0.000 OA
ENDBRANCH  19  20
ENDBRANCH   8  19
TORSDOF 4
ENDMDL
