MODEL 1
REMARK VINA RESULT:      -7.3      0.000      0.000
REMARK  Name = 
REMARK  7 active torsions:
REMARK  status: ('A' for Active; 'I' for Inactive)
REMARK    1  A    between atoms: C_1  and  C_2
REMARK    2  A    between atoms: C_2  and  C_3
REMARK    3  A    between atoms: C_2  and  C_4
REMARK    4  A    between atoms: C_7  and  N_8
REMARK    5  A    between atoms: N_14  and  C_15
REMARK    6  A    between atoms: C_15  and  C_16
REMARK    7  A    between atoms: C_15  and  C_22
REMARK                            x       y       z     vdW  Elec       q    Type
REMARK                         _______ _______ _______ _____ _____    ______ ____
ROOT
ATOM      1  N   UNL     1       1.562   9.682  19.539  0.00  0.00    +0.000 N 
ATOM      2  C   UNL     1       0.634  10.405  18.829  0.00  0.00    +0.000 C 
ATOM      3  O   UNL     1      -0.215   9.912  18.089  0.00  0.00    +0.000 OA
ATOM      4  N   UNL     1       0.668  11.774  19.042  0.00  0.00    +0.000 N 
ATOM      5  C   UNL     1      -0.423  12.576  18.487  0.00  0.00    +0.000 C 
ATOM      6  C   UNL     1      -0.890  13.633  19.507  0.00  0.00    +0.000 C 
ATOM      7  N   UNL     1       0.197  14.516  20.033  0.00  0.00    +0.000 NA
ATOM      8  C   UNL     1       1.252  13.619  20.572  0.00  0.00    +0.000 C 
ATOM      9  C   UNL     1       1.777  12.557  19.591  0.00  0.00    +0.000 C 
ATOM     10  H   UNL     1       1.958  10.138  20.347  0.00  0.00    +0.000 HD
ENDROOT
BRANCH   1  14
ATOM     11  C   UNL     1       2.216   5.511  19.248  0.00  0.00    +0.000 A 
ATOM     12  C   UNL     1       1.704   6.058  20.431  0.00  0.00    +0.000 A 
ATOM     13  C   UNL     1       1.471   7.428  20.546  0.00  0.00    +0.000 A 
ATOM     14  C   UNL     1       1.757   8.287  19.485  0.00  0.00    +0.000 A 
ATOM     15  C   UNL     1       2.257   7.749  18.296  0.00  0.00    +0.000 A 
ATOM     16  C   UNL     1       2.482   6.374  18.178  0.00  0.00    +0.000 A 
BRANCH  11  18
ATOM     17  C   UNL     1       1.223   3.324  19.880  0.00  0.00    +0.000 C 
ATOM     18  C   UNL     1       2.380   4.005  19.147  0.00  0.00    +0.000 C 
ATOM     19  C   UNL     1       2.499   3.483  17.714  0.00  0.00    +0.000 C 
ENDBRANCH  11  18
ENDBRANCH   1  14
BRANCH   7  20
ATOM     20  C   UNL     1       0.674  15.477  18.988  0.00  0.00    +0.000 C 
BRANCH  20  21
ATOM     21  C   UNL     1       2.054  16.089  19.251  0.00  0.00    +0.000 A 
ATOM     22  C   UNL     1       2.314  16.986  20.301  0.00  0.00    +0.000 A 
ATOM     23  C   UNL     1       3.604  17.482  20.511  0.00  0.00    +0.000 A 
ATOM     24  C   UNL     1       4.639  17.121  19.648  0.00  0.00    +0.000 A 
ATOM     25 CL   UNL     1       6.228  17.719  19.925  0.00  0.00    +0.000 Cl
ATOM     26  C   UNL     1       4.394  16.280  18.570  0.00  0.00    +0.000 A 
ATOM     27  C   UNL     1       3.111  15.776  18.382  0.00  0.00    +0.000 A 
ATOM     28  F   UNL     1       2.891  14.963  17.338  0.00  0.00    +0.000 F 
ENDBRANCH  20  21
BRANCH  20  29
ATOM     29  C   UNL     1      -0.344  16.579  18.771  0.00  0.00    +0.000 A 
ATOM     30  C   UNL     1      -0.318  17.424  17.675  0.00  0.00    +0.000 A 
ATOM     31  N   UNL     1      -1.173  18.448  17.492  0.00  0.00    +0.000 NA
ATOM     32  C   UNL     1      -2.081  18.626  18.461  0.00  0.00    +0.000 A 
ATOM     33  N   UNL     1      -2.211  17.879  19.568  0.00  0.00    +0.000 NA
ATOM     34  C   UNL     1      -1.334  16.862  19.694  0.00  0.00    +0.000 A 
ENDBRANCH  20  29
ENDBRANCH   7  20
TORSDOF 5
ENDMDL
MODEL 2
REMARK VINA RESULT:      -7.2      0.189      1.187
REMARK  Name = 
REMARK  7 active torsions:
REMARK  status: ('A' for Active; 'I' for Inactive)
REMARK    1  A    between atoms: C_1  and  C_2
REMARK    2  A    between atoms: C_2  and  C_3
REMARK    3  A    between atoms: C_2  and  C_4
REMARK    4  A    between atoms: C_7  and  N_8
REMARK    5  A    between atoms: N_14  and  C_15
REMARK    6  A    between atoms: C_15  and  C_16
REMARK    7  A    between atoms: C_15  and  C_22
REMARK                            x       y       z     vdW  Elec       q    Type
REMARK                         _______ _______ _______ _____ _____    ______ ____
ROOT
ATOM      1  N   UNL     1       1.650   9.568  19.456  0.00  0.00    +0.000 N 
ATOM      2  C   UNL     1       0.689  10.302  18.803  0.00  0.00    +0.000 C 
ATOM      3  O   UNL     1      -0.186   9.820  18.085  0.00  0.00    +0.000 OA
ATOM      4  N   UNL     1       0.721  11.664  19.051  0.00  0.00    +0.000 N 
ATOM      5  C   UNL     1      -0.397  12.471  18.562  0.00  0.00    +0.000 C 
ATOM      6  C   UNL     1      -0.830  13.497  19.628  0.00  0.00    +0.000 C 
ATOM      7  N   UNL     1       0.271  14.375  20.133  0.00  0.00    +0.000 NA
ATOM      8  C   UNL     1       1.354  13.473  20.604  0.00  0.00    +0.000 C 
ATOM      9  C   UNL     1       1.846  12.442  19.575  0.00  0.00    +0.000 C 
ATOM     10  H   UNL     1       2.075  10.005  20.259  0.00  0.00    +0.000 HD
ENDROOT
BRANCH   1  14
ATOM     11  C   UNL     1       2.194   5.374  19.285  0.00  0.00    +0.000 A 
ATOM     12  C   UNL     1       2.495   6.165  18.169  0.00  0.00    +0.000 A 
ATOM     13  C   UNL     1       2.333   7.550  18.206  0.00  0.00    +0.000 A 
ATOM     14  C   UNL     1       1.853   8.176  19.356  0.00  0.00    +0.000 A 
ATOM     15  C   UNL     1       1.561   7.397  20.478  0.00  0.00    +0.000 A 
ATOM     16  C   UNL     1       1.731   6.009  20.444  0.00  0.00    +0.000 A 
BRANCH  11  18
ATOM     17  C   UNL     1       1.352   3.141  19.973  0.00  0.00    +0.000 C 
ATOM     18  C   UNL     1       2.459   3.880  19.219  0.00  0.00    +0.000 C 
ATOM     19  C   UNL     1       2.607   3.333  17.798  0.00  0.00    +0.000 C 
ENDBRANCH  11  18
ENDBRANCH   1  14
BRANCH   7  20
ATOM     20  C   UNL     1       0.699  15.368  19.095  0.00  0.00    +0.000 C 
BRANCH  20  21
ATOM     21  C   UNL     1       2.089  15.973  19.310  0.00  0.00    +0.000 A 
ATOM     22  C   UNL     1       2.391  16.866  20.352  0.00  0.00    +0.000 A 
ATOM     23  C   UNL     1       3.690  17.356  20.518  0.00  0.00    +0.000 A 
ATOM     24  C   UNL     1       4.692  16.992  19.618  0.00  0.00    +0.000 A 
ATOM     25 CL   UNL     1       6.292  17.582  19.840  0.00  0.00    +0.000 Cl
ATOM     26  C   UNL     1       4.405  16.154  18.547  0.00  0.00    +0.000 A 
ATOM     27  C   UNL     1       3.114  15.657  18.404  0.00  0.00    +0.000 A 
ATOM     28  F   UNL     1       2.854  14.847  17.367  0.00  0.00    +0.000 F 
ENDBRANCH  20  21
BRANCH  20  29
ATOM     29  C   UNL     1      -0.328  16.475  18.960  0.00  0.00    +0.000 A 
ATOM     30  C   UNL     1      -1.332  16.689  19.889  0.00  0.00    +0.000 A 
ATOM     31  N   UNL     1      -2.291  17.625  19.759  0.00  0.00    +0.000 NA
ATOM     32  C   UNL     1      -2.235  18.363  18.642  0.00  0.00    +0.000 A 
ATOM     33  N   UNL     1      -1.316  18.255  17.670  0.00  0.00    +0.000 NA
ATOM     34  C   UNL     1      -0.375  17.308  17.857  0.00  0.00    +0.000 A 
ENDBRANCH  20  29
ENDBRANCH   7  20
TORSDOF 5
ENDMDL
MODEL 3
REMARK VINA RESULT:      -7.2      5.051     11.071
REMARK  Name = 
REMARK  7 active torsions:
REMARK  status: ('A' for Active; 'I' for Inactive)
REMARK    1  A    between atoms: C_1  and  C_2
REMARK    2  A    between atoms: C_2  and  C_3
REMARK    3  A    between atoms: C_2  and  C_4
REMARK    4  A    between atoms: C_7  and  N_8
REMARK    5  A    between atoms: N_14  and  C_15
REMARK    6  A    between atoms: C_15  and  C_16
REMARK    7  A    between atoms: C_15  and  C_22
REMARK                            x       y       z     vdW  Elec       q    Type
REMARK                         _______ _______ _______ _____ _____    ______ ____
ROOT
ATOM      1  N   UNL     1       1.210   9.364  20.252  0.00  0.00    +0.000 N 
ATOM      2  C   UNL     1       1.450   8.092  20.711  0.00  0.00    +0.000 C 
ATOM      3  O   UNL     1       1.076   7.662  21.801  0.00  0.00    +0.000 OA
ATOM      4  N   UNL     1       2.116   7.263  19.822  0.00  0.00    +0.000 N 
ATOM      5  C   UNL     1       2.213   5.842  20.159  0.00  0.00    +0.000 C 
ATOM      6  C   UNL     1       1.945   4.972  18.916  0.00  0.00    +0.000 C 
ATOM      7  N   UNL     1       2.803   5.292  17.733  0.00  0.00    +0.000 NA
ATOM      8  C   UNL     1       2.640   6.745  17.468  0.00  0.00    +0.000 C 
ATOM      9  C   UNL     1       2.919   7.668  18.666  0.00  0.00    +0.000 C 
ATOM     10  H   UNL     1       1.250   9.492  19.253  0.00  0.00    +0.000 HD
ENDROOT
BRANCH   1  14
ATOM     11  C   UNL     1      -0.621  12.587  22.295  0.00  0.00    +0.000 A 
ATOM     12  C   UNL     1      -0.967  11.269  22.616  0.00  0.00    +0.000 A 
ATOM     13  C   UNL     1      -0.369  10.191  21.962  0.00  0.00    +0.000 A 
ATOM     14  C   UNL     1       0.580  10.406  20.963  0.00  0.00    +0.000 A 
ATOM     15  C   UNL     1       0.941  11.718  20.645  0.00  0.00    +0.000 A 
ATOM     16  C   UNL     1       0.348  12.798  21.306  0.00  0.00    +0.000 A 
BRANCH  11  18
ATOM     17  C   UNL     1      -0.627  15.047  22.636  0.00  0.00    +0.000 C 
ATOM     18  C   UNL     1      -1.244  13.723  23.087  0.00  0.00    +0.000 C 
ATOM     19  C   UNL     1      -2.771  13.778  23.006  0.00  0.00    +0.000 C 
ENDBRANCH  11  18
ENDBRANCH   1  14
BRANCH   7  20
ATOM     20  C   UNL     1       4.220   4.856  17.952  0.00  0.00    +0.000 C 
BRANCH  20  21
ATOM     21  C   UNL     1       5.113   4.907  16.708  0.00  0.00    +0.000 A 
ATOM     22  C   UNL     1       4.744   4.357  15.469  0.00  0.00    +0.000 A 
ATOM     23  C   UNL     1       5.589   4.467  14.360  0.00  0.00    +0.000 A 
ATOM     24  C   UNL     1       6.829   5.092  14.488  0.00  0.00    +0.000 A 
ATOM     25 CL   UNL     1       7.854   5.242  13.115  0.00  0.00    +0.000 Cl
ATOM     26  C   UNL     1       7.240   5.594  15.717  0.00  0.00    +0.000 A 
ATOM     27  C   UNL     1       6.383   5.496  16.808  0.00  0.00    +0.000 A 
ATOM     28  F   UNL     1       6.793   5.988  17.988  0.00  0.00    +0.000 F 
ENDBRANCH  20  21
BRANCH  20  29
ATOM     29  C   UNL     1       4.264   3.468  18.560  0.00  0.00    +0.000 A 
ATOM     30  C   UNL     1       3.649   2.372  17.981  0.00  0.00    +0.000 A 
ATOM     31  N   UNL     1       3.622   1.144  18.534  0.00  0.00    +0.000 NA
ATOM     32  C   UNL     1       4.233   1.028  19.720  0.00  0.00    +0.000 A 
ATOM     33  N   UNL     1       4.864   2.010  20.383  0.00  0.00    +0.000 NA
ATOM     34  C   UNL     1       4.868   3.215  19.778  0.00  0.00    +0.000 A 
ENDBRANCH  20  29
ENDBRANCH   7  20
TORSDOF 5
ENDMDL
MODEL 4
REMARK VINA RESULT:      -7.1      4.782     11.098
REMARK  Name = 
REMARK  7 active torsions:
REMARK  status: ('A' for Active; 'I' for Inactive)
REMARK    1  A    between atoms: C_1  and  C_2
REMARK    2  A    between atoms: C_2  and  C_3
REMARK    3  A    between atoms: C_2  and  C_4
REMARK    4  A    between atoms: C_7  and  N_8
REMARK    5  A    between atoms: N_14  and  C_15
REMARK    6  A    between atoms: C_15  and  C_16
REMARK    7  A    between atoms: C_15  and  C_22
REMARK                            x       y       z     vdW  Elec       q    Type
REMARK                         _______ _______ _______ _____ _____    ______ ____
ROOT
ATOM      1  N   UNL     1       1.135   9.633  19.729  0.00  0.00    +0.000 N 
ATOM      2  C   UNL     1       1.407   8.470  20.409  0.00  0.00    +0.000 C 
ATOM      3  O   UNL     1       1.083   8.254  21.576  0.00  0.00    +0.000 OA
ATOM      4  N   UNL     1       2.043   7.490  19.666  0.00  0.00    +0.000 N 
ATOM      5  C   UNL     1       2.169   6.159  20.261  0.00  0.00    +0.000 C 
ATOM      6  C   UNL     1       1.858   5.068  19.217  0.00  0.00    +0.000 C 
ATOM      7  N   UNL     1       2.663   5.161  17.959  0.00  0.00    +0.000 NA
ATOM      8  C   UNL     1       2.474   6.537  17.431  0.00  0.00    +0.000 C 
ATOM      9  C   UNL     1       2.793   7.671  18.420  0.00  0.00    +0.000 C 
ATOM     10  H   UNL     1       1.132   9.570  18.723  0.00  0.00    +0.000 HD
ENDROOT
BRANCH   1  14
ATOM     11  C   UNL     1      -0.571  13.172  21.304  0.00  0.00    +0.000 A 
ATOM     12  C   UNL     1      -1.392  12.089  20.969  0.00  0.00    +0.000 A 
ATOM     13  C   UNL     1      -0.851  10.909  20.458  0.00  0.00    +0.000 A 
ATOM     14  C   UNL     1       0.524  10.789  20.257  0.00  0.00    +0.000 A 
ATOM     15  C   UNL     1       1.353  11.860  20.599  0.00  0.00    +0.000 A 
ATOM     16  C   UNL     1       0.811  13.040  21.119  0.00  0.00    +0.000 A 
BRANCH  11  18
ATOM     17  C   UNL     1      -2.484  14.749  21.169  0.00  0.00    +0.000 C 
ATOM     18  C   UNL     1      -1.200  14.405  21.926  0.00  0.00    +0.000 C 
ATOM     19  C   UNL     1      -1.471  14.280  23.427  0.00  0.00    +0.000 C 
ENDBRANCH  11  18
ENDBRANCH   1  14
BRANCH   7  20
ATOM     20  C   UNL     1       4.092   4.777  18.195  0.00  0.00    +0.000 C 
BRANCH  20  21
ATOM     21  C   UNL     1       4.997   4.862  16.962  0.00  0.00    +0.000 A 
ATOM     22  C   UNL     1       4.706   4.225  15.743  0.00  0.00    +0.000 A 
ATOM     23  C   UNL     1       5.555   4.371  14.642  0.00  0.00    +0.000 A 
ATOM     24  C   UNL     1       6.727   5.118  14.759  0.00  0.00    +0.000 A 
ATOM     25 CL   UNL     1       7.756   5.310  13.395  0.00  0.00    +0.000 Cl
ATOM     26  C   UNL     1       7.065   5.711  15.970  0.00  0.00    +0.000 A 
ATOM     27  C   UNL     1       6.203   5.576  17.053  0.00  0.00    +0.000 A 
ATOM     28  F   UNL     1       6.542   6.156  18.214  0.00  0.00    +0.000 F 
ENDBRANCH  20  21
BRANCH  20  29
ATOM     29  C   UNL     1       4.180   3.392  18.804  0.00  0.00    +0.000 A 
ATOM     30  C   UNL     1       4.872   3.126  19.972  0.00  0.00    +0.000 A 
ATOM     31  N   UNL     1       5.016   1.895  20.498  0.00  0.00    +0.000 NA
ATOM     32  C   UNL     1       4.446   0.898  19.808  0.00  0.00    +0.000 A 
ATOM     33  N   UNL     1       3.750   1.024  18.667  0.00  0.00    +0.000 NA
ATOM     34  C   UNL     1       3.630   2.280  18.192  0.00  0.00    +0.000 A 
ENDBRANCH  20  29
ENDBRANCH   7  20
TORSDOF 5
ENDMDL
MODEL 5
REMARK VINA RESULT:      -7.0      4.765     11.084
REMARK  Name = 
REMARK  7 active torsions:
REMARK  status: ('A' for Active; 'I' for Inactive)
REMARK    1  A    between atoms: C_1  and  C_2
REMARK    2  A    between atoms: C_2  and  C_3
REMARK    3  A    between atoms: C_2  and  C_4
REMARK    4  A    between atoms: C_7  and  N_8
REMARK    5  A    between atoms: N_14  and  C_15
REMARK    6  A    between atoms: C_15  and  C_16
REMARK    7  A    between atoms: C_15  and  C_22
REMARK                            x       y       z     vdW  Elec       q    Type
REMARK                         _______ _______ _______ _____ _____    ______ ____
ROOT
ATOM      1  N   UNL     1       1.190   9.595  19.648  0.00  0.00    +0.000 N 
ATOM      2  C   UNL     1       1.471   8.429  20.318  0.00  0.00    +0.000 C 
ATOM      3  O   UNL     1       1.150   8.202  21.484  0.00  0.00    +0.000 OA
ATOM      4  N   UNL     1       2.112   7.459  19.566  0.00  0.00    +0.000 N 
ATOM      5  C   UNL     1       2.248   6.124  20.150  0.00  0.00    +0.000 C 
ATOM      6  C   UNL     1       1.941   5.039  19.099  0.00  0.00    +0.000 C 
ATOM      7  N   UNL     1       2.743   5.147  17.839  0.00  0.00    +0.000 NA
ATOM      8  C   UNL     1       2.544   6.526  17.323  0.00  0.00    +0.000 C 
ATOM      9  C   UNL     1       2.858   7.654  18.321  0.00  0.00    +0.000 C 
ATOM     10  H   UNL     1       1.185   9.540  18.641  0.00  0.00    +0.000 HD
ENDROOT
BRANCH   1  14
ATOM     11  C   UNL     1      -0.790  12.972  21.257  0.00  0.00    +0.000 A 
ATOM     12  C   UNL     1       0.609  12.942  21.200  0.00  0.00    +0.000 A 
ATOM     13  C   UNL     1       1.283  11.844  20.665  0.00  0.00    +0.000 A 
ATOM     14  C   UNL     1       0.573  10.743  20.185  0.00  0.00    +0.000 A 
ATOM     15  C   UNL     1      -0.824  10.769  20.226  0.00  0.00    +0.000 A 
ATOM     16  C   UNL     1      -1.499  11.874  20.755  0.00  0.00    +0.000 A 
BRANCH  11  18
ATOM     17  C   UNL     1      -2.109  13.915  23.138  0.00  0.00    +0.000 C 
ATOM     18  C   UNL     1      -1.476  14.222  21.779  0.00  0.00    +0.000 C 
ATOM     19  C   UNL     1      -0.564  15.446  21.869  0.00  0.00    +0.000 C 
ENDBRANCH  11  18
ENDBRANCH   1  14
BRANCH   7  20
ATOM     20  C   UNL     1       4.175   4.771  18.070  0.00  0.00    +0.000 C 
BRANCH  20  21
ATOM     21  C   UNL     1       5.076   4.863  16.834  0.00  0.00    +0.000 A 
ATOM     22  C   UNL     1       4.784   4.226  15.616  0.00  0.00    +0.000 A 
ATOM     23  C   UNL     1       5.629   4.378  14.512  0.00  0.00    +0.000 A 
ATOM     24  C   UNL     1       6.796   5.132  14.627  0.00  0.00    +0.000 A 
ATOM     25 CL   UNL     1       7.820   5.331  13.259  0.00  0.00    +0.000 Cl
ATOM     26  C   UNL     1       7.135   5.725  15.837  0.00  0.00    +0.000 A 
ATOM     27  C   UNL     1       6.277   5.584  16.923  0.00  0.00    +0.000 A 
ATOM     28  F   UNL     1       6.617   6.164  18.084  0.00  0.00    +0.000 F 
ENDBRANCH  20  21
BRANCH  20  29
ATOM     29  C   UNL     1       4.273   3.385  18.676  0.00  0.00    +0.000 A 
ATOM     30  C   UNL     1       3.720   2.263  18.083  0.00  0.00    +0.000 A 
ATOM     31  N   UNL     1       3.740   1.034  18.632  0.00  0.00    +0.000 NA
ATOM     32  C   UNL     1       4.334   0.942  19.829  0.00  0.00    +0.000 A 
ATOM     33  N   UNL     1       4.906   1.950  20.507  0.00  0.00    +0.000 NA
ATOM     34  C   UNL     1       4.864   3.156  19.905  0.00  0.00    +0.000 A 
ENDBRANCH  20  29
ENDBRANCH   7  20
TORSDOF 5
ENDMDL
MODEL 6
REMARK VINA RESULT:      -7.0      0.813      1.164
REMARK  Name = 
REMARK  7 active torsions:
REMARK  status: ('A' for Active; 'I' for Inactive)
REMARK    1  A    between atoms: C_1  and  C_2
REMARK    2  A    between atoms: C_2  and  C_3
REMARK    3  A    between atoms: C_2  and  C_4
REMARK    4  A    between atoms: C_7  and  N_8
REMARK    5  A    between atoms: N_14  and  C_15
REMARK    6  A    between atoms: C_15  and  C_16
REMARK    7  A    between atoms: C_15  and  C_22
REMARK                            x       y       z     vdW  Elec       q    Type
REMARK                         _______ _______ _______ _____ _____    ______ ____
ROOT
ATOM      1  N   UNL     1       1.539   9.551  19.501  0.00  0.00    +0.000 N 
ATOM      2  C   UNL     1       0.573  10.240  18.808  0.00  0.00    +0.000 C 
ATOM      3  O   UNL     1      -0.289   9.714  18.105  0.00  0.00    +0.000 OA
ATOM      4  N   UNL     1       0.584  11.613  18.993  0.00  0.00    +0.000 N 
ATOM      5  C   UNL     1      -0.541  12.381  18.460  0.00  0.00    +0.000 C 
ATOM      6  C   UNL     1      -0.998  13.448  19.474  0.00  0.00    +0.000 C 
ATOM      7  N   UNL     1       0.087  14.364  19.947  0.00  0.00    +0.000 NA
ATOM      8  C   UNL     1       1.178  13.500  20.468  0.00  0.00    +0.000 C 
ATOM      9  C   UNL     1       1.694  12.430  19.491  0.00  0.00    +0.000 C 
ATOM     10  H   UNL     1       1.951  10.030  20.286  0.00  0.00    +0.000 HD
ENDROOT
BRANCH   1  14
ATOM     11  C   UNL     1       2.275   5.389  19.269  0.00  0.00    +0.000 A 
ATOM     12  C   UNL     1       1.771   5.946  20.451  0.00  0.00    +0.000 A 
ATOM     13  C   UNL     1       1.512   7.313  20.547  0.00  0.00    +0.000 A 
ATOM     14  C   UNL     1       1.762   8.159  19.467  0.00  0.00    +0.000 A 
ATOM     15  C   UNL     1       2.253   7.611  18.279  0.00  0.00    +0.000 A 
ATOM     16  C   UNL     1       2.505   6.239  18.180  0.00  0.00    +0.000 A 
BRANCH  11  18
ATOM     17  C   UNL     1       1.351   3.194  19.973  0.00  0.00    +0.000 C 
ATOM     18  C   UNL     1       2.469   3.886  19.191  0.00  0.00    +0.000 C 
ATOM     19  C   UNL     1       2.554   3.339  17.765  0.00  0.00    +0.000 C 
ENDBRANCH  11  18
ENDBRANCH   1  14
BRANCH   7  20
ATOM     20  C   UNL     1       0.509  15.314  18.869  0.00  0.00    +0.000 C 
BRANCH  20  21
ATOM     21  C   UNL     1       1.938  15.851  19.000  0.00  0.00    +0.000 A 
ATOM     22  C   UNL     1       2.933  15.644  18.030  0.00  0.00    +0.000 A 
ATOM     23  C   UNL     1       4.210  16.191  18.190  0.00  0.00    +0.000 A 
ATOM     24  C   UNL     1       4.519  16.914  19.342  0.00  0.00    +0.000 A 
ATOM     25 CL   UNL     1       6.085  17.601  19.524  0.00  0.00    +0.000 Cl
ATOM     26  C   UNL     1       3.568  17.084  20.341  0.00  0.00    +0.000 A 
ATOM     27  C   UNL     1       2.295  16.553  20.162  0.00  0.00    +0.000 A 
ATOM     28  F   UNL     1       1.388  16.728  21.134  0.00  0.00    +0.000 F 
ENDBRANCH  20  21
BRANCH  20  29
ATOM     29  C   UNL     1      -0.467  16.470  18.763  0.00  0.00    +0.000 A 
ATOM     30  C   UNL     1      -0.425  17.398  17.737  0.00  0.00    +0.000 A 
ATOM     31  N   UNL     1      -1.240  18.467  17.656  0.00  0.00    +0.000 NA
ATOM     32  C   UNL     1      -2.122  18.602  18.655  0.00  0.00    +0.000 A 
ATOM     33  N   UNL     1      -2.263  17.773  19.702  0.00  0.00    +0.000 NA
ATOM     34  C   UNL     1      -1.427  16.716  19.727  0.00  0.00    +0.000 A 
ENDBRANCH  20  29
ENDBRANCH   7  20
TORSDOF 5
ENDMDL
MODEL 7
REMARK VINA RESULT:      -6.9      0.858      1.674
REMARK  Name = 
REMARK  7 active torsions:
REMARK  status: ('A' for Active; 'I' for Inactive)
REMARK    1  A    between atoms: C_1  and  C_2
REMARK    2  A    between atoms: C_2  and  C_3
REMARK    3  A    between atoms: C_2  and  C_4
REMARK    4  A    between atoms: C_7  and  N_8
REMARK    5  A    between atoms: N_14  and  C_15
REMARK    6  A    between atoms: C_15  and  C_16
REMARK    7  A    between atoms: C_15  and  C_22
REMARK                            x       y       z     vdW  Elec       q    Type
REMARK                         _______ _______ _______ _____ _____    ______ ____
ROOT
ATOM      1  N   UNL     1       1.632   9.459  19.388  0.00  0.00    +0.000 N 
ATOM      2  C   UNL     1       0.630  10.151  18.752  0.00  0.00    +0.000 C 
ATOM      3  O   UNL     1      -0.257   9.630  18.077  0.00  0.00    +0.000 OA
ATOM      4  N   UNL     1       0.636  11.521  18.963  0.00  0.00    +0.000 N 
ATOM      5  C   UNL     1      -0.519  12.286  18.494  0.00  0.00    +0.000 C 
ATOM      6  C   UNL     1      -0.941  13.329  19.547  0.00  0.00    +0.000 C 
ATOM      7  N   UNL     1       0.154  14.247  19.990  0.00  0.00    +0.000 NA
ATOM      8  C   UNL     1       1.275  13.385  20.446  0.00  0.00    +0.000 C 
ATOM      9  C   UNL     1       1.758  12.339  19.426  0.00  0.00    +0.000 C 
ATOM     10  H   UNL     1       2.074   9.928  20.164  0.00  0.00    +0.000 HD
ENDROOT
BRANCH   1  14
ATOM     11  C   UNL     1       2.270   5.276  19.301  0.00  0.00    +0.000 A 
ATOM     12  C   UNL     1       2.587   6.056  18.182  0.00  0.00    +0.000 A 
ATOM     13  C   UNL     1       2.395   7.437  18.192  0.00  0.00    +0.000 A 
ATOM     14  C   UNL     1       1.867   8.071  19.317  0.00  0.00    +0.000 A 
ATOM     15  C   UNL     1       1.559   7.303  20.443  0.00  0.00    +0.000 A 
ATOM     16  C   UNL     1       1.760   5.919  20.436  0.00  0.00    +0.000 A 
BRANCH  11  18
ATOM     17  C   UNL     1       1.769   3.091  20.370  0.00  0.00    +0.000 C 
ATOM     18  C   UNL     1       2.568   3.788  19.267  0.00  0.00    +0.000 C 
ATOM     19  C   UNL     1       2.312   3.129  17.911  0.00  0.00    +0.000 C 
ENDBRANCH  11  18
ENDBRANCH   1  14
BRANCH   7  20
ATOM     20  C   UNL     1       0.519  15.222  18.913  0.00  0.00    +0.000 C 
BRANCH  20  21
ATOM     21  C   UNL     1       1.959  15.741  18.969  0.00  0.00    +0.000 A 
ATOM     22  C   UNL     1       2.911  15.489  17.966  0.00  0.00    +0.000 A 
ATOM     23  C   UNL     1       4.200  16.021  18.057  0.00  0.00    +0.000 A 
ATOM     24  C   UNL     1       4.566  16.776  19.171  0.00  0.00    +0.000 A 
ATOM     25 CL   UNL     1       6.147  17.445  19.267  0.00  0.00    +0.000 Cl
ATOM     26  C   UNL     1       3.659  16.993  20.202  0.00  0.00    +0.000 A 
ATOM     27  C   UNL     1       2.373  16.475  20.092  0.00  0.00    +0.000 A 
ATOM     28  F   UNL     1       1.509  16.695  21.094  0.00  0.00    +0.000 F 
ENDBRANCH  20  21
BRANCH  20  29
ATOM     29  C   UNL     1      -0.449  16.390  18.898  0.00  0.00    +0.000 A 
ATOM     30  C   UNL     1      -1.431  16.565  19.857  0.00  0.00    +0.000 A 
ATOM     31  N   UNL     1      -2.340  17.558  19.831  0.00  0.00    +0.000 NA
ATOM     32  C   UNL     1      -2.254  18.397  18.790  0.00  0.00    +0.000 A 
ATOM     33  N   UNL     1      -1.350  18.336  17.799  0.00  0.00    +0.000 NA
ATOM     34  C   UNL     1      -0.460  17.327  17.882  0.00  0.00    +0.000 A 
ENDBRANCH  20  29
ENDBRANCH   7  20
TORSDOF 5
ENDMDL
MODEL 8
REMARK VINA RESULT:      -6.7      4.193      5.031
REMARK  Name = 
REMARK  7 active torsions:
REMARK  status: ('A' for Active; 'I' for Inactive)
REMARK    1  A    between atoms: C_1  and  C_2
REMARK    2  A    between atoms: C_2  and  C_3
REMARK    3  A    between atoms: C_2  and  C_4
REMARK    4  A    between atoms: C_7  and  N_8
REMARK    5  A    between atoms: N_14  and  C_15
REMARK    6  A    between atoms: C_15  and  C_16
REMARK    7  A    between atoms: C_15  and  C_22
REMARK                            x       y       z     vdW  Elec       q    Type
REMARK                         _______ _______ _______ _____ _____    ______ ____
ROOT
ATOM      1  N   UNL     1       0.339  10.237  20.597  0.00  0.00    +0.000 N 
ATOM      2  C   UNL     1      -0.728  10.957  20.117  0.00  0.00    +0.000 C 
ATOM      3  O   UNL     1      -1.232  10.798  19.006  0.00  0.00    +0.000 OA
ATOM      4  N   UNL     1      -1.268  11.871  21.006  0.00  0.00    +0.000 N 
ATOM      5  C   UNL     1      -2.530  12.513  20.640  0.00  0.00    +0.000 C 
ATOM      6  C   UNL     1      -3.479  12.575  21.853  0.00  0.00    +0.000 C 
ATOM      7  N   UNL     1      -2.894  13.220  23.070  0.00  0.00    +0.000 NA
ATOM      8  C   UNL     1      -1.624  12.506  23.364  0.00  0.00    +0.000 C 
ATOM      9  C   UNL     1      -0.625  12.433  22.196  0.00  0.00    +0.000 C 
ATOM     10  H   UNL     1       0.440  10.205  21.599  0.00  0.00    +0.000 HD
ENDROOT
BRANCH   1  14
ATOM     11  C   UNL     1       2.554   7.242  18.588  0.00  0.00    +0.000 A 
ATOM     12  C   UNL     1       2.205   8.421  17.919  0.00  0.00    +0.000 A 
ATOM     13  C   UNL     1       1.484   9.426  18.564  0.00  0.00    +0.000 A 
ATOM     14  C   UNL     1       1.083   9.270  19.891  0.00  0.00    +0.000 A 
ATOM     15  C   UNL     1       1.437   8.101  20.570  0.00  0.00    +0.000 A 
ATOM     16  C   UNL     1       2.167   7.098  19.926  0.00  0.00    +0.000 A 
BRANCH  11  18
ATOM     17  C   UNL     1       4.489   6.931  17.062  0.00  0.00    +0.000 C 
ATOM     18  C   UNL     1       3.404   6.212  17.865  0.00  0.00    +0.000 C 
ATOM     19  C   UNL     1       4.017   5.152  18.781  0.00  0.00    +0.000 C 
ENDBRANCH  11  18
ENDBRANCH   1  14
BRANCH   7  20
ATOM     20  C   UNL     1      -2.746  14.700  22.887  0.00  0.00    +0.000 C 
BRANCH  20  21
ATOM     21  C   UNL     1      -1.872  15.399  23.933  0.00  0.00    +0.000 A 
ATOM     22  C   UNL     1      -2.083  15.285  25.317  0.00  0.00    +0.000 A 
ATOM     23  C   UNL     1      -1.228  15.918  26.224  0.00  0.00    +0.000 A 
ATOM     24  C   UNL     1      -0.178  16.708  25.756  0.00  0.00    +0.000 A 
ATOM     25 CL   UNL     1       0.883  17.468  26.876  0.00  0.00    +0.000 Cl
ATOM     26  C   UNL     1       0.018  16.881  24.391  0.00  0.00    +0.000 A 
ATOM     27  C   UNL     1      -0.827  16.230  23.498  0.00  0.00    +0.000 A 
ATOM     28  F   UNL     1      -0.624  16.405  22.184  0.00  0.00    +0.000 F 
ENDBRANCH  20  21
BRANCH  20  29
ATOM     29  C   UNL     1      -4.104  15.369  22.821  0.00  0.00    +0.000 A 
ATOM     30  C   UNL     1      -4.414  16.357  21.903  0.00  0.00    +0.000 A 
ATOM     31  N   UNL     1      -5.592  17.009  21.866  0.00  0.00    +0.000 NA
ATOM     32  C   UNL     1      -6.483  16.650  22.800  0.00  0.00    +0.000 A 
ATOM     33  N   UNL     1      -6.306  15.711  23.742  0.00  0.00    +0.000 NA
ATOM     34  C   UNL     1      -5.112  15.085  23.725  0.00  0.00    +0.000 A 
ENDBRANCH  20  29
ENDBRANCH   7  20
TORSDOF 5
ENDMDL
MODEL 9
REMARK VINA RESULT:      -6.7      4.129      4.993
REMARK  Name = 
REMARK  7 active torsions:
REMARK  status: ('A' for Active; 'I' for Inactive)
REMARK    1  A    between atoms: C_1  and  C_2
REMARK    2  A    between atoms: C_2  and  C_3
REMARK    3  A    between atoms: C_2  and  C_4
REMARK    4  A    between atoms: C_7  and  N_8
REMARK    5  A    between atoms: N_14  and  C_15
REMARK    6  A    between atoms: C_15  and  C_16
REMARK    7  A    between atoms: C_15  and  C_22
REMARK                            x       y       z     vdW  Elec       q    Type
REMARK                         _______ _______ _______ _____ _____    ______ ____
ROOT
ATOM      1  N   UNL     1       0.356   9.975  20.195  0.00  0.00    +0.000 N 
ATOM      2  C   UNL     1      -0.512  10.813  19.538  0.00  0.00    +0.000 C 
ATOM      3  O   UNL     1      -0.709  10.799  18.324  0.00  0.00    +0.000 OA
ATOM      4  N   UNL     1      -1.226  11.676  20.353  0.00  0.00    +0.000 N 
ATOM      5  C   UNL     1      -2.316  12.440  19.746  0.00  0.00    +0.000 C 
ATOM      6  C   UNL     1      -3.549  12.454  20.671  0.00  0.00    +0.000 C 
ATOM      7  N   UNL     1      -3.279  12.936  22.062  0.00  0.00    +0.000 NA
ATOM      8  C   UNL     1      -2.167  12.107  22.593  0.00  0.00    +0.000 C 
ATOM      9  C   UNL     1      -0.898  12.073  21.724  0.00  0.00    +0.000 C 
ATOM     10  H   UNL     1       0.185   9.840  21.179  0.00  0.00    +0.000 HD
ENDROOT
BRANCH   1  14
ATOM     11  C   UNL     1       2.911   7.042  18.527  0.00  0.00    +0.000 A 
ATOM     12  C   UNL     1       2.594   8.192  17.794  0.00  0.00    +0.000 A 
ATOM     13  C   UNL     1       1.762   9.177  18.327  0.00  0.00    +0.000 A 
ATOM     14  C   UNL     1       1.216   9.028  19.603  0.00  0.00    +0.000 A 
ATOM     15  C   UNL     1       1.537   7.890  20.346  0.00  0.00    +0.000 A 
ATOM     16  C   UNL     1       2.378   6.907  19.815  0.00  0.00    +0.000 A 
BRANCH  11  18
ATOM     17  C   UNL     1       3.125   4.750  17.594  0.00  0.00    +0.000 C 
ATOM     18  C   UNL     1       3.881   6.037  17.931  0.00  0.00    +0.000 C 
ATOM     19  C   UNL     1       4.647   6.553  16.712  0.00  0.00    +0.000 C 
ENDBRANCH  11  18
ENDBRANCH   1  14
BRANCH   7  20
ATOM     20  C   UNL     1      -3.021  14.411  22.089  0.00  0.00    +0.000 C 
BRANCH  20  21
ATOM     21  C   UNL     1      -2.393  14.936  23.384  0.00  0.00    +0.000 A 
ATOM     22  C   UNL     1      -3.009  14.826  24.642  0.00  0.00    +0.000 A 
ATOM     23  C   UNL     1      -2.367  15.292  25.793  0.00  0.00    +0.000 A 
ATOM     24  C   UNL     1      -1.122  15.913  25.694  0.00  0.00    +0.000 A 
ATOM     25 CL   UNL     1      -0.329  16.466  27.117  0.00  0.00    +0.000 Cl
ATOM     26  C   UNL     1      -0.518  16.084  24.455  0.00  0.00    +0.000 A 
ATOM     27  C   UNL     1      -1.156  15.598  23.318  0.00  0.00    +0.000 A 
ATOM     28  F   UNL     1      -0.559  15.768  22.129  0.00  0.00    +0.000 F 
ENDBRANCH  20  21
BRANCH  20  29
ATOM     29  C   UNL     1      -4.291  15.182  21.785  0.00  0.00    +0.000 A 
ATOM     30  C   UNL     1      -5.544  14.759  22.193  0.00  0.00    +0.000 A 
ATOM     31  N   UNL     1      -6.691  15.393  21.882  0.00  0.00    +0.000 NA
ATOM     32  C   UNL     1      -6.561  16.489  21.123  0.00  0.00    +0.000 A 
ATOM     33  N   UNL     1      -5.408  17.001  20.665  0.00  0.00    +0.000 NA
ATOM     34  C   UNL     1      -4.292  16.330  21.015  0.00  0.00    +0.000 A 
ENDBRANCH  20  29
ENDBRANCH   7  20
TORSDOF 5
ENDMDL
