MODEL 1
REMARK VINA RESULT:      -8.5      0.000      0.000
REMARK  Name = 
REMARK  5 active torsions:
REMARK  status: ('A' for Active; 'I' for Inactive)
REMARK    1  A    between atoms: C_2  and  C_3
REMARK    2  A    between atoms: N_7  and  C_8
REMARK    3  A    between atoms: C_11  and  O_12
REMARK    4  A    between atoms: O_12  and  C_13
REMARK    5  A    between atoms: C_13  and  C_14
REMARK                            x       y       z     vdW  Elec       q    Type
REMARK                         _______ _______ _______ _____ _____    ______ ____
ROOT
ATOM      1  C   UNL     1       1.676   8.168  20.176  0.00  0.00    +0.000 A 
ATOM      2  C   UNL     1       1.210   8.996  19.155  0.00  0.00    +0.000 A 
ATOM      3  C   UNL     1       0.326  10.038  19.429  0.00  0.00    +0.000 A 
ATOM      4  C   UNL     1      -0.152  10.242  20.727  0.00  0.00    +0.000 A 
ATOM      5  C   UNL     1       0.348   9.447  21.764  0.00  0.00    +0.000 A 
ATOM      6 CL   UNL     1      -0.171   9.661  23.399  0.00  0.00    +0.000 Cl
ATOM      7  C   UNL     1       1.262   8.428  21.489  0.00  0.00    +0.000 A 
ENDROOT
BRANCH   1  12
ATOM      8  C   UNL     1       4.349   3.997  17.202  0.00  0.00    +0.000 A 
ATOM      9  C   UNL     1       4.009   5.149  17.878  0.00  0.00    +0.000 A 
ATOM     10  C   UNL     1       2.983   4.925  18.863  0.00  0.00    +0.000 A 
ATOM     11  C   UNL     1       2.295   5.773  19.750  0.00  0.00    +0.000 A 
ATOM     12  N   UNL     1       2.574   7.139  19.860  0.00  0.00    +0.000 N 
ATOM     13  N   UNL     1       1.338   5.233  20.544  0.00  0.00    +0.000 NA
ATOM     14  C   UNL     1       1.087   3.921  20.469  0.00  0.00    +0.000 A 
ATOM     15  N   UNL     1       1.668   3.034  19.663  0.00  0.00    +0.000 NA
ATOM     16  C   UNL     1       2.602   3.592  18.877  0.00  0.00    +0.000 A 
ATOM     17  S   UNL     1       3.456   2.650  17.747  0.00  0.00    +0.000 S 
ATOM     18  H   UNL     1       3.421   7.450  19.405  0.00  0.00    +0.000 HD
BRANCH   8  20
ATOM     19  C   UNL     1       6.118   3.835  15.267  0.00  0.00    +0.000 C 
ATOM     20  C   UNL     1       5.320   3.910  16.164  0.00  0.00    +0.000 C 
ENDBRANCH   8  20
ENDBRANCH   1  12
BRANCH   4  21
ATOM     21  O   UNL     1      -1.090  11.194  21.040  0.00  0.00    +0.000 OA
BRANCH  21  22
ATOM     22  C   UNL     1      -1.272  12.198  20.040  0.00  0.00    +0.000 C 
BRANCH  22  23
ATOM     23  C   UNL     1      -2.664  12.170  19.461  0.00  0.00    +0.000 A 
ATOM     24  C   UNL     1      -3.769  12.672  20.162  0.00  0.00    +0.000 A 
ATOM     25  C   UNL     1      -5.058  12.550  19.637  0.00  0.00    +0.000 A 
ATOM     26  C   UNL     1      -5.253  11.913  18.413  0.00  0.00    +0.000 A 
ATOM     27  C   UNL     1      -4.161  11.404  17.723  0.00  0.00    +0.000 A 
ATOM     28  F   UNL     1      -4.347  10.776  16.555  0.00  0.00    +0.000 F 
ATOM     29  C   UNL     1      -2.874  11.523  18.234  0.00  0.00    +0.000 A 
ENDBRANCH  22  23
ENDBRANCH  21  22
ENDBRANCH   4  21
TORSDOF 5
ENDMDL
MODEL 2
REMARK VINA RESULT:      -8.4      0.850      1.246
REMARK  Name = 
REMARK  5 active torsions:
REMARK  status: ('A' for Active; 'I' for Inactive)
REMARK    1  A    between atoms: C_2  and  C_3
REMARK    2  A    between atoms: N_7  and  C_8
REMARK    3  A    between atoms: C_11  and  O_12
REMARK    4  A    between atoms: O_12  and  C_13
REMARK    5  A    between atoms: C_13  and  C_14
REMARK                            x       y       z     vdW  Elec       q    Type
REMARK                         _______ _______ _______ _____ _____    ______ ____
ROOT
ATOM      1  C   UNL     1       1.703   8.194  20.171  0.00  0.00    +0.000 A 
ATOM      2  C   UNL     1       1.303   9.062  19.155  0.00  0.00    +0.000 A 
ATOM      3  C   UNL     1       0.425  10.112  19.420  0.00  0.00    +0.000 A 
ATOM      4  C   UNL     1      -0.111  10.287  20.699  0.00  0.00    +0.000 A 
ATOM      5  C   UNL     1       0.324   9.450  21.734  0.00  0.00    +0.000 A 
ATOM      6 CL   UNL     1      -0.270   9.624  23.348  0.00  0.00    +0.000 Cl
ATOM      7  C   UNL     1       1.231   8.422  21.470  0.00  0.00    +0.000 A 
ENDROOT
BRANCH   1  12
ATOM      8  C   UNL     1       4.356   3.978  17.243  0.00  0.00    +0.000 A 
ATOM      9  C   UNL     1       4.022   5.139  17.907  0.00  0.00    +0.000 A 
ATOM     10  C   UNL     1       2.994   4.931  18.893  0.00  0.00    +0.000 A 
ATOM     11  C   UNL     1       2.310   5.792  19.771  0.00  0.00    +0.000 A 
ATOM     12  N   UNL     1       2.597   7.157  19.866  0.00  0.00    +0.000 N 
ATOM     13  N   UNL     1       1.351   5.264  20.570  0.00  0.00    +0.000 NA
ATOM     14  C   UNL     1       1.093   3.953  20.509  0.00  0.00    +0.000 A 
ATOM     15  N   UNL     1       1.670   3.054  19.712  0.00  0.00    +0.000 NA
ATOM     16  C   UNL     1       2.607   3.600  18.921  0.00  0.00    +0.000 A 
ATOM     17  S   UNL     1       3.456   2.641  17.801  0.00  0.00    +0.000 S 
ATOM     18  H   UNL     1       3.445   7.459  19.408  0.00  0.00    +0.000 HD
BRANCH   8  20
ATOM     19  C   UNL     1       6.151   3.818  15.332  0.00  0.00    +0.000 C 
ATOM     20  C   UNL     1       5.327   3.875  16.205  0.00  0.00    +0.000 C 
ENDBRANCH   8  20
ENDBRANCH   1  12
BRANCH   4  21
ATOM     21  O   UNL     1      -1.045  11.247  20.997  0.00  0.00    +0.000 OA
BRANCH  21  22
ATOM     22  C   UNL     1      -1.274  12.195  19.953  0.00  0.00    +0.000 C 
BRANCH  22  23
ATOM     23  C   UNL     1      -2.632  12.018  19.321  0.00  0.00    +0.000 A 
ATOM     24  C   UNL     1      -2.787  11.472  18.038  0.00  0.00    +0.000 A 
ATOM     25  C   UNL     1      -4.050  11.405  17.445  0.00  0.00    +0.000 A 
ATOM     26  C   UNL     1      -5.166  11.893  18.123  0.00  0.00    +0.000 A 
ATOM     27  C   UNL     1      -5.011  12.444  19.388  0.00  0.00    +0.000 A 
ATOM     28  F   UNL     1      -6.078  12.931  20.035  0.00  0.00    +0.000 F 
ATOM     29  C   UNL     1      -3.760  12.513  19.990  0.00  0.00    +0.000 A 
ENDBRANCH  22  23
ENDBRANCH  21  22
ENDBRANCH   4  21
TORSDOF 5
ENDMDL
MODEL 3
REMARK VINA RESULT:      -8.4      2.490      3.010
REMARK  Name = 
REMARK  5 active torsions:
REMARK  status: ('A' for Active; 'I' for Inactive)
REMARK    1  A    between atoms: C_2  and  C_3
REMARK    2  A    between atoms: N_7  and  C_8
REMARK    3  A    between atoms: C_11  and  O_12
REMARK    4  A    between atoms: O_12  and  C_13
REMARK    5  A    between atoms: C_13  and  C_14
REMARK                            x       y       z     vdW  Elec       q    Type
REMARK                         _______ _______ _______ _____ _____    ______ ____
ROOT
ATOM      1  C   UNL     1       1.647   8.167  20.227  0.00  0.00    +0.000 A 
ATOM      2  C   UNL     1       1.223   9.062  19.244  0.00  0.00    +0.000 A 
ATOM      3  C   UNL     1       0.333  10.090  19.550  0.00  0.00    +0.000 A 
ATOM      4  C   UNL     1      -0.190  10.216  20.841  0.00  0.00    +0.000 A 
ATOM      5  C   UNL     1       0.267   9.354  21.843  0.00  0.00    +0.000 A 
ATOM      6 CL   UNL     1      -0.310   9.468  23.469  0.00  0.00    +0.000 Cl
ATOM      7  C   UNL     1       1.186   8.348  21.538  0.00  0.00    +0.000 A 
ENDROOT
BRANCH   1  12
ATOM      8  C   UNL     1       4.296   4.052  17.156  0.00  0.00    +0.000 A 
ATOM      9  C   UNL     1       3.958   5.195  17.848  0.00  0.00    +0.000 A 
ATOM     10  C   UNL     1       2.965   4.951  18.860  0.00  0.00    +0.000 A 
ATOM     11  C   UNL     1       2.290   5.785  19.772  0.00  0.00    +0.000 A 
ATOM     12  N   UNL     1       2.551   7.154  19.880  0.00  0.00    +0.000 N 
ATOM     13  N   UNL     1       1.366   5.226  20.591  0.00  0.00    +0.000 NA
ATOM     14  C   UNL     1       1.133   3.911  20.517  0.00  0.00    +0.000 A 
ATOM     15  N   UNL     1       1.704   3.036  19.690  0.00  0.00    +0.000 NA
ATOM     16  C   UNL     1       2.605   3.613  18.880  0.00  0.00    +0.000 A 
ATOM     17  S   UNL     1       3.440   2.688  17.720  0.00  0.00    +0.000 S 
ATOM     18  H   UNL     1       3.379   7.480  19.401  0.00  0.00    +0.000 HD
BRANCH   8  20
ATOM     19  C   UNL     1       6.032   3.957  15.188  0.00  0.00    +0.000 C 
ATOM     20  C   UNL     1       5.237   3.984  16.089  0.00  0.00    +0.000 C 
ENDBRANCH   8  20
ENDBRANCH   1  12
BRANCH   4  21
ATOM     21  O   UNL     1      -1.135  11.153  21.179  0.00  0.00    +0.000 OA
BRANCH  21  22
ATOM     22  C   UNL     1      -0.600  12.387  21.659  0.00  0.00    +0.000 C 
BRANCH  22  23
ATOM     23  C   UNL     1      -1.498  13.026  22.688  0.00  0.00    +0.000 A 
ATOM     24  C   UNL     1      -1.158  14.229  23.325  0.00  0.00    +0.000 A 
ATOM     25  C   UNL     1      -1.967  14.748  24.338  0.00  0.00    +0.000 A 
ATOM     26  C   UNL     1      -3.116  14.065  24.731  0.00  0.00    +0.000 A 
ATOM     27  C   UNL     1      -3.448  12.868  24.109  0.00  0.00    +0.000 A 
ATOM     28  F   UNL     1      -4.542  12.200  24.497  0.00  0.00    +0.000 F 
ATOM     29  C   UNL     1      -2.652  12.344  23.098  0.00  0.00    +0.000 A 
ENDBRANCH  22  23
ENDBRANCH  21  22
ENDBRANCH   4  21
TORSDOF 5
ENDMDL
MODEL 4
REMARK VINA RESULT:      -8.4      1.167      1.336
REMARK  Name = 
REMARK  5 active torsions:
REMARK  status: ('A' for Active; 'I' for Inactive)
REMARK    1  A    between atoms: C_2  and  C_3
REMARK    2  A    between atoms: N_7  and  C_8
REMARK    3  A    between atoms: C_11  and  O_12
REMARK    4  A    between atoms: O_12  and  C_13
REMARK    5  A    between atoms: C_13  and  C_14
REMARK                            x       y       z     vdW  Elec       q    Type
REMARK                         _______ _______ _______ _____ _____    ______ ____
ROOT
ATOM      1  C   UNL     1       1.487   8.397  20.529  0.00  0.00    +0.000 A 
ATOM      2  C   UNL     1       1.169   9.066  19.346  0.00  0.00    +0.000 A 
ATOM      3  C   UNL     1       0.203  10.070  19.333  0.00  0.00    +0.000 A 
ATOM      4  C   UNL     1      -0.502  10.395  20.497  0.00  0.00    +0.000 A 
ATOM      5  C   UNL     1      -0.153   9.764  21.696  0.00  0.00    +0.000 A 
ATOM      6 CL   UNL     1      -0.957  10.135  23.181  0.00  0.00    +0.000 Cl
ATOM      7  C   UNL     1       0.840   8.783  21.710  0.00  0.00    +0.000 A 
ENDROOT
BRANCH   1  12
ATOM      8  C   UNL     1       5.234   4.500  18.490  0.00  0.00    +0.000 A 
ATOM      9  C   UNL     1       4.623   5.589  19.072  0.00  0.00    +0.000 A 
ATOM     10  C   UNL     1       3.307   5.281  19.568  0.00  0.00    +0.000 A 
ATOM     11  C   UNL     1       2.304   6.049  20.187  0.00  0.00    +0.000 A 
ATOM     12  N   UNL     1       2.474   7.401  20.501  0.00  0.00    +0.000 N 
ATOM     13  N   UNL     1       1.137   5.441  20.510  0.00  0.00    +0.000 NA
ATOM     14  C   UNL     1       0.978   4.140  20.243  0.00  0.00    +0.000 A 
ATOM     15  N   UNL     1       1.853   3.325  19.654  0.00  0.00    +0.000 NA
ATOM     16  C   UNL     1       2.996   3.951  19.332  0.00  0.00    +0.000 A 
ATOM     17  S   UNL     1       4.248   3.109  18.544  0.00  0.00    +0.000 S 
ATOM     18  H   UNL     1       3.419   7.751  20.430  0.00  0.00    +0.000 HD
BRANCH   8  20
ATOM     19  C   UNL     1       7.615   4.484  17.382  0.00  0.00    +0.000 C 
ATOM     20  C   UNL     1       6.530   4.504  17.898  0.00  0.00    +0.000 C 
ENDBRANCH   8  20
ENDBRANCH   1  12
BRANCH   4  21
ATOM     21  O   UNL     1      -1.523  11.312  20.524  0.00  0.00    +0.000 OA
BRANCH  21  22
ATOM     22  C   UNL     1      -1.525  12.229  19.429  0.00  0.00    +0.000 C 
BRANCH  22  23
ATOM     23  C   UNL     1      -2.543  11.852  18.382  0.00  0.00    +0.000 A 
ATOM     24  C   UNL     1      -3.915  11.803  18.665  0.00  0.00    +0.000 A 
ATOM     25  C   UNL     1      -4.823  11.363  17.699  0.00  0.00    +0.000 A 
ATOM     26  C   UNL     1      -4.366  10.958  16.447  0.00  0.00    +0.000 A 
ATOM     27  C   UNL     1      -3.006  10.994  16.169  0.00  0.00    +0.000 A 
ATOM     28  F   UNL     1      -2.562  10.588  14.973  0.00  0.00    +0.000 F 
ATOM     29  C   UNL     1      -2.094  11.433  17.121  0.00  0.00    +0.000 A 
ENDBRANCH  22  23
ENDBRANCH  21  22
ENDBRANCH   4  21
TORSDOF 5
ENDMDL
MODEL 5
REMARK VINA RESULT:      -8.3      2.727      3.232
REMARK  Name = 
REMARK  5 active torsions:
REMARK  status: ('A' for Active; 'I' for Inactive)
REMARK    1  A    between atoms: C_2  and  C_3
REMARK    2  A    between atoms: N_7  and  C_8
REMARK    3  A    between atoms: C_11  and  O_12
REMARK    4  A    between atoms: O_12  and  C_13
REMARK    5  A    between atoms: C_13  and  C_14
REMARK                            x       y       z     vdW  Elec       q    Type
REMARK                         _______ _______ _______ _____ _____    ______ ____
ROOT
ATOM      1  C   UNL     1       1.647   8.149  20.206  0.00  0.00    +0.000 A 
ATOM      2  C   UNL     1       1.190   9.007  19.205  0.00  0.00    +0.000 A 
ATOM      3  C   UNL     1       0.290  10.030  19.500  0.00  0.00    +0.000 A 
ATOM      4  C   UNL     1      -0.210  10.187  20.796  0.00  0.00    +0.000 A 
ATOM      5  C   UNL     1       0.282   9.362  21.814  0.00  0.00    +0.000 A 
ATOM      6 CL   UNL     1      -0.264   9.517  23.447  0.00  0.00    +0.000 Cl
ATOM      7  C   UNL     1       1.210   8.362  21.520  0.00  0.00    +0.000 A 
ENDROOT
BRANCH   1  12
ATOM      8  C   UNL     1       4.373   4.066  17.158  0.00  0.00    +0.000 A 
ATOM      9  C   UNL     1       4.018   5.203  17.853  0.00  0.00    +0.000 A 
ATOM     10  C   UNL     1       3.001   4.948  18.839  0.00  0.00    +0.000 A 
ATOM     11  C   UNL     1       2.303   5.772  19.742  0.00  0.00    +0.000 A 
ATOM     12  N   UNL     1       2.561   7.140  19.870  0.00  0.00    +0.000 N 
ATOM     13  N   UNL     1       1.360   5.204  20.533  0.00  0.00    +0.000 NA
ATOM     14  C   UNL     1       1.130   3.889  20.440  0.00  0.00    +0.000 A 
ATOM     15  N   UNL     1       1.722   3.024  19.618  0.00  0.00    +0.000 NA
ATOM     16  C   UNL     1       2.642   3.609  18.836  0.00  0.00    +0.000 A 
ATOM     17  S   UNL     1       3.505   2.697  17.688  0.00  0.00    +0.000 S 
ATOM     18  H   UNL     1       3.400   7.471  19.415  0.00  0.00    +0.000 HD
BRANCH   8  20
ATOM     19  C   UNL     1       6.175   3.978  15.250  0.00  0.00    +0.000 C 
ATOM     20  C   UNL     1       5.340   4.010  16.114  0.00  0.00    +0.000 C 
ENDBRANCH   8  20
ENDBRANCH   1  12
BRANCH   4  21
ATOM     21  O   UNL     1      -1.162  11.119  21.125  0.00  0.00    +0.000 OA
BRANCH  21  22
ATOM     22  C   UNL     1      -0.643  12.319  21.700  0.00  0.00    +0.000 C 
BRANCH  22  23
ATOM     23  C   UNL     1      -1.548  12.864  22.776  0.00  0.00    +0.000 A 
ATOM     24  C   UNL     1      -2.801  12.296  23.049  0.00  0.00    +0.000 A 
ATOM     25  C   UNL     1      -3.654  12.879  23.990  0.00  0.00    +0.000 A 
ATOM     26  C   UNL     1      -3.267  14.040  24.656  0.00  0.00    +0.000 A 
ATOM     27  C   UNL     1      -2.032  14.610  24.377  0.00  0.00    +0.000 A 
ATOM     28  F   UNL     1      -1.664  15.736  25.002  0.00  0.00    +0.000 F 
ATOM     29  C   UNL     1      -1.174  14.038  23.447  0.00  0.00    +0.000 A 
ENDBRANCH  22  23
ENDBRANCH  21  22
ENDBRANCH   4  21
TORSDOF 5
ENDMDL
MODEL 6
REMARK VINA RESULT:      -8.2      2.735      3.334
REMARK  Name = 
REMARK  5 active torsions:
REMARK  status: ('A' for Active; 'I' for Inactive)
REMARK    1  A    between atoms: C_2  and  C_3
REMARK    2  A    between atoms: N_7  and  C_8
REMARK    3  A    between atoms: C_11  and  O_12
REMARK    4  A    between atoms: O_12  and  C_13
REMARK    5  A    between atoms: C_13  and  C_14
REMARK                            x       y       z     vdW  Elec       q    Type
REMARK                         _______ _______ _______ _____ _____    ______ ____
ROOT
ATOM      1  C   UNL     1       1.584   8.158  20.267  0.00  0.00    +0.000 A 
ATOM      2  C   UNL     1       1.066   8.175  21.562  0.00  0.00    +0.000 A 
ATOM      3  C   UNL     1       0.129   9.133  21.943  0.00  0.00    +0.000 A 
ATOM      4  C   UNL     1      -0.275  10.128  21.047  0.00  0.00    +0.000 A 
ATOM      5  C   UNL     1       0.202  10.089  19.732  0.00  0.00    +0.000 A 
ATOM      6 CL   UNL     1      -0.276  11.265  18.560  0.00  0.00    +0.000 Cl
ATOM      7  C   UNL     1       1.115   9.104  19.347  0.00  0.00    +0.000 A 
ENDROOT
BRANCH   1  12
ATOM      8  C   UNL     1       4.329   4.092  17.213  0.00  0.00    +0.000 A 
ATOM      9  C   UNL     1       3.963   5.233  17.895  0.00  0.00    +0.000 A 
ATOM     10  C   UNL     1       2.989   4.970  18.922  0.00  0.00    +0.000 A 
ATOM     11  C   UNL     1       2.299   5.792  19.832  0.00  0.00    +0.000 A 
ATOM     12  N   UNL     1       2.517   7.170  19.920  0.00  0.00    +0.000 N 
ATOM     13  N   UNL     1       1.402   5.214  20.668  0.00  0.00    +0.000 NA
ATOM     14  C   UNL     1       1.211   3.891  20.612  0.00  0.00    +0.000 A 
ATOM     15  N   UNL     1       1.800   3.025  19.789  0.00  0.00    +0.000 NA
ATOM     16  C   UNL     1       2.673   3.620  18.962  0.00  0.00    +0.000 A 
ATOM     17  S   UNL     1       3.524   2.709  17.803  0.00  0.00    +0.000 S 
ATOM     18  H   UNL     1       3.329   7.517  19.428  0.00  0.00    +0.000 HD
BRANCH   8  20
ATOM     19  C   UNL     1       6.045   3.970  15.229  0.00  0.00    +0.000 C 
ATOM     20  C   UNL     1       5.260   4.042  16.136  0.00  0.00    +0.000 C 
ENDBRANCH   8  20
ENDBRANCH   1  12
BRANCH   4  21
ATOM     21  O   UNL     1      -1.127  11.148  21.393  0.00  0.00    +0.000 OA
BRANCH  21  22
ATOM     22  C   UNL     1      -0.528  12.178  22.180  0.00  0.00    +0.000 C 
BRANCH  22  23
ATOM     23  C   UNL     1      -1.543  12.894  23.035  0.00  0.00    +0.000 A 
ATOM     24  C   UNL     1      -1.278  14.144  23.613  0.00  0.00    +0.000 A 
ATOM     25  C   UNL     1      -2.203  14.739  24.472  0.00  0.00    +0.000 A 
ATOM     26  C   UNL     1      -3.397  14.085  24.771  0.00  0.00    +0.000 A 
ATOM     27  C   UNL     1      -3.656  12.842  24.210  0.00  0.00    +0.000 A 
ATOM     28  F   UNL     1      -4.794  12.202  24.509  0.00  0.00    +0.000 F 
ATOM     29  C   UNL     1      -2.744  12.242  23.350  0.00  0.00    +0.000 A 
ENDBRANCH  22  23
ENDBRANCH  21  22
ENDBRANCH   4  21
TORSDOF 5
ENDMDL
MODEL 7
REMARK VINA RESULT:      -8.2      4.448      9.419
REMARK  Name = 
REMARK  5 active torsions:
REMARK  status: ('A' for Active; 'I' for Inactive)
REMARK    1  A    between atoms: C_2  and  C_3
REMARK    2  A    between atoms: N_7  and  C_8
REMARK    3  A    between atoms: C_11  and  O_12
REMARK    4  A    between atoms: O_12  and  C_13
REMARK    5  A    between atoms: C_13  and  C_14
REMARK                            x       y       z     vdW  Elec       q    Type
REMARK                         _______ _______ _______ _____ _____    ______ ____
ROOT
ATOM      1  C   UNL     1      -0.406  10.166  19.492  0.00  0.00    +0.000 A 
ATOM      2  C   UNL     1      -0.354   9.567  20.751  0.00  0.00    +0.000 A 
ATOM      3  C   UNL     1       0.625   8.621  21.051  0.00  0.00    +0.000 A 
ATOM      4  C   UNL     1       1.545   8.218  20.078  0.00  0.00    +0.000 A 
ATOM      5  C   UNL     1       1.530   8.850  18.829  0.00  0.00    +0.000 A 
ATOM      6 CL   UNL     1       2.656   8.427  17.587  0.00  0.00    +0.000 Cl
ATOM      7  C   UNL     1       0.569   9.823  18.548  0.00  0.00    +0.000 A 
ENDROOT
BRANCH   1  12
ATOM      8  C   UNL     1      -5.609  12.658  19.164  0.00  0.00    +0.000 A 
ATOM      9  C   UNL     1      -4.314  12.304  19.474  0.00  0.00    +0.000 A 
ATOM     10  C   UNL     1      -3.644  11.655  18.377  0.00  0.00    +0.000 A 
ATOM     11  C   UNL     1      -2.364  11.091  18.224  0.00  0.00    +0.000 A 
ATOM     12  N   UNL     1      -1.400  11.122  19.236  0.00  0.00    +0.000 N 
ATOM     13  N   UNL     1      -2.053  10.516  17.037  0.00  0.00    +0.000 NA
ATOM     14  C   UNL     1      -2.958  10.511  16.052  0.00  0.00    +0.000 A 
ATOM     15  N   UNL     1      -4.195  11.004  16.092  0.00  0.00    +0.000 NA
ATOM     16  C   UNL     1      -4.486  11.557  17.280  0.00  0.00    +0.000 A 
ATOM     17  S   UNL     1      -6.024  12.228  17.566  0.00  0.00    +0.000 S 
ATOM     18  H   UNL     1      -1.602  11.732  20.015  0.00  0.00    +0.000 HD
BRANCH   8  20
ATOM     19  C   UNL     1      -7.281  13.822  20.822  0.00  0.00    +0.000 C 
ATOM     20  C   UNL     1      -6.520  13.299  20.051  0.00  0.00    +0.000 C 
ENDBRANCH   8  20
ENDBRANCH   1  12
BRANCH   4  21
ATOM     21  O   UNL     1       2.474   7.229  20.288  0.00  0.00    +0.000 OA
BRANCH  21  22
ATOM     22  C   UNL     1       1.922   5.974  20.689  0.00  0.00    +0.000 C 
BRANCH  22  23
ATOM     23  C   UNL     1       2.089   4.920  19.624  0.00  0.00    +0.000 A 
ATOM     24  C   UNL     1       3.027   5.053  18.589  0.00  0.00    +0.000 A 
ATOM     25  C   UNL     1       3.095   4.103  17.568  0.00  0.00    +0.000 A 
ATOM     26  C   UNL     1       2.220   3.019  17.564  0.00  0.00    +0.000 A 
ATOM     27  C   UNL     1       1.283   2.893  18.581  0.00  0.00    +0.000 A 
ATOM     28  F   UNL     1       0.427   1.862  18.571  0.00  0.00    +0.000 F 
ATOM     29  C   UNL     1       1.207   3.829  19.605  0.00  0.00    +0.000 A 
ENDBRANCH  22  23
ENDBRANCH  21  22
ENDBRANCH   4  21
TORSDOF 5
ENDMDL
MODEL 8
REMARK VINA RESULT:      -8.1      2.951      3.538
REMARK  Name = 
REMARK  5 active torsions:
REMARK  status: ('A' for Active; 'I' for Inactive)
REMARK    1  A    between atoms: C_2  and  C_3
REMARK    2  A    between atoms: N_7  and  C_8
REMARK    3  A    between atoms: C_11  and  O_12
REMARK    4  A    between atoms: O_12  and  C_13
REMARK    5  A    between atoms: C_13  and  C_14
REMARK                            x       y       z     vdW  Elec       q    Type
REMARK                         _______ _______ _______ _____ _____    ______ ____
ROOT
ATOM      1  C   UNL     1       1.598   8.182  20.244  0.00  0.00    +0.000 A 
ATOM      2  C   UNL     1       1.173   8.287  21.569  0.00  0.00    +0.000 A 
ATOM      3  C   UNL     1       0.238   9.250  21.943  0.00  0.00    +0.000 A 
ATOM      4  C   UNL     1      -0.256  10.164  21.007  0.00  0.00    +0.000 A 
ATOM      5  C   UNL     1       0.128  10.034  19.668  0.00  0.00    +0.000 A 
ATOM      6 CL   UNL     1      -0.465  11.105  18.448  0.00  0.00    +0.000 Cl
ATOM      7  C   UNL     1       1.037   9.043  19.292  0.00  0.00    +0.000 A 
ENDROOT
BRANCH   1  12
ATOM      8  C   UNL     1       4.343   4.089  17.227  0.00  0.00    +0.000 A 
ATOM      9  C   UNL     1       3.976   5.236  17.898  0.00  0.00    +0.000 A 
ATOM     10  C   UNL     1       3.004   4.982  18.929  0.00  0.00    +0.000 A 
ATOM     11  C   UNL     1       2.314   5.812  19.832  0.00  0.00    +0.000 A 
ATOM     12  N   UNL     1       2.531   7.191  19.906  0.00  0.00    +0.000 N 
ATOM     13  N   UNL     1       1.420   5.242  20.675  0.00  0.00    +0.000 NA
ATOM     14  C   UNL     1       1.230   3.918  20.633  0.00  0.00    +0.000 A 
ATOM     15  N   UNL     1       1.819   3.045  19.817  0.00  0.00    +0.000 NA
ATOM     16  C   UNL     1       2.690   3.633  18.982  0.00  0.00    +0.000 A 
ATOM     17  S   UNL     1       3.540   2.711  17.832  0.00  0.00    +0.000 S 
ATOM     18  H   UNL     1       3.342   7.534  19.409  0.00  0.00    +0.000 HD
BRANCH   8  20
ATOM     19  C   UNL     1       6.075   3.965  15.257  0.00  0.00    +0.000 C 
ATOM     20  C   UNL     1       5.272   4.029  16.149  0.00  0.00    +0.000 C 
ENDBRANCH   8  20
ENDBRANCH   1  12
BRANCH   4  21
ATOM     21  O   UNL     1      -1.110  11.188  21.336  0.00  0.00    +0.000 OA
BRANCH  21  22
ATOM     22  C   UNL     1      -0.538  12.186  22.183  0.00  0.00    +0.000 C 
BRANCH  22  23
ATOM     23  C   UNL     1      -1.566  12.801  23.100  0.00  0.00    +0.000 A 
ATOM     24  C   UNL     1      -2.823  12.214  23.304  0.00  0.00    +0.000 A 
ATOM     25  C   UNL     1      -3.786  12.854  24.087  0.00  0.00    +0.000 A 
ATOM     26  C   UNL     1      -3.504  14.091  24.664  0.00  0.00    +0.000 A 
ATOM     27  C   UNL     1      -2.264  14.679  24.453  0.00  0.00    +0.000 A 
ATOM     28  F   UNL     1      -1.997  15.877  24.990  0.00  0.00    +0.000 F 
ATOM     29  C   UNL     1      -1.298  14.050  23.678  0.00  0.00    +0.000 A 
ENDBRANCH  22  23
ENDBRANCH  21  22
ENDBRANCH   4  21
TORSDOF 5
ENDMDL
MODEL 9
REMARK VINA RESULT:      -8.1      4.709      9.538
REMARK  Name = 
REMARK  5 active torsions:
REMARK  status: ('A' for Active; 'I' for Inactive)
REMARK    1  A    between atoms: C_2  and  C_3
REMARK    2  A    between atoms: N_7  and  C_8
REMARK    3  A    between atoms: C_11  and  O_12
REMARK    4  A    between atoms: O_12  and  C_13
REMARK    5  A    between atoms: C_13  and  C_14
REMARK                            x       y       z     vdW  Elec       q    Type
REMARK                         _______ _______ _______ _____ _____    ______ ____
ROOT
ATOM      1  C   UNL     1       1.697   8.915  19.134  0.00  0.00    +0.000 A 
ATOM      2  C   UNL     1       2.275   8.718  17.879  0.00  0.00    +0.000 A 
ATOM      3  C   UNL     1       2.811   7.481  17.527  0.00  0.00    +0.000 A 
ATOM      4  C   UNL     1       2.824   6.425  18.443  0.00  0.00    +0.000 A 
ATOM      5  C   UNL     1       2.203   6.599  19.685  0.00  0.00    +0.000 A 
ATOM      6 CL   UNL     1       2.151   5.330  20.857  0.00  0.00    +0.000 Cl
ATOM      7  C   UNL     1       1.636   7.830  20.018  0.00  0.00    +0.000 A 
ENDROOT
BRANCH   1  12
ATOM      8  C   UNL     1      -1.446  12.995  21.754  0.00  0.00    +0.000 A 
ATOM      9  C   UNL     1      -0.438  12.191  21.267  0.00  0.00    +0.000 A 
ATOM     10  C   UNL     1      -0.800  11.542  20.034  0.00  0.00    +0.000 A 
ATOM     11  C   UNL     1      -0.142  10.621  19.198  0.00  0.00    +0.000 A 
ATOM     12  N   UNL     1       1.158  10.172  19.445  0.00  0.00    +0.000 N 
ATOM     13  N   UNL     1      -0.794  10.173  18.097  0.00  0.00    +0.000 NA
ATOM     14  C   UNL     1      -2.027  10.623  17.836  0.00  0.00    +0.000 A 
ATOM     15  N   UNL     1      -2.742  11.482  18.561  0.00  0.00    +0.000 NA
ATOM     16  C   UNL     1      -2.083  11.903  19.651  0.00  0.00    +0.000 A 
ATOM     17  S   UNL     1      -2.816  12.986  20.740  0.00  0.00    +0.000 S 
ATOM     18  H   UNL     1       1.671  10.682  20.150  0.00  0.00    +0.000 HD
BRANCH   8  20
ATOM     19  C   UNL     1      -1.307  14.400  23.969  0.00  0.00    +0.000 C 
ATOM     20  C   UNL     1      -1.384  13.749  22.961  0.00  0.00    +0.000 C 
ENDBRANCH   8  20
ENDBRANCH   1  12
BRANCH   4  21
ATOM     21  O   UNL     1       3.416   5.214  18.183  0.00  0.00    +0.000 OA
BRANCH  21  22
ATOM     22  C   UNL     1       4.426   5.253  17.173  0.00  0.00    +0.000 C 
BRANCH  22  23
ATOM     23  C   UNL     1       5.754   5.707  17.724  0.00  0.00    +0.000 A 
ATOM     24  C   UNL     1       6.337   5.103  18.847  0.00  0.00    +0.000 A 
ATOM     25  C   UNL     1       7.524   5.605  19.387  0.00  0.00    +0.000 A 
ATOM     26  C   UNL     1       8.131   6.722  18.816  0.00  0.00    +0.000 A 
ATOM     27  C   UNL     1       7.548   7.328  17.711  0.00  0.00    +0.000 A 
ATOM     28  F   UNL     1       8.119   8.413  17.171  0.00  0.00    +0.000 F 
ATOM     29  C   UNL     1       6.370   6.836  17.164  0.00  0.00    +0.000 A 
ENDBRANCH  22  23
ENDBRANCH  21  22
ENDBRANCH   4  21
TORSDOF 5
ENDMDL
