MODEL 1
REMARK VINA RESULT:      -5.8      0.000      0.000
REMARK  Name = 
REMARK  19 active torsions:
REMARK  status: ('A' for Active; 'I' for Inactive)
REMARK    1  A    between atoms: C_1  and  C_2
REMARK    2  A    between atoms: C_2  and  O_3
REMARK    3  A    between atoms: O_3  and  C_4
REMARK    4  A    between atoms: C_4  and  C_6
REMARK    5  A    between atoms: C_6  and  C_7
REMARK    6  A    between atoms: C_7  and  C_8
REMARK    7  A    between atoms: C_8  and  C_9
REMARK    8  A    between atoms: C_9  and  C_10
REMARK    9  A    between atoms: C_10  and  C_11
REMARK   10  A    between atoms: C_11  and  C_12
REMARK   11  A    between atoms: C_12  and  C_13
REMARK   12  A    between atoms: C_13  and  C_14
REMARK   13  A    between atoms: C_14  and  C_15
REMARK   14  A    between atoms: C_15  and  C_16
REMARK   15  A    between atoms: C_16  and  C_17
REMARK   16  A    between atoms: C_17  and  C_18
REMARK   17  A    between atoms: C_18  and  O_20
REMARK   18  A    between atoms: O_20  and  C_21
REMARK   19  A    between atoms: C_21  and  C_22
REMARK                            x       y       z     vdW  Elec       q    Type
REMARK                         _______ _______ _______ _____ _____    ______ ____
ROOT
ATOM      1  C   UNL     1       4.332   5.489  17.038  0.00  0.00    +0.000 C 
ENDROOT
BRANCH   1   2
ATOM      2  C   UNL     1       5.123   6.572  16.323  0.00  0.00    +0.000 C 
BRANCH   2   3
ATOM      3  C   UNL     1       6.606   6.247  16.393  0.00  0.00    +0.000 C 
BRANCH   3   4
ATOM      4  C   UNL     1       6.804   4.748  16.240  0.00  0.00    +0.000 C 
BRANCH   4   5
ATOM      5  C   UNL     1       7.233   4.436  14.816  0.00  0.00    +0.000 C 
BRANCH   5   6
ATOM      6  C   UNL     1       6.044   3.904  14.034  0.00  0.00    +0.000 C 
BRANCH   6   7
ATOM      7  C   UNL     1       6.432   3.734  12.574  0.00  0.00    +0.000 C 
BRANCH   7   8
ATOM      8  C   UNL     1       5.437   2.813  11.888  0.00  0.00    +0.000 C 
ATOM      9  N   UNL     1       5.838   1.659  11.399  0.00  0.00    +0.000 NA
ATOM     10  H   UNL     1       6.782   1.392  11.479  0.00  0.00    +0.000 HD
BRANCH   8  11
ATOM     11  O   UNL     1       4.075   3.198  11.773  0.00  0.00    +0.000 OA
BRANCH  11  12
ATOM     12  C   UNL     1       3.379   2.990  10.555  0.00  0.00    +0.000 C 
ATOM     13  C   UNL     1       3.100   4.329   9.893  0.00  0.00    +0.000 C 
ENDBRANCH  11  12
ENDBRANCH   8  11
ENDBRANCH   7   8
ENDBRANCH   6   7
ENDBRANCH   5   6
ENDBRANCH   4   5
ENDBRANCH   3   4
ENDBRANCH   2   3
ENDBRANCH   1   2
BRANCH   1  14
ATOM     14  C   UNL     1       3.929   5.983  18.418  0.00  0.00    +0.000 C 
BRANCH  14  15
ATOM     15  C   UNL     1       4.504   5.056  19.475  0.00  0.00    +0.000 C 
BRANCH  15  16
ATOM     16  C   UNL     1       5.040   3.799  18.810  0.00  0.00    +0.000 C 
BRANCH  16  17
ATOM     17  C   UNL     1       4.209   2.602  19.244  0.00  0.00    +0.000 C 
BRANCH  17  18
ATOM     18  C   UNL     1       3.289   2.185  18.107  0.00  0.00    +0.000 C 
BRANCH  18  19
ATOM     19  C   UNL     1       1.908   2.780  18.329  0.00  0.00    +0.000 C 
ATOM     20  N   UNL     1       1.436   3.679  17.492  0.00  0.00    +0.000 NA
ATOM     21  H   UNL     1       0.542   4.063  17.636  0.00  0.00    +0.000 HD
BRANCH  19  22
ATOM     22  O   UNL     1       1.127   2.365  19.441  0.00  0.00    +0.000 OA
BRANCH  22  24
ATOM     23  C   UNL     1       1.782   3.113  21.627  0.00  0.00    +0.000 C 
ATOM     24  C   UNL     1       0.811   3.291  20.471  0.00  0.00    +0.000 C 
ENDBRANCH  22  24
ENDBRANCH  19  22
ENDBRANCH  18  19
ENDBRANCH  17  18
ENDBRANCH  16  17
ENDBRANCH  15  16
ENDBRANCH  14  15
ENDBRANCH   1  14
TORSDOF 17
ENDMDL
MODEL 2
REMARK VINA RESULT:      -5.5      3.440      5.049
REMARK  Name = 
REMARK  19 active torsions:
REMARK  status: ('A' for Active; 'I' for Inactive)
REMARK    1  A    between atoms: C_1  and  C_2
REMARK    2  A    between atoms: C_2  and  O_3
REMARK    3  A    between atoms: O_3  and  C_4
REMARK    4  A    between atoms: C_4  and  C_6
REMARK    5  A    between atoms: C_6  and  C_7
REMARK    6  A    between atoms: C_7  and  C_8
REMARK    7  A    between atoms: C_8  and  C_9
REMARK    8  A    between atoms: C_9  and  C_10
REMARK    9  A    between atoms: C_10  and  C_11
REMARK   10  A    between atoms: C_11  and  C_12
REMARK   11  A    between atoms: C_12  and  C_13
REMARK   12  A    between atoms: C_13  and  C_14
REMARK   13  A    between atoms: C_14  and  C_15
REMARK   14  A    between atoms: C_15  and  C_16
REMARK   15  A    between atoms: C_16  and  C_17
REMARK   16  A    between atoms: C_17  and  C_18
REMARK   17  A    between atoms: C_18  and  O_20
REMARK   18  A    between atoms: O_20  and  C_21
REMARK   19  A    between atoms: C_21  and  C_22
REMARK                            x       y       z     vdW  Elec       q    Type
REMARK                         _______ _______ _______ _____ _____    ______ ____
ROOT
ATOM      1  C   UNL     1       1.808   2.577  19.897  0.00  0.00    +0.000 C 
ENDROOT
BRANCH   1   2
ATOM      2  C   UNL     1       2.834   1.979  18.947  0.00  0.00    +0.000 C 
BRANCH   2   3
ATOM      3  C   UNL     1       2.432   2.280  17.512  0.00  0.00    +0.000 C 
BRANCH   3   4
ATOM      4  C   UNL     1       2.721   3.739  17.200  0.00  0.00    +0.000 C 
BRANCH   4   5
ATOM      5  C   UNL     1       4.209   3.918  16.944  0.00  0.00    +0.000 C 
BRANCH   5   6
ATOM      6  C   UNL     1       4.548   5.399  16.947  0.00  0.00    +0.000 C 
BRANCH   6   7
ATOM      7  C   UNL     1       5.274   5.755  15.660  0.00  0.00    +0.000 C 
BRANCH   7   8
ATOM      8  C   UNL     1       6.598   5.011  15.601  0.00  0.00    +0.000 C 
ATOM      9  N   UNL     1       7.516   5.230  16.518  0.00  0.00    +0.000 NA
ATOM     10  H   UNL     1       7.345   5.874  17.242  0.00  0.00    +0.000 HD
BRANCH   8  11
ATOM     11  O   UNL     1       6.845   4.081  14.557  0.00  0.00    +0.000 OA
BRANCH  11  12
ATOM     12  C   UNL     1       5.826   3.777  13.620  0.00  0.00    +0.000 C 
ATOM     13  C   UNL     1       6.440   3.588  12.243  0.00  0.00    +0.000 C 
ENDBRANCH  11  12
ENDBRANCH   8  11
ENDBRANCH   7   8
ENDBRANCH   6   7
ENDBRANCH   5   6
ENDBRANCH   4   5
ENDBRANCH   3   4
ENDBRANCH   2   3
ENDBRANCH   1   2
BRANCH   1  14
ATOM     14  C   UNL     1       2.520   3.388  20.966  0.00  0.00    +0.000 C 
BRANCH  14  15
ATOM     15  C   UNL     1       1.982   4.809  20.965  0.00  0.00    +0.000 C 
BRANCH  15  16
ATOM     16  C   UNL     1       2.800   5.659  20.006  0.00  0.00    +0.000 C 
BRANCH  16  17
ATOM     17  C   UNL     1       2.279   7.087  20.023  0.00  0.00    +0.000 C 
BRANCH  17  18
ATOM     18  C   UNL     1       2.177   7.606  18.598  0.00  0.00    +0.000 C 
BRANCH  18  19
ATOM     19  C   UNL     1       1.703   9.051  18.618  0.00  0.00    +0.000 C 
ATOM     20  N   UNL     1       1.709   9.761  17.511  0.00  0.00    +0.000 NA
ATOM     21  H   UNL     1       1.402  10.696  17.524  0.00  0.00    +0.000 HD
BRANCH  19  22
ATOM     22  O   UNL     1       1.253   9.633  19.833  0.00  0.00    +0.000 OA
BRANCH  22  24
ATOM     23  C   UNL     1      -0.300   9.020  21.559  0.00  0.00    +0.000 C 
ATOM     24  C   UNL     1      -0.128   9.603  20.166  0.00  0.00    +0.000 C 
ENDBRANCH  22  24
ENDBRANCH  19  22
ENDBRANCH  18  19
ENDBRANCH  17  18
ENDBRANCH  16  17
ENDBRANCH  15  16
ENDBRANCH  14  15
ENDBRANCH   1  14
TORSDOF 17
ENDMDL
MODEL 3
REMARK VINA RESULT:      -5.4      4.546      8.008
REMARK  Name = 
REMARK  19 active torsions:
REMARK  status: ('A' for Active; 'I' for Inactive)
REMARK    1  A    between atoms: C_1  and  C_2
REMARK    2  A    between atoms: C_2  and  O_3
REMARK    3  A    between atoms: O_3  and  C_4
REMARK    4  A    between atoms: C_4  and  C_6
REMARK    5  A    between atoms: C_6  and  C_7
REMARK    6  A    between atoms: C_7  and  C_8
REMARK    7  A    between atoms: C_8  and  C_9
REMARK    8  A    between atoms: C_9  and  C_10
REMARK    9  A    between atoms: C_10  and  C_11
REMARK   10  A    between atoms: C_11  and  C_12
REMARK   11  A    between atoms: C_12  and  C_13
REMARK   12  A    between atoms: C_13  and  C_14
REMARK   13  A    between atoms: C_14  and  C_15
REMARK   14  A    between atoms: C_15  and  C_16
REMARK   15  A    between atoms: C_16  and  C_17
REMARK   16  A    between atoms: C_17  and  C_18
REMARK   17  A    between atoms: C_18  and  O_20
REMARK   18  A    between atoms: O_20  and  C_21
REMARK   19  A    between atoms: C_21  and  C_22
REMARK                            x       y       z     vdW  Elec       q    Type
REMARK                         _______ _______ _______ _____ _____    ______ ____
ROOT
ATOM      1  C   UNL     1       2.486   4.607  21.025  0.00  0.00    +0.000 C 
ENDROOT
BRANCH   1   2
ATOM      2  C   UNL     1       1.806   5.781  20.338  0.00  0.00    +0.000 C 
BRANCH   2   3
ATOM      3  C   UNL     1       2.814   6.508  19.463  0.00  0.00    +0.000 C 
BRANCH   3   4
ATOM      4  C   UNL     1       2.112   7.060  18.233  0.00  0.00    +0.000 C 
BRANCH   4   5
ATOM      5  C   UNL     1       2.642   8.452  17.928  0.00  0.00    +0.000 C 
BRANCH   5   6
ATOM      6  C   UNL     1       1.499   9.452  17.980  0.00  0.00    +0.000 C 
BRANCH   6   7
ATOM      7  C   UNL     1       0.829   9.384  19.343  0.00  0.00    +0.000 C 
BRANCH   7   8
ATOM      8  C   UNL     1       0.801  10.771  19.964  0.00  0.00    +0.000 C 
ATOM      9  N   UNL     1       1.119  10.931  21.231  0.00  0.00    +0.000 NA
ATOM     10  H   UNL     1       1.376  10.153  21.776  0.00  0.00    +0.000 HD
BRANCH   8  11
ATOM     11  O   UNL     1       0.430  11.895  19.178  0.00  0.00    +0.000 OA
BRANCH  11  12
ATOM     12  C   UNL     1       0.072  13.114  19.807  0.00  0.00    +0.000 C 
ATOM     13  C   UNL     1      -0.147  14.186  18.752  0.00  0.00    +0.000 C 
ENDBRANCH  11  12
ENDBRANCH   8  11
ENDBRANCH   7   8
ENDBRANCH   6   7
ENDBRANCH   5   6
ENDBRANCH   4   5
ENDBRANCH   3   4
ENDBRANCH   2   3
ENDBRANCH   1   2
BRANCH   1  14
ATOM     14  C   UNL     1       1.516   3.441  21.115  0.00  0.00    +0.000 C 
BRANCH  14  15
ATOM     15  C   UNL     1       0.793   3.281  19.788  0.00  0.00    +0.000 C 
BRANCH  15  16
ATOM     16  C   UNL     1       1.372   2.093  19.037  0.00  0.00    +0.000 C 
BRANCH  16  17
ATOM     17  C   UNL     1       2.177   2.589  17.846  0.00  0.00    +0.000 C 
BRANCH  17  18
ATOM     18  C   UNL     1       3.650   2.292  18.070  0.00  0.00    +0.000 C 
BRANCH  18  19
ATOM     19  C   UNL     1       4.463   3.557  17.843  0.00  0.00    +0.000 C 
ATOM     20  N   UNL     1       5.475   3.840  18.634  0.00  0.00    +0.000 NA
ATOM     21  H   UNL     1       6.001   4.659  18.486  0.00  0.00    +0.000 HD
BRANCH  19  22
ATOM     22  O   UNL     1       4.128   4.433  16.776  0.00  0.00    +0.000 OA
BRANCH  22  24
ATOM     23  C   UNL     1       5.164   6.464  16.022  0.00  0.00    +0.000 C 
ATOM     24  C   UNL     1       5.148   4.946  15.933  0.00  0.00    +0.000 C 
ENDBRANCH  22  24
ENDBRANCH  19  22
ENDBRANCH  18  19
ENDBRANCH  17  18
ENDBRANCH  16  17
ENDBRANCH  15  16
ENDBRANCH  14  15
ENDBRANCH   1  14
TORSDOF 17
ENDMDL
MODEL 4
REMARK VINA RESULT:      -5.4      3.903      6.355
REMARK  Name = 
REMARK  19 active torsions:
REMARK  status: ('A' for Active; 'I' for Inactive)
REMARK    1  A    between atoms: C_1  and  C_2
REMARK    2  A    between atoms: C_2  and  O_3
REMARK    3  A    between atoms: O_3  and  C_4
REMARK    4  A    between atoms: C_4  and  C_6
REMARK    5  A    between atoms: C_6  and  C_7
REMARK    6  A    between atoms: C_7  and  C_8
REMARK    7  A    between atoms: C_8  and  C_9
REMARK    8  A    between atoms: C_9  and  C_10
REMARK    9  A    between atoms: C_10  and  C_11
REMARK   10  A    between atoms: C_11  and  C_12
REMARK   11  A    between atoms: C_12  and  C_13
REMARK   12  A    between atoms: C_13  and  C_14
REMARK   13  A    between atoms: C_14  and  C_15
REMARK   14  A    between atoms: C_15  and  C_16
REMARK   15  A    between atoms: C_16  and  C_17
REMARK   16  A    between atoms: C_17  and  C_18
REMARK   17  A    between atoms: C_18  and  O_20
REMARK   18  A    between atoms: O_20  and  C_21
REMARK   19  A    between atoms: C_21  and  C_22
REMARK                            x       y       z     vdW  Elec       q    Type
REMARK                         _______ _______ _______ _____ _____    ______ ____
ROOT
ATOM      1  C   UNL     1       1.062   4.256  19.934  0.00  0.00    +0.000 C 
ENDROOT
BRANCH   1   2
ATOM      2  C   UNL     1       1.200   2.785  20.292  0.00  0.00    +0.000 C 
BRANCH   2   3
ATOM      3  C   UNL     1       2.341   2.175  19.494  0.00  0.00    +0.000 C 
BRANCH   3   4
ATOM      4  C   UNL     1       2.412   2.833  18.126  0.00  0.00    +0.000 C 
BRANCH   4   5
ATOM      5  C   UNL     1       3.864   2.952  17.695  0.00  0.00    +0.000 C 
BRANCH   5   6
ATOM      6  C   UNL     1       4.076   4.281  16.989  0.00  0.00    +0.000 C 
BRANCH   6   7
ATOM      7  C   UNL     1       5.130   4.117  15.906  0.00  0.00    +0.000 C 
BRANCH   7   8
ATOM      8  C   UNL     1       6.087   5.296  15.947  0.00  0.00    +0.000 C 
ATOM      9  N   UNL     1       5.673   6.493  15.587  0.00  0.00    +0.000 NA
ATOM     10  H   UNL     1       4.742   6.623  15.293  0.00  0.00    +0.000 HD
BRANCH   8  11
ATOM     11  O   UNL     1       7.429   5.109  16.372  0.00  0.00    +0.000 OA
BRANCH  11  12
ATOM     12  C   UNL     1       7.699   4.610  17.671  0.00  0.00    +0.000 C 
ATOM     13  C   UNL     1       7.108   5.548  18.710  0.00  0.00    +0.000 C 
ENDBRANCH  11  12
ENDBRANCH   8  11
ENDBRANCH   7   8
ENDBRANCH   6   7
ENDBRANCH   5   6
ENDBRANCH   4   5
ENDBRANCH   3   4
ENDBRANCH   2   3
ENDBRANCH   1   2
BRANCH   1  14
ATOM     14  C   UNL     1       2.047   5.073  20.754  0.00  0.00    +0.000 C 
BRANCH  14  15
ATOM     15  C   UNL     1       1.955   6.534  20.348  0.00  0.00    +0.000 C 
BRANCH  15  16
ATOM     16  C   UNL     1       2.160   6.656  18.847  0.00  0.00    +0.000 C 
BRANCH  16  17
ATOM     17  C   UNL     1       2.648   8.057  18.515  0.00  0.00    +0.000 C 
BRANCH  17  18
ATOM     18  C   UNL     1       1.705   8.696  17.507  0.00  0.00    +0.000 C 
BRANCH  18  19
ATOM     19  C   UNL     1       0.794   9.682  18.221  0.00  0.00    +0.000 C 
ATOM     20  N   UNL     1      -0.409   9.927  17.749  0.00  0.00    +0.000 NA
ATOM     21  H   UNL     1      -0.999  10.565  18.211  0.00  0.00    +0.000 HD
BRANCH  19  22
ATOM     22  O   UNL     1       1.243  10.339  19.398  0.00  0.00    +0.000 OA
BRANCH  22  24
ATOM     23  C   UNL     1       2.215  12.314  18.438  0.00  0.00    +0.000 C 
ATOM     24  C   UNL     1       1.240  11.758  19.463  0.00  0.00    +0.000 C 
ENDBRANCH  22  24
ENDBRANCH  19  22
ENDBRANCH  18  19
ENDBRANCH  17  18
ENDBRANCH  16  17
ENDBRANCH  15  16
ENDBRANCH  14  15
ENDBRANCH   1  14
TORSDOF 17
ENDMDL
MODEL 5
REMARK VINA RESULT:      -5.3      5.506      7.132
REMARK  Name = 
REMARK  19 active torsions:
REMARK  status: ('A' for Active; 'I' for Inactive)
REMARK    1  A    between atoms: C_1  and  C_2
REMARK    2  A    between atoms: C_2  and  O_3
REMARK    3  A    between atoms: O_3  and  C_4
REMARK    4  A    between atoms: C_4  and  C_6
REMARK    5  A    between atoms: C_6  and  C_7
REMARK    6  A    between atoms: C_7  and  C_8
REMARK    7  A    between atoms: C_8  and  C_9
REMARK    8  A    between atoms: C_9  and  C_10
REMARK    9  A    between atoms: C_10  and  C_11
REMARK   10  A    between atoms: C_11  and  C_12
REMARK   11  A    between atoms: C_12  and  C_13
REMARK   12  A    between atoms: C_13  and  C_14
REMARK   13  A    between atoms: C_14  and  C_15
REMARK   14  A    between atoms: C_15  and  C_16
REMARK   15  A    between atoms: C_16  and  C_17
REMARK   16  A    between atoms: C_17  and  C_18
REMARK   17  A    between atoms: C_18  and  O_20
REMARK   18  A    between atoms: O_20  and  C_21
REMARK   19  A    between atoms: C_21  and  C_22
REMARK                            x       y       z     vdW  Elec       q    Type
REMARK                         _______ _______ _______ _____ _____    ______ ____
ROOT
ATOM      1  C   UNL     1       2.814   6.786  18.821  0.00  0.00    +0.000 C 
ENDROOT
BRANCH   1   2
ATOM      2  C   UNL     1       2.310   5.654  17.941  0.00  0.00    +0.000 C 
BRANCH   2   3
ATOM      3  C   UNL     1       2.462   4.333  18.679  0.00  0.00    +0.000 C 
BRANCH   3   4
ATOM      4  C   UNL     1       3.645   3.567  18.109  0.00  0.00    +0.000 C 
BRANCH   4   5
ATOM      5  C   UNL     1       4.509   4.508  17.286  0.00  0.00    +0.000 C 
BRANCH   5   6
ATOM      6  C   UNL     1       5.081   3.758  16.094  0.00  0.00    +0.000 C 
BRANCH   6   7
ATOM      7  C   UNL     1       6.028   4.668  15.330  0.00  0.00    +0.000 C 
BRANCH   7   8
ATOM      8  C   UNL     1       7.177   5.079  16.235  0.00  0.00    +0.000 C 
ATOM      9  N   UNL     1       7.887   4.161  16.856  0.00  0.00    +0.000 NA
ATOM     10  H   UNL     1       7.674   3.208  16.733  0.00  0.00    +0.000 HD
BRANCH   8  11
ATOM     11  O   UNL     1       7.486   6.454  16.412  0.00  0.00    +0.000 OA
BRANCH  11  12
ATOM     12  C   UNL     1       7.293   7.068  17.674  0.00  0.00    +0.000 C 
ATOM     13  C   UNL     1       7.926   8.450  17.671  0.00  0.00    +0.000 C 
ENDBRANCH  11  12
ENDBRANCH   8  11
ENDBRANCH   7   8
ENDBRANCH   6   7
ENDBRANCH   5   6
ENDBRANCH   4   5
ENDBRANCH   3   4
ENDBRANCH   2   3
ENDBRANCH   1   2
BRANCH   1  14
ATOM     14  C   UNL     1       2.889   8.067  18.005  0.00  0.00    +0.000 C 
BRANCH  14  15
ATOM     15  C   UNL     1       1.554   8.790  18.076  0.00  0.00    +0.000 C 
BRANCH  15  16
ATOM     16  C   UNL     1       1.794  10.286  18.189  0.00  0.00    +0.000 C 
BRANCH  16  17
ATOM     17  C   UNL     1       0.609  10.939  18.882  0.00  0.00    +0.000 C 
BRANCH  17  18
ATOM     18  C   UNL     1      -0.681  10.313  18.376  0.00  0.00    +0.000 C 
BRANCH  18  19
ATOM     19  C   UNL     1      -1.686  11.409  18.057  0.00  0.00    +0.000 C 
ATOM     20  N   UNL     1      -1.302  12.482  17.399  0.00  0.00    +0.000 NA
ATOM     21  H   UNL     1      -1.952  13.191  17.193  0.00  0.00    +0.000 HD
BRANCH  19  22
ATOM     22  O   UNL     1      -3.038  11.274  18.469  0.00  0.00    +0.000 OA
BRANCH  22  24
ATOM     23  C   UNL     1      -4.873  11.516  16.939  0.00  0.00    +0.000 C 
ATOM     24  C   UNL     1      -3.955  10.546  17.665  0.00  0.00    +0.000 C 
ENDBRANCH  22  24
ENDBRANCH  19  22
ENDBRANCH  18  19
ENDBRANCH  17  18
ENDBRANCH  16  17
ENDBRANCH  15  16
ENDBRANCH  14  15
ENDBRANCH   1  14
TORSDOF 17
ENDMDL
MODEL 6
REMARK VINA RESULT:      -5.3      5.243      6.966
REMARK  Name = 
REMARK  19 active torsions:
REMARK  status: ('A' for Active; 'I' for Inactive)
REMARK    1  A    between atoms: C_1  and  C_2
REMARK    2  A    between atoms: C_2  and  O_3
REMARK    3  A    between atoms: O_3  and  C_4
REMARK    4  A    between atoms: C_4  and  C_6
REMARK    5  A    between atoms: C_6  and  C_7
REMARK    6  A    between atoms: C_7  and  C_8
REMARK    7  A    between atoms: C_8  and  C_9
REMARK    8  A    between atoms: C_9  and  C_10
REMARK    9  A    between atoms: C_10  and  C_11
REMARK   10  A    between atoms: C_11  and  C_12
REMARK   11  A    between atoms: C_12  and  C_13
REMARK   12  A    between atoms: C_13  and  C_14
REMARK   13  A    between atoms: C_14  and  C_15
REMARK   14  A    between atoms: C_15  and  C_16
REMARK   15  A    between atoms: C_16  and  C_17
REMARK   16  A    between atoms: C_17  and  C_18
REMARK   17  A    between atoms: C_18  and  O_20
REMARK   18  A    between atoms: O_20  and  C_21
REMARK   19  A    between atoms: C_21  and  C_22
REMARK                            x       y       z     vdW  Elec       q    Type
REMARK                         _______ _______ _______ _____ _____    ______ ____
ROOT
ATOM      1  C   UNL     1       2.788   6.345  19.747  0.00  0.00    +0.000 C 
ENDROOT
BRANCH   1   2
ATOM      2  C   UNL     1       1.822   5.337  20.349  0.00  0.00    +0.000 C 
BRANCH   2   3
ATOM      3  C   UNL     1       2.095   3.961  19.765  0.00  0.00    +0.000 C 
BRANCH   3   4
ATOM      4  C   UNL     1       1.429   3.847  18.403  0.00  0.00    +0.000 C 
BRANCH   4   5
ATOM      5  C   UNL     1       2.407   3.242  17.409  0.00  0.00    +0.000 C 
BRANCH   5   6
ATOM      6  C   UNL     1       3.829   3.532  17.859  0.00  0.00    +0.000 C 
BRANCH   6   7
ATOM      7  C   UNL     1       4.479   4.507  16.891  0.00  0.00    +0.000 C 
BRANCH   7   8
ATOM      8  C   UNL     1       5.990   4.432  17.032  0.00  0.00    +0.000 C 
ATOM      9  N   UNL     1       6.526   4.074  18.180  0.00  0.00    +0.000 NA
ATOM     10  H   UNL     1       5.948   3.853  18.946  0.00  0.00    +0.000 HD
BRANCH   8  11
ATOM     11  O   UNL     1       6.824   4.750  15.928  0.00  0.00    +0.000 OA
BRANCH  11  12
ATOM     12  C   UNL     1       6.249   5.078  14.675  0.00  0.00    +0.000 C 
ATOM     13  C   UNL     1       6.254   3.853  13.775  0.00  0.00    +0.000 C 
ENDBRANCH  11  12
ENDBRANCH   8  11
ENDBRANCH   7   8
ENDBRANCH   6   7
ENDBRANCH   5   6
ENDBRANCH   4   5
ENDBRANCH   3   4
ENDBRANCH   2   3
ENDBRANCH   1   2
BRANCH   1  14
ATOM     14  C   UNL     1       2.071   7.667  19.531  0.00  0.00    +0.000 C 
BRANCH  14  15
ATOM     15  C   UNL     1       2.124   8.037  18.058  0.00  0.00    +0.000 C 
BRANCH  15  16
ATOM     16  C   UNL     1       1.720   9.492  17.886  0.00  0.00    +0.000 C 
BRANCH  16  17
ATOM     17  C   UNL     1       0.237   9.645  18.187  0.00  0.00    +0.000 C 
BRANCH  17  18
ATOM     18  C   UNL     1      -0.016  11.013  18.800  0.00  0.00    +0.000 C 
BRANCH  18  19
ATOM     19  C   UNL     1      -1.099  11.730  18.009  0.00  0.00    +0.000 C 
ATOM     20  N   UNL     1      -0.964  13.005  17.715  0.00  0.00    +0.000 NA
ATOM     21  H   UNL     1      -1.665  13.469  17.203  0.00  0.00    +0.000 HD
BRANCH  19  22
ATOM     22  O   UNL     1      -2.257  11.022  17.589  0.00  0.00    +0.000 OA
BRANCH  22  24
ATOM     23  C   UNL     1      -4.502  11.573  16.940  0.00  0.00    +0.000 C 
ATOM     24  C   UNL     1      -3.533  11.385  18.096  0.00  0.00    +0.000 C 
ENDBRANCH  22  24
ENDBRANCH  19  22
ENDBRANCH  18  19
ENDBRANCH  17  18
ENDBRANCH  16  17
ENDBRANCH  15  16
ENDBRANCH  14  15
ENDBRANCH   1  14
TORSDOF 17
ENDMDL
MODEL 7
REMARK VINA RESULT:      -5.3      5.037      7.487
REMARK  Name = 
REMARK  19 active torsions:
REMARK  status: ('A' for Active; 'I' for Inactive)
REMARK    1  A    between atoms: C_1  and  C_2
REMARK    2  A    between atoms: C_2  and  O_3
REMARK    3  A    between atoms: O_3  and  C_4
REMARK    4  A    between atoms: C_4  and  C_6
REMARK    5  A    between atoms: C_6  and  C_7
REMARK    6  A    between atoms: C_7  and  C_8
REMARK    7  A    between atoms: C_8  and  C_9
REMARK    8  A    between atoms: C_9  and  C_10
REMARK    9  A    between atoms: C_10  and  C_11
REMARK   10  A    between atoms: C_11  and  C_12
REMARK   11  A    between atoms: C_12  and  C_13
REMARK   12  A    between atoms: C_13  and  C_14
REMARK   13  A    between atoms: C_14  and  C_15
REMARK   14  A    between atoms: C_15  and  C_16
REMARK   15  A    between atoms: C_16  and  C_17
REMARK   16  A    between atoms: C_17  and  C_18
REMARK   17  A    between atoms: C_18  and  O_20
REMARK   18  A    between atoms: O_20  and  C_21
REMARK   19  A    between atoms: C_21  and  C_22
REMARK                            x       y       z     vdW  Elec       q    Type
REMARK                         _______ _______ _______ _____ _____    ______ ____
ROOT
ATOM      1  C   UNL     1       2.901   7.500  17.673  0.00  0.00    +0.000 C 
ENDROOT
BRANCH   1   2
ATOM      2  C   UNL     1       2.631   6.634  18.893  0.00  0.00    +0.000 C 
BRANCH   2   3
ATOM      3  C   UNL     1       3.912   5.931  19.310  0.00  0.00    +0.000 C 
BRANCH   3   4
ATOM      4  C   UNL     1       4.812   5.756  18.097  0.00  0.00    +0.000 C 
BRANCH   4   5
ATOM      5  C   UNL     1       5.062   4.276  17.860  0.00  0.00    +0.000 C 
BRANCH   5   6
ATOM      6  C   UNL     1       3.939   3.704  17.010  0.00  0.00    +0.000 C 
BRANCH   6   7
ATOM      7  C   UNL     1       3.271   2.560  17.757  0.00  0.00    +0.000 C 
BRANCH   7   8
ATOM      8  C   UNL     1       1.847   2.952  18.117  0.00  0.00    +0.000 C 
ATOM      9  N   UNL     1       1.194   3.816  17.369  0.00  0.00    +0.000 NA
ATOM     10  H   UNL     1       1.627   4.208  16.577  0.00  0.00    +0.000 HD
BRANCH   8  11
ATOM     11  O   UNL     1       1.221   2.386  19.259  0.00  0.00    +0.000 OA
BRANCH  11  12
ATOM     12  C   UNL     1       0.876   3.210  20.360  0.00  0.00    +0.000 C 
ATOM     13  C   UNL     1       1.506   2.656  21.628  0.00  0.00    +0.000 C 
ENDBRANCH  11  12
ENDBRANCH   8  11
ENDBRANCH   7   8
ENDBRANCH   6   7
ENDBRANCH   5   6
ENDBRANCH   4   5
ENDBRANCH   3   4
ENDBRANCH   2   3
ENDBRANCH   1   2
BRANCH   1  14
ATOM     14  C   UNL     1       2.350   8.896  17.911  0.00  0.00    +0.000 C 
BRANCH  14  15
ATOM     15  C   UNL     1       1.401   8.871  19.097  0.00  0.00    +0.000 C 
BRANCH  15  16
ATOM     16  C   UNL     1       0.587  10.154  19.121  0.00  0.00    +0.000 C 
BRANCH  16  17
ATOM     17  C   UNL     1      -0.553  10.013  20.118  0.00  0.00    +0.000 C 
BRANCH  17  18
ATOM     18  C   UNL     1      -0.077   9.216  21.321  0.00  0.00    +0.000 C 
BRANCH  18  19
ATOM     19  C   UNL     1      -0.073  10.110  22.552  0.00  0.00    +0.000 C 
ATOM     20  N   UNL     1       0.167   9.595  23.738  0.00  0.00    +0.000 NA
ATOM     21  H   UNL     1       0.169  10.174  24.534  0.00  0.00    +0.000 HD
BRANCH  19  22
ATOM     22  O   UNL     1      -0.328  11.501  22.418  0.00  0.00    +0.000 OA
BRANCH  22  24
ATOM     23  C   UNL     1      -1.237  13.522  23.343  0.00  0.00    +0.000 C 
ATOM     24  C   UNL     1      -1.497  12.066  22.993  0.00  0.00    +0.000 C 
ENDBRANCH  22  24
ENDBRANCH  19  22
ENDBRANCH  18  19
ENDBRANCH  17  18
ENDBRANCH  16  17
ENDBRANCH  15  16
ENDBRANCH  14  15
ENDBRANCH   1  14
TORSDOF 17
ENDMDL
MODEL 8
REMARK VINA RESULT:      -5.3      6.116      8.421
REMARK  Name = 
REMARK  19 active torsions:
REMARK  status: ('A' for Active; 'I' for Inactive)
REMARK    1  A    between atoms: C_1  and  C_2
REMARK    2  A    between atoms: C_2  and  O_3
REMARK    3  A    between atoms: O_3  and  C_4
REMARK    4  A    between atoms: C_4  and  C_6
REMARK    5  A    between atoms: C_6  and  C_7
REMARK    6  A    between atoms: C_7  and  C_8
REMARK    7  A    between atoms: C_8  and  C_9
REMARK    8  A    between atoms: C_9  and  C_10
REMARK    9  A    between atoms: C_10  and  C_11
REMARK   10  A    between atoms: C_11  and  C_12
REMARK   11  A    between atoms: C_12  and  C_13
REMARK   12  A    between atoms: C_13  and  C_14
REMARK   13  A    between atoms: C_14  and  C_15
REMARK   14  A    between atoms: C_15  and  C_16
REMARK   15  A    between atoms: C_16  and  C_17
REMARK   16  A    between atoms: C_17  and  C_18
REMARK   17  A    between atoms: C_18  and  O_20
REMARK   18  A    between atoms: O_20  and  C_21
REMARK   19  A    between atoms: C_21  and  C_22
REMARK                            x       y       z     vdW  Elec       q    Type
REMARK                         _______ _______ _______ _____ _____    ______ ____
ROOT
ATOM      1  C   UNL     1       1.791   9.005  17.699  0.00  0.00    +0.000 C 
ENDROOT
BRANCH   1   2
ATOM      2  C   UNL     1       2.226   7.957  18.710  0.00  0.00    +0.000 C 
BRANCH   2   3
ATOM      3  C   UNL     1       3.150   6.955  18.036  0.00  0.00    +0.000 C 
BRANCH   3   4
ATOM      4  C   UNL     1       2.401   5.654  17.800  0.00  0.00    +0.000 C 
BRANCH   4   5
ATOM      5  C   UNL     1       3.398   4.531  17.564  0.00  0.00    +0.000 C 
BRANCH   5   6
ATOM      6  C   UNL     1       2.650   3.223  17.365  0.00  0.00    +0.000 C 
BRANCH   6   7
ATOM      7  C   UNL     1       3.492   2.073  17.893  0.00  0.00    +0.000 C 
BRANCH   7   8
ATOM      8  C   UNL     1       3.691   2.235  19.391  0.00  0.00    +0.000 C 
ATOM      9  N   UNL     1       4.907   2.322  19.887  0.00  0.00    +0.000 NA
ATOM     10  H   UNL     1       5.687   2.282  19.288  0.00  0.00    +0.000 HD
BRANCH   8  11
ATOM     11  O   UNL     1       2.567   2.294  20.256  0.00  0.00    +0.000 OA
BRANCH  11  12
ATOM     12  C   UNL     1       2.387   3.408  21.114  0.00  0.00    +0.000 C 
ATOM     13  C   UNL     1       1.153   4.186  20.687  0.00  0.00    +0.000 C 
ENDBRANCH  11  12
ENDBRANCH   8  11
ENDBRANCH   7   8
ENDBRANCH   6   7
ENDBRANCH   5   6
ENDBRANCH   4   5
ENDBRANCH   3   4
ENDBRANCH   2   3
ENDBRANCH   1   2
BRANCH   1  14
ATOM     14  C   UNL     1       1.329  10.254  18.431  0.00  0.00    +0.000 C 
BRANCH  14  15
ATOM     15  C   UNL     1      -0.037  10.003  19.048  0.00  0.00    +0.000 C 
BRANCH  15  16
ATOM     16  C   UNL     1      -0.699  11.333  19.369  0.00  0.00    +0.000 C 
BRANCH  16  17
ATOM     17  C   UNL     1      -1.569  11.762  18.199  0.00  0.00    +0.000 C 
BRANCH  17  18
ATOM     18  C   UNL     1      -2.324  10.558  17.661  0.00  0.00    +0.000 C 
BRANCH  18  19
ATOM     19  C   UNL     1      -3.201  10.989  16.495  0.00  0.00    +0.000 C 
ATOM     20  N   UNL     1      -2.650  11.404  15.375  0.00  0.00    +0.000 NA
ATOM     21  H   UNL     1      -3.217  11.683  14.621  0.00  0.00    +0.000 HD
BRANCH  19  22
ATOM     22  O   UNL     1      -4.616  10.943  16.617  0.00  0.00    +0.000 OA
BRANCH  22  24
ATOM     23  C   UNL     1      -6.116  12.733  17.175  0.00  0.00    +0.000 C 
ATOM     24  C   UNL     1      -5.255  11.597  17.703  0.00  0.00    +0.000 C 
ENDBRANCH  22  24
ENDBRANCH  19  22
ENDBRANCH  18  19
ENDBRANCH  17  18
ENDBRANCH  16  17
ENDBRANCH  15  16
ENDBRANCH  14  15
ENDBRANCH   1  14
TORSDOF 17
ENDMDL
MODEL 9
REMARK VINA RESULT:      -5.3      3.328      7.359
REMARK  Name = 
REMARK  19 active torsions:
REMARK  status: ('A' for Active; 'I' for Inactive)
REMARK    1  A    between atoms: C_1  and  C_2
REMARK    2  A    between atoms: C_2  and  O_3
REMARK    3  A    between atoms: O_3  and  C_4
REMARK    4  A    between atoms: C_4  and  C_6
REMARK    5  A    between atoms: C_6  and  C_7
REMARK    6  A    between atoms: C_7  and  C_8
REMARK    7  A    between atoms: C_8  and  C_9
REMARK    8  A    between atoms: C_9  and  C_10
REMARK    9  A    between atoms: C_10  and  C_11
REMARK   10  A    between atoms: C_11  and  C_12
REMARK   11  A    between atoms: C_12  and  C_13
REMARK   12  A    between atoms: C_13  and  C_14
REMARK   13  A    between atoms: C_14  and  C_15
REMARK   14  A    between atoms: C_15  and  C_16
REMARK   15  A    between atoms: C_16  and  C_17
REMARK   16  A    between atoms: C_17  and  C_18
REMARK   17  A    between atoms: C_18  and  O_20
REMARK   18  A    between atoms: O_20  and  C_21
REMARK   19  A    between atoms: C_21  and  C_22
REMARK                            x       y       z     vdW  Elec       q    Type
REMARK                         _______ _______ _______ _____ _____    ______ ____
ROOT
ATOM      1  C   UNL     1       3.189   1.919  17.838  0.00  0.00    +0.000 C 
ENDROOT
BRANCH   1   2
ATOM      2  C   UNL     1       2.090   1.604  18.840  0.00  0.00    +0.000 C 
BRANCH   2   3
ATOM      3  C   UNL     1       2.294   2.437  20.095  0.00  0.00    +0.000 C 
BRANCH   3   4
ATOM      4  C   UNL     1       0.967   3.044  20.521  0.00  0.00    +0.000 C 
BRANCH   4   5
ATOM      5  C   UNL     1       1.008   4.549  20.312  0.00  0.00    +0.000 C 
BRANCH   5   6
ATOM      6  C   UNL     1       2.220   5.127  21.025  0.00  0.00    +0.000 C 
BRANCH   6   7
ATOM      7  C   UNL     1       3.008   5.997  20.060  0.00  0.00    +0.000 C 
BRANCH   7   8
ATOM      8  C   UNL     1       2.238   7.279  19.788  0.00  0.00    +0.000 C 
ATOM      9  N   UNL     1       1.846   8.037  20.790  0.00  0.00    +0.000 NA
ATOM     10  H   UNL     1       2.053   7.774  21.716  0.00  0.00    +0.000 HD
BRANCH   8  11
ATOM     11  O   UNL     1       1.939   7.659  18.453  0.00  0.00    +0.000 OA
BRANCH  11  12
ATOM     12  C   UNL     1       2.096   9.008  18.046  0.00  0.00    +0.000 C 
ATOM     13  C   UNL     1       0.731   9.667  17.932  0.00  0.00    +0.000 C 
ENDBRANCH  11  12
ENDBRANCH   8  11
ENDBRANCH   7   8
ENDBRANCH   6   7
ENDBRANCH   5   6
ENDBRANCH   4   5
ENDBRANCH   3   4
ENDBRANCH   2   3
ENDBRANCH   1   2
BRANCH   1  14
ATOM     14  C   UNL     1       3.037   3.351  17.353  0.00  0.00    +0.000 C 
BRANCH  14  15
ATOM     15  C   UNL     1       4.365   4.076  17.492  0.00  0.00    +0.000 C 
BRANCH  15  16
ATOM     16  C   UNL     1       4.249   5.465  16.887  0.00  0.00    +0.000 C 
BRANCH  16  17
ATOM     17  C   UNL     1       4.762   5.440  15.456  0.00  0.00    +0.000 C 
BRANCH  17  18
ATOM     18  C   UNL     1       5.902   4.441  15.344  0.00  0.00    +0.000 C 
BRANCH  18  19
ATOM     19  C   UNL     1       7.230   5.178  15.421  0.00  0.00    +0.000 C 
ATOM     20  N   UNL     1       7.945   5.360  14.331  0.00  0.00    +0.000 NA
ATOM     21  H   UNL     1       8.805   5.837  14.381  0.00  0.00    +0.000 HD
BRANCH  19  22
ATOM     22  O   UNL     1       7.698   5.669  16.669  0.00  0.00    +0.000 OA
BRANCH  22  24
ATOM     23  C   UNL     1       7.670   5.592  19.068  0.00  0.00    +0.000 C 
ATOM     24  C   UNL     1       7.803   4.793  17.781  0.00  0.00    +0.000 C 
ENDBRANCH  22  24
ENDBRANCH  19  22
ENDBRANCH  18  19
ENDBRANCH  17  18
ENDBRANCH  16  17
ENDBRANCH  15  16
ENDBRANCH  14  15
ENDBRANCH   1  14
TORSDOF 17
ENDMDL
