MODEL 1
REMARK VINA RESULT:      -9.7      0.000      0.000
REMARK  Name = 
REMARK  4 active torsions:
REMARK  status: ('A' for Active; 'I' for Inactive)
REMARK    1  A    between atoms: C_2  and  C_4
REMARK    2  A    between atoms: C_5  and  C_6
REMARK    3  A    between atoms: C_9  and  N_10
REMARK    4  A    between atoms: N_10  and  C_11
REMARK                            x       y       z     vdW  Elec       q    Type
REMARK                         _______ _______ _______ _____ _____    ______ ____
ROOT
ATOM      1  N   UNL     1       3.432   6.091  19.840  0.00  0.00    +0.000 N 
ATOM      2  H   UNL     1       3.569   5.867  20.825  0.00  0.00    +0.000 HD
ENDROOT
BRANCH   1   3
ATOM      3  C   UNL     1       3.763   4.943  19.037  0.00  0.00    +0.000 A 
ATOM      4  C   UNL     1       4.366   4.977  17.719  0.00  0.00    +0.000 A 
ATOM      5  C   UNL     1       4.542   6.065  16.826  0.00  0.00    +0.000 A 
ATOM      6  C   UNL     1       5.305   5.969  15.659  0.00  0.00    +0.000 A 
ATOM      7  C   UNL     1       5.883   4.758  15.327  0.00  0.00    +0.000 A 
ATOM      8  C   UNL     1       5.548   3.633  16.073  0.00  0.00    +0.000 A 
ATOM      9  C   UNL     1       4.709   3.735  17.170  0.00  0.00    +0.000 A 
ATOM     10  N   UNL     1       4.080   2.636  17.565  0.00  0.00    +0.000 NA
ATOM     11  C   UNL     1       3.116   2.832  18.471  0.00  0.00    +0.000 A 
ATOM     12  C   UNL     1       1.780   2.667  18.147  0.00  0.00    +0.000 A 
ATOM     13  C   UNL     1       0.776   2.991  19.065  0.00  0.00    +0.000 A 
ATOM     14  C   UNL     1       1.146   3.241  20.380  0.00  0.00    +0.000 A 
ATOM     15  C   UNL     1       2.486   3.488  20.635  0.00  0.00    +0.000 A 
ATOM     16  C   UNL     1       3.306   3.679  19.514  0.00  0.00    +0.000 A 
ENDBRANCH   1   3
BRANCH   1  20
ATOM     17  C   UNL     1       0.893   9.460  19.465  0.00  0.00    +0.000 A 
ATOM     18  C   UNL     1       1.565   8.940  18.351  0.00  0.00    +0.000 A 
ATOM     19  C   UNL     1       2.352   7.784  18.459  0.00  0.00    +0.000 A 
ATOM     20  C   UNL     1       2.473   7.110  19.683  0.00  0.00    +0.000 A 
ATOM     21  C   UNL     1       1.664   7.531  20.732  0.00  0.00    +0.000 A 
ATOM     22  C   UNL     1       0.961   8.734  20.660  0.00  0.00    +0.000 A 
BRANCH  17  24
ATOM     23  C   UNL     1      -1.073  10.860  18.879  0.00  0.00    +0.000 C 
ATOM     24  C   UNL     1       0.181  10.738  19.351  0.00  0.00    +0.000 C 
BRANCH  23  26
ATOM     25  N   UNL     1      -1.138  12.913  17.713  0.00  0.00    +0.000 N 
ATOM     26  C   UNL     1      -1.682  12.184  18.732  0.00  0.00    +0.000 C 
ATOM     27  O   UNL     1      -2.564  12.650  19.439  0.00  0.00    +0.000 OA
ATOM     28  H   UNL     1      -1.475  13.872  17.596  0.00  0.00    +0.000 HD
ATOM     29  H   UNL     1      -0.379  12.618  17.113  0.00  0.00    +0.000 HD
ENDBRANCH  23  26
ENDBRANCH  17  24
ENDBRANCH   1  20
TORSDOF 4
ENDMDL
MODEL 2
REMARK VINA RESULT:      -9.5      0.830      1.257
REMARK  Name = 
REMARK  4 active torsions:
REMARK  status: ('A' for Active; 'I' for Inactive)
REMARK    1  A    between atoms: C_2  and  C_4
REMARK    2  A    between atoms: C_5  and  C_6
REMARK    3  A    between atoms: C_9  and  N_10
REMARK    4  A    between atoms: N_10  and  C_11
REMARK                            x       y       z     vdW  Elec       q    Type
REMARK                         _______ _______ _______ _____ _____    ______ ____
ROOT
ATOM      1  N   UNL     1       3.317   6.360  19.835  0.00  0.00    +0.000 N 
ATOM      2  H   UNL     1       3.244   6.124  20.823  0.00  0.00    +0.000 HD
ENDROOT
BRANCH   1   3
ATOM      3  C   UNL     1       3.638   5.175  19.082  0.00  0.00    +0.000 A 
ATOM      4  C   UNL     1       4.267   5.147  17.776  0.00  0.00    +0.000 A 
ATOM      5  C   UNL     1       4.482   6.196  16.845  0.00  0.00    +0.000 A 
ATOM      6  C   UNL     1       5.264   6.039  15.698  0.00  0.00    +0.000 A 
ATOM      7  C   UNL     1       5.822   4.805  15.424  0.00  0.00    +0.000 A 
ATOM      8  C   UNL     1       5.450   3.717  16.205  0.00  0.00    +0.000 A 
ATOM      9  C   UNL     1       4.593   3.878  17.281  0.00  0.00    +0.000 A 
ATOM     10  N   UNL     1       3.934   2.807  17.705  0.00  0.00    +0.000 NA
ATOM     11  C   UNL     1       2.958   3.058  18.584  0.00  0.00    +0.000 A 
ATOM     12  C   UNL     1       1.625   2.908  18.241  0.00  0.00    +0.000 A 
ATOM     13  C   UNL     1       0.611   3.288  19.127  0.00  0.00    +0.000 A 
ATOM     14  C   UNL     1       0.962   3.580  20.438  0.00  0.00    +0.000 A 
ATOM     15  C   UNL     1       2.301   3.808  20.709  0.00  0.00    +0.000 A 
ATOM     16  C   UNL     1       3.147   3.940  19.597  0.00  0.00    +0.000 A 
ENDBRANCH   1   3
BRANCH   1  20
ATOM     17  C   UNL     1       0.630   9.471  18.817  0.00  0.00    +0.000 A 
ATOM     18  C   UNL     1       0.747   9.028  20.140  0.00  0.00    +0.000 A 
ATOM     19  C   UNL     1       1.685   8.046  20.492  0.00  0.00    +0.000 A 
ATOM     20  C   UNL     1       2.541   7.493  19.527  0.00  0.00    +0.000 A 
ATOM     21  C   UNL     1       2.537   8.066  18.261  0.00  0.00    +0.000 A 
ATOM     22  C   UNL     1       1.542   8.967  17.881  0.00  0.00    +0.000 A 
BRANCH  17  24
ATOM     23  C   UNL     1      -1.650  10.023  18.005  0.00  0.00    +0.000 C 
ATOM     24  C   UNL     1      -0.442  10.405  18.456  0.00  0.00    +0.000 C 
BRANCH  23  26
ATOM     25  N   UNL     1      -2.142  11.939  16.714  0.00  0.00    +0.000 N 
ATOM     26  C   UNL     1      -2.639  11.026  17.598  0.00  0.00    +0.000 C 
ATOM     27  O   UNL     1      -3.791  11.102  18.003  0.00  0.00    +0.000 OA
ATOM     28  H   UNL     1      -2.763  12.705  16.438  0.00  0.00    +0.000 HD
ATOM     29  H   UNL     1      -1.192  11.972  16.366  0.00  0.00    +0.000 HD
ENDBRANCH  23  26
ENDBRANCH  17  24
ENDBRANCH   1  20
TORSDOF 4
ENDMDL
MODEL 3
REMARK VINA RESULT:      -9.3      1.343      3.715
REMARK  Name = 
REMARK  4 active torsions:
REMARK  status: ('A' for Active; 'I' for Inactive)
REMARK    1  A    between atoms: C_2  and  C_4
REMARK    2  A    between atoms: C_5  and  C_6
REMARK    3  A    between atoms: C_9  and  N_10
REMARK    4  A    between atoms: N_10  and  C_11
REMARK                            x       y       z     vdW  Elec       q    Type
REMARK                         _______ _______ _______ _____ _____    ______ ____
ROOT
ATOM      1  N   UNL     1       2.926   7.195  19.174  0.00  0.00    +0.000 N 
ATOM      2  H   UNL     1       3.293   7.094  20.119  0.00  0.00    +0.000 HD
ENDROOT
BRANCH   1   3
ATOM      3  C   UNL     1       2.977   5.923  18.501  0.00  0.00    +0.000 A 
ATOM      4  C   UNL     1       2.304   4.713  18.929  0.00  0.00    +0.000 A 
ATOM      5  C   UNL     1       1.675   4.406  20.163  0.00  0.00    +0.000 A 
ATOM      6  C   UNL     1       0.914   3.251  20.358  0.00  0.00    +0.000 A 
ATOM      7  C   UNL     1       0.795   2.339  19.326  0.00  0.00    +0.000 A 
ATOM      8  C   UNL     1       1.573   2.514  18.187  0.00  0.00    +0.000 A 
ATOM      9  C   UNL     1       2.398   3.620  18.057  0.00  0.00    +0.000 A 
ATOM     10  N   UNL     1       3.413   3.530  17.208  0.00  0.00    +0.000 NA
ATOM     11  C   UNL     1       4.305   4.523  17.288  0.00  0.00    +0.000 A 
ATOM     12  C   UNL     1       5.580   4.307  17.783  0.00  0.00    +0.000 A 
ATOM     13  C   UNL     1       6.463   5.375  17.975  0.00  0.00    +0.000 A 
ATOM     14  C   UNL     1       6.128   6.608  17.431  0.00  0.00    +0.000 A 
ATOM     15  C   UNL     1       4.815   6.801  17.034  0.00  0.00    +0.000 A 
ATOM     16  C   UNL     1       3.898   5.812  17.419  0.00  0.00    +0.000 A 
ENDBRANCH   1   3
BRANCH   1  20
ATOM     17  C   UNL     1      -0.143  10.101  18.897  0.00  0.00    +0.000 A 
ATOM     18  C   UNL     1       0.258   9.598  20.141  0.00  0.00    +0.000 A 
ATOM     19  C   UNL     1       1.321   8.687  20.241  0.00  0.00    +0.000 A 
ATOM     20  C   UNL     1       2.018   8.268  19.098  0.00  0.00    +0.000 A 
ATOM     21  C   UNL     1       1.727   8.908  17.898  0.00  0.00    +0.000 A 
ATOM     22  C   UNL     1       0.610   9.734  17.776  0.00  0.00    +0.000 A 
BRANCH  17  24
ATOM     23  C   UNL     1      -2.480  10.582  18.208  0.00  0.00    +0.000 C 
ATOM     24  C   UNL     1      -1.335  10.953  18.810  0.00  0.00    +0.000 C 
BRANCH  23  26
ATOM     25  N   UNL     1      -3.922  11.826  16.812  0.00  0.00    +0.000 N 
ATOM     26  C   UNL     1      -3.598  11.523  18.103  0.00  0.00    +0.000 C 
ATOM     27  O   UNL     1      -4.193  12.038  19.040  0.00  0.00    +0.000 OA
ATOM     28  H   UNL     1      -4.654  12.527  16.668  0.00  0.00    +0.000 HD
ATOM     29  H   UNL     1      -3.452  11.479  15.986  0.00  0.00    +0.000 HD
ENDBRANCH  23  26
ENDBRANCH  17  24
ENDBRANCH   1  20
TORSDOF 4
ENDMDL
MODEL 4
REMARK VINA RESULT:      -9.3      1.769      2.245
REMARK  Name = 
REMARK  4 active torsions:
REMARK  status: ('A' for Active; 'I' for Inactive)
REMARK    1  A    between atoms: C_2  and  C_4
REMARK    2  A    between atoms: C_5  and  C_6
REMARK    3  A    between atoms: C_9  and  N_10
REMARK    4  A    between atoms: N_10  and  C_11
REMARK                            x       y       z     vdW  Elec       q    Type
REMARK                         _______ _______ _______ _____ _____    ______ ____
ROOT
ATOM      1  N   UNL     1       2.616   6.822  18.039  0.00  0.00    +0.000 N 
ATOM      2  H   UNL     1       2.669   6.898  17.024  0.00  0.00    +0.000 HD
ENDROOT
BRANCH   1   3
ATOM      3  C   UNL     1       3.657   5.945  18.508  0.00  0.00    +0.000 A 
ATOM      4  C   UNL     1       5.078   6.121  18.280  0.00  0.00    +0.000 A 
ATOM      5  C   UNL     1       5.757   6.989  17.386  0.00  0.00    +0.000 A 
ATOM      6  C   UNL     1       7.143   7.165  17.411  0.00  0.00    +0.000 A 
ATOM      7  C   UNL     1       7.901   6.439  18.310  0.00  0.00    +0.000 A 
ATOM      8  C   UNL     1       7.282   5.433  19.044  0.00  0.00    +0.000 A 
ATOM      9  C   UNL     1       5.920   5.209  18.930  0.00  0.00    +0.000 A 
ATOM     10  N   UNL     1       5.464   4.013  19.279  0.00  0.00    +0.000 NA
ATOM     11  C   UNL     1       4.194   3.772  18.936  0.00  0.00    +0.000 A 
ATOM     12  C   UNL     1       3.877   2.857  17.946  0.00  0.00    +0.000 A 
ATOM     13  C   UNL     1       2.557   2.701  17.513  0.00  0.00    +0.000 A 
ATOM     14  C   UNL     1       1.547   3.294  18.259  0.00  0.00    +0.000 A 
ATOM     15  C   UNL     1       1.912   4.268  19.174  0.00  0.00    +0.000 A 
ATOM     16  C   UNL     1       3.238   4.720  19.105  0.00  0.00    +0.000 A 
ENDBRANCH   1   3
BRANCH   1  20
ATOM     17  C   UNL     1       0.412  10.040  19.688  0.00  0.00    +0.000 A 
ATOM     18  C   UNL     1       0.960   9.049  20.512  0.00  0.00    +0.000 A 
ATOM     19  C   UNL     1       1.749   8.020  19.975  0.00  0.00    +0.000 A 
ATOM     20  C   UNL     1       2.020   7.967  18.600  0.00  0.00    +0.000 A 
ATOM     21  C   UNL     1       1.620   9.049  17.824  0.00  0.00    +0.000 A 
ATOM     22  C   UNL     1       0.754  10.017  18.330  0.00  0.00    +0.000 A 
BRANCH  17  24
ATOM     23  C   UNL     1      -1.486  11.636  19.559  0.00  0.00    +0.000 C 
ATOM     24  C   UNL     1      -0.510  11.030  20.258  0.00  0.00    +0.000 C 
BRANCH  23  26
ATOM     25  N   UNL     1      -3.553  12.777  19.622  0.00  0.00    +0.000 N 
ATOM     26  C   UNL     1      -2.316  12.666  20.190  0.00  0.00    +0.000 C 
ATOM     27  O   UNL     1      -1.975  13.399  21.107  0.00  0.00    +0.000 OA
ATOM     28  H   UNL     1      -4.161  13.522  19.974  0.00  0.00    +0.000 HD
ATOM     29  H   UNL     1      -3.895  12.242  18.835  0.00  0.00    +0.000 HD
ENDBRANCH  23  26
ENDBRANCH  17  24
ENDBRANCH   1  20
TORSDOF 4
ENDMDL
MODEL 5
REMARK VINA RESULT:      -9.2      2.255      2.587
REMARK  Name = 
REMARK  4 active torsions:
REMARK  status: ('A' for Active; 'I' for Inactive)
REMARK    1  A    between atoms: C_2  and  C_4
REMARK    2  A    between atoms: C_5  and  C_6
REMARK    3  A    between atoms: C_9  and  N_10
REMARK    4  A    between atoms: N_10  and  C_11
REMARK                            x       y       z     vdW  Elec       q    Type
REMARK                         _______ _______ _______ _____ _____    ______ ____
ROOT
ATOM      1  N   UNL     1       2.240   6.587  18.882  0.00  0.00    +0.000 N 
ATOM      2  H   UNL     1       1.974   6.610  17.899  0.00  0.00    +0.000 HD
ENDROOT
BRANCH   1   3
ATOM      3  C   UNL     1       3.371   5.713  19.053  0.00  0.00    +0.000 A 
ATOM      4  C   UNL     1       4.684   5.905  18.469  0.00  0.00    +0.000 A 
ATOM      5  C   UNL     1       5.105   6.792  17.446  0.00  0.00    +0.000 A 
ATOM      6  C   UNL     1       6.450   6.981  17.115  0.00  0.00    +0.000 A 
ATOM      7  C   UNL     1       7.417   6.248  17.777  0.00  0.00    +0.000 A 
ATOM      8  C   UNL     1       7.014   5.225  18.627  0.00  0.00    +0.000 A 
ATOM      9  C   UNL     1       5.669   4.991  18.865  0.00  0.00    +0.000 A 
ATOM     10  N   UNL     1       5.325   3.786  19.299  0.00  0.00    +0.000 NA
ATOM     11  C   UNL     1       4.010   3.539  19.291  0.00  0.00    +0.000 A 
ATOM     12  C   UNL     1       3.453   2.636  18.401  0.00  0.00    +0.000 A 
ATOM     13  C   UNL     1       2.066   2.474  18.320  0.00  0.00    +0.000 A 
ATOM     14  C   UNL     1       1.281   3.047  19.312  0.00  0.00    +0.000 A 
ATOM     15  C   UNL     1       1.864   4.011  20.118  0.00  0.00    +0.000 A 
ATOM     16  C   UNL     1       3.125   4.476  19.717  0.00  0.00    +0.000 A 
ENDBRANCH   1   3
BRANCH   1  20
ATOM     17  C   UNL     1       0.635  10.008  20.797  0.00  0.00    +0.000 A 
ATOM     18  C   UNL     1       0.991   8.873  21.536  0.00  0.00    +0.000 A 
ATOM     19  C   UNL     1       1.587   7.765  20.914  0.00  0.00    +0.000 A 
ATOM     20  C   UNL     1       1.854   7.773  19.537  0.00  0.00    +0.000 A 
ATOM     21  C   UNL     1       1.660   8.966  18.851  0.00  0.00    +0.000 A 
ATOM     22  C   UNL     1       0.977  10.031  19.439  0.00  0.00    +0.000 A 
BRANCH  17  24
ATOM     23  C   UNL     1      -0.830  10.946  22.568  0.00  0.00    +0.000 C 
ATOM     24  C   UNL     1      -0.099  11.098  21.450  0.00  0.00    +0.000 C 
BRANCH  23  26
ATOM     25  N   UNL     1      -2.879  11.747  23.427  0.00  0.00    +0.000 N 
ATOM     26  C   UNL     1      -1.591  12.074  23.113  0.00  0.00    +0.000 C 
ATOM     27  O   UNL     1      -1.175  13.214  23.261  0.00  0.00    +0.000 OA
ATOM     28  H   UNL     1      -3.484  12.506  23.753  0.00  0.00    +0.000 HD
ATOM     29  H   UNL     1      -3.311  10.843  23.293  0.00  0.00    +0.000 HD
ENDBRANCH  23  26
ENDBRANCH  17  24
ENDBRANCH   1  20
TORSDOF 4
ENDMDL
MODEL 6
REMARK VINA RESULT:      -9.2      1.046      1.054
REMARK  Name = 
REMARK  4 active torsions:
REMARK  status: ('A' for Active; 'I' for Inactive)
REMARK    1  A    between atoms: C_2  and  C_4
REMARK    2  A    between atoms: C_5  and  C_6
REMARK    3  A    between atoms: C_9  and  N_10
REMARK    4  A    between atoms: N_10  and  C_11
REMARK                            x       y       z     vdW  Elec       q    Type
REMARK                         _______ _______ _______ _____ _____    ______ ____
ROOT
ATOM      1  N   UNL     1       3.406   6.336  19.855  0.00  0.00    +0.000 N 
ATOM      2  H   UNL     1       3.671   6.170  20.825  0.00  0.00    +0.000 HD
ENDROOT
BRANCH   1   3
ATOM      3  C   UNL     1       3.710   5.170  19.068  0.00  0.00    +0.000 A 
ATOM      4  C   UNL     1       4.306   5.173  17.747  0.00  0.00    +0.000 A 
ATOM      5  C   UNL     1       4.497   6.243  16.835  0.00  0.00    +0.000 A 
ATOM      6  C   UNL     1       5.250   6.115  15.666  0.00  0.00    +0.000 A 
ATOM      7  C   UNL     1       5.803   4.888  15.349  0.00  0.00    +0.000 A 
ATOM      8  C   UNL     1       5.452   3.782  16.114  0.00  0.00    +0.000 A 
ATOM      9  C   UNL     1       4.622   3.916  17.215  0.00  0.00    +0.000 A 
ATOM     10  N   UNL     1       3.975   2.835  17.630  0.00  0.00    +0.000 NA
ATOM     11  C   UNL     1       3.020   3.064  18.538  0.00  0.00    +0.000 A 
ATOM     12  C   UNL     1       1.679   2.919  18.225  0.00  0.00    +0.000 A 
ATOM     13  C   UNL     1       0.687   3.276  19.144  0.00  0.00    +0.000 A 
ATOM     14  C   UNL     1       1.070   3.539  20.452  0.00  0.00    +0.000 A 
ATOM     15  C   UNL     1       2.415   3.764  20.695  0.00  0.00    +0.000 A 
ATOM     16  C   UNL     1       3.233   3.923  19.567  0.00  0.00    +0.000 A 
ENDBRANCH   1   3
BRANCH   1  20
ATOM     17  C   UNL     1       0.621   9.525  19.739  0.00  0.00    +0.000 A 
ATOM     18  C   UNL     1       1.354   9.171  18.600  0.00  0.00    +0.000 A 
ATOM     19  C   UNL     1       2.226   8.072  18.616  0.00  0.00    +0.000 A 
ATOM     20  C   UNL     1       2.374   7.291  19.772  0.00  0.00    +0.000 A 
ATOM     21  C   UNL     1       1.513   7.544  20.833  0.00  0.00    +0.000 A 
ATOM     22  C   UNL     1       0.721   8.692  20.859  0.00  0.00    +0.000 A 
BRANCH  17  24
ATOM     23  C   UNL     1      -0.868  11.208  20.796  0.00  0.00    +0.000 C 
ATOM     24  C   UNL     1      -0.185  10.752  19.731  0.00  0.00    +0.000 C 
BRANCH  23  26
ATOM     25  N   UNL     1      -2.567  12.558  21.729  0.00  0.00    +0.000 N 
ATOM     26  C   UNL     1      -1.708  12.403  20.679  0.00  0.00    +0.000 C 
ATOM     27  O   UNL     1      -1.703  13.195  19.746  0.00  0.00    +0.000 OA
ATOM     28  H   UNL     1      -3.226  13.340  21.679  0.00  0.00    +0.000 HD
ATOM     29  H   UNL     1      -2.664  11.927  22.513  0.00  0.00    +0.000 HD
ENDBRANCH  23  26
ENDBRANCH  17  24
ENDBRANCH   1  20
TORSDOF 4
ENDMDL
MODEL 7
REMARK VINA RESULT:      -9.0      2.088      3.928
REMARK  Name = 
REMARK  4 active torsions:
REMARK  status: ('A' for Active; 'I' for Inactive)
REMARK    1  A    between atoms: C_2  and  C_4
REMARK    2  A    between atoms: C_5  and  C_6
REMARK    3  A    between atoms: C_9  and  N_10
REMARK    4  A    between atoms: N_10  and  C_11
REMARK                            x       y       z     vdW  Elec       q    Type
REMARK                         _______ _______ _______ _____ _____    ______ ____
ROOT
ATOM      1  N   UNL     1       3.044   7.451  18.556  0.00  0.00    +0.000 N 
ATOM      2  H   UNL     1       3.954   7.766  18.888  0.00  0.00    +0.000 HD
ENDROOT
BRANCH   1   3
ATOM      3  C   UNL     1       3.144   6.088  18.103  0.00  0.00    +0.000 A 
ATOM      4  C   UNL     1       2.436   4.955  18.666  0.00  0.00    +0.000 A 
ATOM      5  C   UNL     1       1.712   4.845  19.882  0.00  0.00    +0.000 A 
ATOM      6  C   UNL     1       0.935   3.729  20.200  0.00  0.00    +0.000 A 
ATOM      7  C   UNL     1       0.894   2.661  19.322  0.00  0.00    +0.000 A 
ATOM      8  C   UNL     1       1.758   2.660  18.234  0.00  0.00    +0.000 A 
ATOM      9  C   UNL     1       2.594   3.738  17.992  0.00  0.00    +0.000 A 
ATOM     10  N   UNL     1       3.672   3.522  17.249  0.00  0.00    +0.000 NA
ATOM     11  C   UNL     1       4.558   4.525  17.237  0.00  0.00    +0.000 A 
ATOM     12  C   UNL     1       5.790   4.403  17.857  0.00  0.00    +0.000 A 
ATOM     13  C   UNL     1       6.658   5.497  17.943  0.00  0.00    +0.000 A 
ATOM     14  C   UNL     1       6.370   6.623  17.184  0.00  0.00    +0.000 A 
ATOM     15  C   UNL     1       5.093   6.736  16.660  0.00  0.00    +0.000 A 
ATOM     16  C   UNL     1       4.146   5.813  17.127  0.00  0.00    +0.000 A 
ENDBRANCH   1   3
BRANCH   1  20
ATOM     17  C   UNL     1       0.236   9.933  20.531  0.00  0.00    +0.000 A 
ATOM     18  C   UNL     1       0.430  10.028  19.147  0.00  0.00    +0.000 A 
ATOM     19  C   UNL     1       1.308   9.160  18.480  0.00  0.00    +0.000 A 
ATOM     20  C   UNL     1       2.004   8.165  19.182  0.00  0.00    +0.000 A 
ATOM     21  C   UNL     1       1.670   7.968  20.517  0.00  0.00    +0.000 A 
ATOM     22  C   UNL     1       0.878   8.887  21.205  0.00  0.00    +0.000 A 
BRANCH  17  24
ATOM     23  C   UNL     1      -0.926  10.862  22.518  0.00  0.00    +0.000 C 
ATOM     24  C   UNL     1      -0.590  10.932  21.218  0.00  0.00    +0.000 C 
BRANCH  23  26
ATOM     25  N   UNL     1      -1.248  13.105  23.182  0.00  0.00    +0.000 N 
ATOM     26  C   UNL     1      -1.816  11.866  23.107  0.00  0.00    +0.000 C 
ATOM     27  O   UNL     1      -2.945  11.662  23.533  0.00  0.00    +0.000 OA
ATOM     28  H   UNL     1      -1.794  13.840  23.642  0.00  0.00    +0.000 HD
ATOM     29  H   UNL     1      -0.308  13.346  22.895  0.00  0.00    +0.000 HD
ENDBRANCH  23  26
ENDBRANCH  17  24
ENDBRANCH   1  20
TORSDOF 4
ENDMDL
MODEL 8
REMARK VINA RESULT:      -9.0      1.391      3.535
REMARK  Name = 
REMARK  4 active torsions:
REMARK  status: ('A' for Active; 'I' for Inactive)
REMARK    1  A    between atoms: C_2  and  C_4
REMARK    2  A    between atoms: C_5  and  C_6
REMARK    3  A    between atoms: C_9  and  N_10
REMARK    4  A    between atoms: N_10  and  C_11
REMARK                            x       y       z     vdW  Elec       q    Type
REMARK                         _______ _______ _______ _____ _____    ______ ____
ROOT
ATOM      1  N   UNL     1       3.307   7.354  18.429  0.00  0.00    +0.000 N 
ATOM      2  H   UNL     1       4.104   7.587  19.020  0.00  0.00    +0.000 HD
ENDROOT
BRANCH   1   3
ATOM      3  C   UNL     1       3.459   6.016  17.922  0.00  0.00    +0.000 A 
ATOM      4  C   UNL     1       2.733   4.849  18.383  0.00  0.00    +0.000 A 
ATOM      5  C   UNL     1       1.930   4.672  19.539  0.00  0.00    +0.000 A 
ATOM      6  C   UNL     1       1.151   3.532  19.752  0.00  0.00    +0.000 A 
ATOM      7  C   UNL     1       1.188   2.507  18.825  0.00  0.00    +0.000 A 
ATOM      8  C   UNL     1       2.125   2.567  17.800  0.00  0.00    +0.000 A 
ATOM      9  C   UNL     1       2.957   3.666  17.666  0.00  0.00    +0.000 A 
ATOM     10  N   UNL     1       4.087   3.500  16.991  0.00  0.00    +0.000 NA
ATOM     11  C   UNL     1       4.955   4.513  17.086  0.00  0.00    +0.000 A 
ATOM     12  C   UNL     1       6.144   4.379  17.783  0.00  0.00    +0.000 A 
ATOM     13  C   UNL     1       6.986   5.478  17.978  0.00  0.00    +0.000 A 
ATOM     14  C   UNL     1       6.733   6.635  17.254  0.00  0.00    +0.000 A 
ATOM     15  C   UNL     1       5.492   6.756  16.649  0.00  0.00    +0.000 A 
ATOM     16  C   UNL     1       4.531   5.800  17.007  0.00  0.00    +0.000 A 
ENDBRANCH   1   3
BRANCH   1  20
ATOM     17  C   UNL     1       0.185   9.966  19.602  0.00  0.00    +0.000 A 
ATOM     18  C   UNL     1       0.541   9.833  18.254  0.00  0.00    +0.000 A 
ATOM     19  C   UNL     1       1.527   8.918  17.855  0.00  0.00    +0.000 A 
ATOM     20  C   UNL     1       2.172   8.102  18.797  0.00  0.00    +0.000 A 
ATOM     21  C   UNL     1       1.687   8.118  20.100  0.00  0.00    +0.000 A 
ATOM     22  C   UNL     1       0.782   9.093  20.519  0.00  0.00    +0.000 A 
BRANCH  17  24
ATOM     23  C   UNL     1      -1.812  11.401  19.263  0.00  0.00    +0.000 C 
ATOM     24  C   UNL     1      -0.757  11.017  20.003  0.00  0.00    +0.000 C 
BRANCH  23  26
ATOM     25  N   UNL     1      -3.890  12.515  19.110  0.00  0.00    +0.000 N 
ATOM     26  C   UNL     1      -2.661  12.511  19.706  0.00  0.00    +0.000 C 
ATOM     27  O   UNL     1      -2.342  13.386  20.498  0.00  0.00    +0.000 OA
ATOM     28  H   UNL     1      -4.510  13.300  19.328  0.00  0.00    +0.000 HD
ATOM     29  H   UNL     1      -4.214  11.855  18.415  0.00  0.00    +0.000 HD
ENDBRANCH  23  26
ENDBRANCH  17  24
ENDBRANCH   1  20
TORSDOF 4
ENDMDL
MODEL 9
REMARK VINA RESULT:      -8.9      1.821      2.244
REMARK  Name = 
REMARK  4 active torsions:
REMARK  status: ('A' for Active; 'I' for Inactive)
REMARK    1  A    between atoms: C_2  and  C_4
REMARK    2  A    between atoms: C_5  and  C_6
REMARK    3  A    between atoms: C_9  and  N_10
REMARK    4  A    between atoms: N_10  and  C_11
REMARK                            x       y       z     vdW  Elec       q    Type
REMARK                         _______ _______ _______ _____ _____    ______ ____
ROOT
ATOM      1  N   UNL     1       2.295   6.359  18.711  0.00  0.00    +0.000 N 
ATOM      2  H   UNL     1       1.795   5.974  17.911  0.00  0.00    +0.000 HD
ENDROOT
BRANCH   1   3
ATOM      3  C   UNL     1       3.468   5.566  18.969  0.00  0.00    +0.000 A 
ATOM      4  C   UNL     1       4.799   5.833  18.460  0.00  0.00    +0.000 A 
ATOM      5  C   UNL     1       5.223   6.725  17.442  0.00  0.00    +0.000 A 
ATOM      6  C   UNL     1       6.570   6.996  17.187  0.00  0.00    +0.000 A 
ATOM      7  C   UNL     1       7.541   6.343  17.922  0.00  0.00    +0.000 A 
ATOM      8  C   UNL     1       7.154   5.313  18.772  0.00  0.00    +0.000 A 
ATOM      9  C   UNL     1       5.816   4.995  18.935  0.00  0.00    +0.000 A 
ATOM     10  N   UNL     1       5.526   3.779  19.377  0.00  0.00    +0.000 NA
ATOM     11  C   UNL     1       4.233   3.444  19.298  0.00  0.00    +0.000 A 
ATOM     12  C   UNL     1       3.791   2.488  18.399  0.00  0.00    +0.000 A 
ATOM     13  C   UNL     1       2.425   2.233  18.240  0.00  0.00    +0.000 A 
ATOM     14  C   UNL     1       1.545   2.772  19.169  0.00  0.00    +0.000 A 
ATOM     15  C   UNL     1       2.015   3.789  19.984  0.00  0.00    +0.000 A 
ATOM     16  C   UNL     1       3.265   4.328  19.647  0.00  0.00    +0.000 A 
ENDBRANCH   1   3
BRANCH   1  20
ATOM     17  C   UNL     1       1.062  10.398  19.032  0.00  0.00    +0.000 A 
ATOM     18  C   UNL     1       1.046   9.552  20.147  0.00  0.00    +0.000 A 
ATOM     19  C   UNL     1       1.518   8.234  20.060  0.00  0.00    +0.000 A 
ATOM     20  C   UNL     1       2.033   7.735  18.855  0.00  0.00    +0.000 A 
ATOM     21  C   UNL     1       2.207   8.634  17.809  0.00  0.00    +0.000 A 
ATOM     22  C   UNL     1       1.649   9.911  17.857  0.00  0.00    +0.000 A 
BRANCH  17  24
ATOM     23  C   UNL     1       1.021  12.852  18.659  0.00  0.00    +0.000 C 
ATOM     24  C   UNL     1       0.447  11.727  19.120  0.00  0.00    +0.000 C 
BRANCH  23  26
ATOM     25  N   UNL     1      -0.979  14.045  19.052  0.00  0.00    +0.000 N 
ATOM     26  C   UNL     1       0.368  14.150  18.853  0.00  0.00    +0.000 C 
ATOM     27  O   UNL     1       0.918  15.242  18.819  0.00  0.00    +0.000 OA
ATOM     28  H   UNL     1      -1.506  14.919  19.132  0.00  0.00    +0.000 HD
ATOM     29  H   UNL     1      -1.514  13.187  19.050  0.00  0.00    +0.000 HD
ENDBRANCH  23  26
ENDBRANCH  17  24
ENDBRANCH   1  20
TORSDOF 4
ENDMDL
