MODEL 1
REMARK VINA RESULT:      -8.4      0.000      0.000
REMARK  Name = 
REMARK  8 active torsions:
REMARK  status: ('A' for Active; 'I' for Inactive)
REMARK    1  A    between atoms: C_1  and  N_2
REMARK    2  A    between atoms: C_3  and  C_5
REMARK    3  A    between atoms: C_8  and  N_9
REMARK    4  A    between atoms: N_14  and  C_15
REMARK    5  A    between atoms: C_17  and  C_18
REMARK    6  A    between atoms: C_19  and  C_20
REMARK    7  A    between atoms: C_27  and  O_28
REMARK    8  A    between atoms: C_29  and  O_30
REMARK                            x       y       z     vdW  Elec       q    Type
REMARK                         _______ _______ _______ _____ _____    ______ ____
ROOT
ATOM      1  N   UNL     1       4.760   4.065  18.526  0.00  0.00    +0.000 N 
ATOM      2  C   UNL     1       4.879   2.700  18.645  0.00  0.00    +0.000 A 
ATOM      3  N   UNL     1       4.066   2.208  19.552  0.00  0.00    +0.000 NA
ATOM      4  C   UNL     1       3.359   3.300  20.012  0.00  0.00    +0.000 A 
ATOM      5  C   UNL     1       2.335   3.406  20.973  0.00  0.00    +0.000 A 
ATOM      6  N   UNL     1       1.866   2.286  21.627  0.00  0.00    +0.000 N 
ATOM      7  C   UNL     1       0.900   2.335  22.690  0.00  0.00    +0.000 C 
ATOM      8  N   UNL     1       1.821   4.638  21.205  0.00  0.00    +0.000 NA
ATOM      9  C   UNL     1       2.318   5.683  20.508  0.00  0.00    +0.000 A 
ATOM     10  N   UNL     1       3.297   5.705  19.575  0.00  0.00    +0.000 NA
ATOM     11  C   UNL     1       3.772   4.465  19.378  0.00  0.00    +0.000 A 
ATOM     12  H   UNL     1       2.386   1.430  21.461  0.00  0.00    +0.000 HD
ENDROOT
BRANCH   1  16
ATOM     13  C   UNL     1       6.396   5.259  15.348  0.00  0.00    +0.000 C 
ATOM     14  C   UNL     1       5.075   6.046  15.352  0.00  0.00    +0.000 C 
ATOM     15  C   UNL     1       5.185   4.785  16.138  0.00  0.00    +0.000 C 
ATOM     16  C   UNL     1       5.552   4.857  17.611  0.00  0.00    +0.000 C 
ATOM     17  C   UNL     1       7.063   4.578  17.595  0.00  0.00    +0.000 C 
ATOM     18  C   UNL     1       7.515   5.427  16.373  0.00  0.00    +0.000 C 
BRANCH  13  21
ATOM     19  C   UNL     1       6.478   3.199  12.182  0.00  0.00    +0.000 C 
ATOM     20  N   UNL     1       6.175   3.687  13.506  0.00  0.00    +0.000 N 
ATOM     21  C   UNL     1       6.806   4.804  13.989  0.00  0.00    +0.000 C 
ATOM     22  O   UNL     1       7.677   5.417  13.388  0.00  0.00    +0.000 OA
ATOM     23  H   UNL     1       5.409   3.270  14.018  0.00  0.00    +0.000 HD
ENDBRANCH  13  21
BRANCH  17  24
ATOM     24  O   UNL     1       7.699   5.005  18.795  0.00  0.00    +0.000 OA
ATOM     25  H   UNL     1       8.411   5.622  18.527  0.00  0.00    +0.000 HD
ENDBRANCH  17  24
BRANCH  18  26
ATOM     26  O   UNL     1       7.685   6.783  16.807  0.00  0.00    +0.000 OA
ATOM     27  H   UNL     1       8.310   6.813  17.549  0.00  0.00    +0.000 HD
ENDBRANCH  18  26
ENDBRANCH   1  16
BRANCH   9  28
ATOM     28  C   UNL     1       1.704   6.939  20.775  0.00  0.00    +0.000 C 
ATOM     29  C   UNL     1       1.170   7.986  21.020  0.00  0.00    +0.000 C 
BRANCH  29  30
ATOM     30  C   UNL     1       0.517   9.199  21.330  0.00  0.00    +0.000 A 
ATOM     31  C   UNL     1       0.053   9.703  22.521  0.00  0.00    +0.000 A 
ATOM     32  C   UNL     1      -0.504  10.967  22.212  0.00  0.00    +0.000 A 
ATOM     33  C   UNL     1      -0.338  11.142  20.857  0.00  0.00    +0.000 A 
ATOM     34  O   UNL     1       0.282  10.062  20.310  0.00  0.00    +0.000 OA
ENDBRANCH  29  30
ENDBRANCH   9  28
TORSDOF 6
ENDMDL
MODEL 2
REMARK VINA RESULT:      -7.3      2.432      8.071
REMARK  Name = 
REMARK  8 active torsions:
REMARK  status: ('A' for Active; 'I' for Inactive)
REMARK    1  A    between atoms: C_1  and  N_2
REMARK    2  A    between atoms: C_3  and  C_5
REMARK    3  A    between atoms: C_8  and  N_9
REMARK    4  A    between atoms: N_14  and  C_15
REMARK    5  A    between atoms: C_17  and  C_18
REMARK    6  A    between atoms: C_19  and  C_20
REMARK    7  A    between atoms: C_27  and  O_28
REMARK    8  A    between atoms: C_29  and  O_30
REMARK                            x       y       z     vdW  Elec       q    Type
REMARK                         _______ _______ _______ _____ _____    ______ ____
ROOT
ATOM      1  N   UNL     1       2.295   6.967  19.664  0.00  0.00    +0.000 N 
ATOM      2  C   UNL     1       1.862   6.445  20.861  0.00  0.00    +0.000 A 
ATOM      3  N   UNL     1       2.225   5.192  21.016  0.00  0.00    +0.000 NA
ATOM      4  C   UNL     1       2.962   4.903  19.887  0.00  0.00    +0.000 A 
ATOM      5  C   UNL     1       3.629   3.727  19.488  0.00  0.00    +0.000 A 
ATOM      6  N   UNL     1       3.623   2.609  20.294  0.00  0.00    +0.000 N 
ATOM      7  C   UNL     1       4.192   1.348  19.903  0.00  0.00    +0.000 C 
ATOM      8  N   UNL     1       4.288   3.754  18.305  0.00  0.00    +0.000 NA
ATOM      9  C   UNL     1       4.266   4.896  17.583  0.00  0.00    +0.000 A 
ATOM     10  N   UNL     1       3.659   6.073  17.856  0.00  0.00    +0.000 NA
ATOM     11  C   UNL     1       3.023   5.999  19.036  0.00  0.00    +0.000 A 
ATOM     12  H   UNL     1       3.016   2.655  21.106  0.00  0.00    +0.000 HD
ENDROOT
BRANCH   1  16
ATOM     13  C   UNL     1       0.437  10.178  19.000  0.00  0.00    +0.000 C 
ATOM     14  C   UNL     1       1.031  10.426  20.396  0.00  0.00    +0.000 C 
ATOM     15  C   UNL     1       0.850   9.029  19.908  0.00  0.00    +0.000 C 
ATOM     16  C   UNL     1       2.015   8.320  19.237  0.00  0.00    +0.000 C 
ATOM     17  C   UNL     1       1.714   8.519  17.743  0.00  0.00    +0.000 C 
ATOM     18  C   UNL     1       1.256  10.005  17.722  0.00  0.00    +0.000 C 
BRANCH  13  21
ATOM     19  C   UNL     1      -2.787  11.203  17.319  0.00  0.00    +0.000 C 
ATOM     20  N   UNL     1      -1.448  10.723  17.565  0.00  0.00    +0.000 N 
ATOM     21  C   UNL     1      -0.935  10.735  18.836  0.00  0.00    +0.000 C 
ATOM     22  O   UNL     1      -1.521  11.184  19.811  0.00  0.00    +0.000 OA
ATOM     23  H   UNL     1      -0.946  10.268  16.814  0.00  0.00    +0.000 HD
ENDBRANCH  13  21
BRANCH  17  24
ATOM     24  O   UNL     1       2.866   8.314  16.933  0.00  0.00    +0.000 OA
ATOM     25  H   UNL     1       3.414   9.121  17.020  0.00  0.00    +0.000 HD
ENDBRANCH  17  24
BRANCH  18  26
ATOM     26  O   UNL     1       2.426  10.835  17.683  0.00  0.00    +0.000 OA
ATOM     27  H   UNL     1       2.163  11.769  17.668  0.00  0.00    +0.000 HD
ENDBRANCH  18  26
ENDBRANCH   1  16
BRANCH   9  28
ATOM     28  C   UNL     1       5.012   4.863  16.371  0.00  0.00    +0.000 C 
ATOM     29  C   UNL     1       5.656   4.813  15.359  0.00  0.00    +0.000 C 
BRANCH  29  30
ATOM     30  C   UNL     1       6.435   4.729  14.185  0.00  0.00    +0.000 A 
ATOM     31  C   UNL     1       6.323   3.927  13.075  0.00  0.00    +0.000 A 
ATOM     32  C   UNL     1       7.388   4.301  12.220  0.00  0.00    +0.000 A 
ATOM     33  C   UNL     1       8.070   5.303  12.871  0.00  0.00    +0.000 A 
ATOM     34  O   UNL     1       7.496   5.568  14.075  0.00  0.00    +0.000 OA
ENDBRANCH  29  30
ENDBRANCH   9  28
TORSDOF 6
ENDMDL
MODEL 3
REMARK VINA RESULT:      -7.3      8.525     12.224
REMARK  Name = 
REMARK  8 active torsions:
REMARK  status: ('A' for Active; 'I' for Inactive)
REMARK    1  A    between atoms: C_1  and  N_2
REMARK    2  A    between atoms: C_3  and  C_5
REMARK    3  A    between atoms: C_8  and  N_9
REMARK    4  A    between atoms: N_14  and  C_15
REMARK    5  A    between atoms: C_17  and  C_18
REMARK    6  A    between atoms: C_19  and  C_20
REMARK    7  A    between atoms: C_27  and  O_28
REMARK    8  A    between atoms: C_29  and  O_30
REMARK                            x       y       z     vdW  Elec       q    Type
REMARK                         _______ _______ _______ _____ _____    ______ ____
ROOT
ATOM      1  N   UNL     1       9.099  13.579  21.839  0.00  0.00    +0.000 N 
ATOM      2  C   UNL     1       9.793  14.758  21.699  0.00  0.00    +0.000 A 
ATOM      3  N   UNL     1      10.497  14.791  20.590  0.00  0.00    +0.000 NA
ATOM      4  C   UNL     1      10.213  13.595  19.964  0.00  0.00    +0.000 A 
ATOM      5  C   UNL     1      10.650  13.063  18.735  0.00  0.00    +0.000 A 
ATOM      6  N   UNL     1      11.506  13.778  17.924  0.00  0.00    +0.000 N 
ATOM      7  C   UNL     1      12.073  13.253  16.712  0.00  0.00    +0.000 C 
ATOM      8  N   UNL     1      10.180  11.843  18.380  0.00  0.00    +0.000 NA
ATOM      9  C   UNL     1       9.326  11.215  19.218  0.00  0.00    +0.000 A 
ATOM     10  N   UNL     1       8.846  11.619  20.417  0.00  0.00    +0.000 NA
ATOM     11  C   UNL     1       9.337  12.830  20.723  0.00  0.00    +0.000 A 
ATOM     12  H   UNL     1      11.883  14.630  18.327  0.00  0.00    +0.000 HD
ENDROOT
BRANCH   1  16
ATOM     13  C   UNL     1       7.597  13.730  25.292  0.00  0.00    +0.000 C 
ATOM     14  C   UNL     1       6.684  14.677  24.496  0.00  0.00    +0.000 C 
ATOM     15  C   UNL     1       8.059  14.386  23.999  0.00  0.00    +0.000 C 
ATOM     16  C   UNL     1       8.261  13.278  22.978  0.00  0.00    +0.000 C 
ATOM     17  C   UNL     1       8.693  12.090  23.853  0.00  0.00    +0.000 C 
ATOM     18  C   UNL     1       7.714  12.226  25.053  0.00  0.00    +0.000 C 
BRANCH  13  21
ATOM     19  C   UNL     1       9.547  14.891  28.312  0.00  0.00    +0.000 C 
ATOM     20  N   UNL     1       9.189  14.394  27.005  0.00  0.00    +0.000 N 
ATOM     21  C   UNL     1       7.872  14.203  26.679  0.00  0.00    +0.000 C 
ATOM     22  O   UNL     1       6.939  14.376  27.449  0.00  0.00    +0.000 OA
ATOM     23  H   UNL     1       9.910  14.308  26.301  0.00  0.00    +0.000 HD
ENDBRANCH  13  21
BRANCH  17  24
ATOM     24  O   UNL     1       8.531  10.845  23.182  0.00  0.00    +0.000 OA
ATOM     25  H   UNL     1       9.141  10.862  22.416  0.00  0.00    +0.000 HD
ENDBRANCH  17  24
BRANCH  18  26
ATOM     26  O   UNL     1       6.469  11.613  24.689  0.00  0.00    +0.000 OA
ATOM     27  H   UNL     1       6.071  11.194  25.468  0.00  0.00    +0.000 HD
ENDBRANCH  18  26
ENDBRANCH   1  16
BRANCH   9  28
ATOM     28  C   UNL     1       8.843   9.957  18.762  0.00  0.00    +0.000 C 
ATOM     29  C   UNL     1       8.435   8.886  18.404  0.00  0.00    +0.000 C 
BRANCH  29  30
ATOM     30  C   UNL     1       7.962   7.613  18.016  0.00  0.00    +0.000 A 
ATOM     31  C   UNL     1       7.902   6.420  18.695  0.00  0.00    +0.000 A 
ATOM     32  C   UNL     1       7.321   5.494  17.796  0.00  0.00    +0.000 A 
ATOM     33  C   UNL     1       7.068   6.190  16.636  0.00  0.00    +0.000 A 
ATOM     34  O   UNL     1       7.461   7.486  16.762  0.00  0.00    +0.000 OA
ENDBRANCH  29  30
ENDBRANCH   9  28
TORSDOF 6
ENDMDL
MODEL 4
REMARK VINA RESULT:      -7.0      2.696      8.528
REMARK  Name = 
REMARK  8 active torsions:
REMARK  status: ('A' for Active; 'I' for Inactive)
REMARK    1  A    between atoms: C_1  and  N_2
REMARK    2  A    between atoms: C_3  and  C_5
REMARK    3  A    between atoms: C_8  and  N_9
REMARK    4  A    between atoms: N_14  and  C_15
REMARK    5  A    between atoms: C_17  and  C_18
REMARK    6  A    between atoms: C_19  and  C_20
REMARK    7  A    between atoms: C_27  and  O_28
REMARK    8  A    between atoms: C_29  and  O_30
REMARK                            x       y       z     vdW  Elec       q    Type
REMARK                         _______ _______ _______ _____ _____    ______ ____
ROOT
ATOM      1  N   UNL     1       1.537   8.611  20.146  0.00  0.00    +0.000 N 
ATOM      2  C   UNL     1       0.879   8.309  21.316  0.00  0.00    +0.000 A 
ATOM      3  N   UNL     1       0.958   7.033  21.614  0.00  0.00    +0.000 NA
ATOM      4  C   UNL     1       1.737   6.490  20.613  0.00  0.00    +0.000 A 
ATOM      5  C   UNL     1       2.186   5.173  20.396  0.00  0.00    +0.000 A 
ATOM      6  N   UNL     1       1.862   4.165  21.280  0.00  0.00    +0.000 N 
ATOM      7  C   UNL     1       2.198   2.785  21.064  0.00  0.00    +0.000 C 
ATOM      8  N   UNL     1       2.959   4.949  19.306  0.00  0.00    +0.000 NA
ATOM      9  C   UNL     1       3.251   5.992  18.500  0.00  0.00    +0.000 A 
ATOM     10  N   UNL     1       2.874   7.287  18.600  0.00  0.00    +0.000 NA
ATOM     11  C   UNL     1       2.113   7.460  19.693  0.00  0.00    +0.000 A 
ATOM     12  H   UNL     1       1.193   4.413  22.002  0.00  0.00    +0.000 HD
ENDROOT
BRANCH   1  16
ATOM     13  C   UNL     1       0.679  12.210  19.427  0.00  0.00    +0.000 C 
ATOM     14  C   UNL     1       1.687  12.338  20.581  0.00  0.00    +0.000 C 
ATOM     15  C   UNL     1       0.946  11.059  20.387  0.00  0.00    +0.000 C 
ATOM     16  C   UNL     1       1.590   9.942  19.582  0.00  0.00    +0.000 C 
ATOM     17  C   UNL     1       0.961  10.123  18.192  0.00  0.00    +0.000 C 
ATOM     18  C   UNL     1       1.008  11.669  18.037  0.00  0.00    +0.000 C 
BRANCH  13  21
ATOM     19  C   UNL     1      -2.582  13.782  20.506  0.00  0.00    +0.000 C 
ATOM     20  N   UNL     1      -1.478  12.867  20.334  0.00  0.00    +0.000 N 
ATOM     21  C   UNL     1      -0.436  13.196  19.507  0.00  0.00    +0.000 C 
ATOM     22  O   UNL     1      -0.384  14.216  18.836  0.00  0.00    +0.000 OA
ATOM     23  H   UNL     1      -1.428  12.046  20.922  0.00  0.00    +0.000 HD
ENDBRANCH  13  21
BRANCH  17  24
ATOM     24  O   UNL     1       1.713   9.471  17.175  0.00  0.00    +0.000 OA
ATOM     25  H   UNL     1       1.127   9.407  16.393  0.00  0.00    +0.000 HD
ENDBRANCH  17  24
BRANCH  18  26
ATOM     26  O   UNL     1       2.319  12.035  17.584  0.00  0.00    +0.000 OA
ATOM     27  H   UNL     1       2.875  12.265  18.345  0.00  0.00    +0.000 HD
ENDBRANCH  18  26
ENDBRANCH   1  16
BRANCH   9  28
ATOM     28  C   UNL     1       4.100   5.690  17.398  0.00  0.00    +0.000 C 
ATOM     29  C   UNL     1       4.801   5.413  16.463  0.00  0.00    +0.000 C 
BRANCH  29  30
ATOM     30  C   UNL     1       5.606   5.054  15.361  0.00  0.00    +0.000 A 
ATOM     31  C   UNL     1       5.400   4.160  14.338  0.00  0.00    +0.000 A 
ATOM     32  C   UNL     1       6.555   4.235  13.523  0.00  0.00    +0.000 A 
ATOM     33  C   UNL     1       7.380   5.170  14.108  0.00  0.00    +0.000 A 
ATOM     34  O   UNL     1       6.807   5.672  15.234  0.00  0.00    +0.000 OA
ENDBRANCH  29  30
ENDBRANCH   9  28
TORSDOF 6
ENDMDL
MODEL 5
REMARK VINA RESULT:      -6.9      3.349      7.449
REMARK  Name = 
REMARK  8 active torsions:
REMARK  status: ('A' for Active; 'I' for Inactive)
REMARK    1  A    between atoms: C_1  and  N_2
REMARK    2  A    between atoms: C_3  and  C_5
REMARK    3  A    between atoms: C_8  and  N_9
REMARK    4  A    between atoms: N_14  and  C_15
REMARK    5  A    between atoms: C_17  and  C_18
REMARK    6  A    between atoms: C_19  and  C_20
REMARK    7  A    between atoms: C_27  and  O_28
REMARK    8  A    between atoms: C_29  and  O_30
REMARK                            x       y       z     vdW  Elec       q    Type
REMARK                         _______ _______ _______ _____ _____    ______ ____
ROOT
ATOM      1  N   UNL     1       4.770   4.149  16.831  0.00  0.00    +0.000 N 
ATOM      2  C   UNL     1       4.745   3.237  15.801  0.00  0.00    +0.000 A 
ATOM      3  N   UNL     1       5.620   3.524  14.864  0.00  0.00    +0.000 NA
ATOM      4  C   UNL     1       6.269   4.649  15.328  0.00  0.00    +0.000 A 
ATOM      5  C   UNL     1       7.318   5.410  14.776  0.00  0.00    +0.000 A 
ATOM      6  N   UNL     1       7.883   5.058  13.568  0.00  0.00    +0.000 N 
ATOM      7  C   UNL     1       8.880   5.847  12.900  0.00  0.00    +0.000 C 
ATOM      8  N   UNL     1       7.757   6.477  15.488  0.00  0.00    +0.000 NA
ATOM      9  C   UNL     1       7.168   6.744  16.674  0.00  0.00    +0.000 A 
ATOM     10  N   UNL     1       6.157   6.096  17.296  0.00  0.00    +0.000 NA
ATOM     11  C   UNL     1       5.759   5.049  16.556  0.00  0.00    +0.000 A 
ATOM     12  H   UNL     1       7.414   4.310  13.066  0.00  0.00    +0.000 HD
ENDROOT
BRANCH   1  16
ATOM     13  C   UNL     1       2.333   5.167  19.520  0.00  0.00    +0.000 C 
ATOM     14  C   UNL     1       1.401   4.661  18.407  0.00  0.00    +0.000 C 
ATOM     15  C   UNL     1       2.781   5.108  18.067  0.00  0.00    +0.000 C 
ATOM     16  C   UNL     1       3.895   4.077  17.980  0.00  0.00    +0.000 C 
ATOM     17  C   UNL     1       4.564   4.190  19.359  0.00  0.00    +0.000 C 
ATOM     18  C   UNL     1       3.324   4.297  20.290  0.00  0.00    +0.000 C 
BRANCH  13  21
ATOM     19  C   UNL     1       1.529   8.782  20.265  0.00  0.00    +0.000 C 
ATOM     20  N   UNL     1       2.044   7.577  19.661  0.00  0.00    +0.000 N 
ATOM     21  C   UNL     1       1.800   6.359  20.239  0.00  0.00    +0.000 C 
ATOM     22  O   UNL     1       1.202   6.204  21.294  0.00  0.00    +0.000 OA
ATOM     23  H   UNL     1       2.477   7.634  18.748  0.00  0.00    +0.000 HD
ENDBRANCH  13  21
BRANCH  17  24
ATOM     24  O   UNL     1       5.354   3.045  19.666  0.00  0.00    +0.000 OA
ATOM     25  H   UNL     1       4.777   2.440  20.175  0.00  0.00    +0.000 HD
ENDBRANCH  17  24
BRANCH  18  26
ATOM     26  O   UNL     1       2.836   2.972  20.542  0.00  0.00    +0.000 OA
ATOM     27  H   UNL     1       2.040   2.811  20.011  0.00  0.00    +0.000 HD
ENDBRANCH  18  26
ENDBRANCH   1  16
BRANCH   9  28
ATOM     28  C   UNL     1       7.707   7.853  17.383  0.00  0.00    +0.000 C 
ATOM     29  C   UNL     1       8.167   8.803  17.957  0.00  0.00    +0.000 C 
BRANCH  29  30
ATOM     30  C   UNL     1       8.720   9.932  18.599  0.00  0.00    +0.000 A 
ATOM     31  C   UNL     1       8.965  11.205  18.147  0.00  0.00    +0.000 A 
ATOM     32  C   UNL     1       9.523  11.904  19.244  0.00  0.00    +0.000 A 
ATOM     33  C   UNL     1       9.577  11.005  20.286  0.00  0.00    +0.000 A 
ATOM     34  O   UNL     1       9.090   9.796  19.898  0.00  0.00    +0.000 OA
ENDBRANCH  29  30
ENDBRANCH   9  28
TORSDOF 6
ENDMDL
MODEL 6
REMARK VINA RESULT:      -6.7      1.132      1.326
REMARK  Name = 
REMARK  8 active torsions:
REMARK  status: ('A' for Active; 'I' for Inactive)
REMARK    1  A    between atoms: C_1  and  N_2
REMARK    2  A    between atoms: C_3  and  C_5
REMARK    3  A    between atoms: C_8  and  N_9
REMARK    4  A    between atoms: N_14  and  C_15
REMARK    5  A    between atoms: C_17  and  C_18
REMARK    6  A    between atoms: C_19  and  C_20
REMARK    7  A    between atoms: C_27  and  O_28
REMARK    8  A    between atoms: C_29  and  O_30
REMARK                            x       y       z     vdW  Elec       q    Type
REMARK                         _______ _______ _______ _____ _____    ______ ____
ROOT
ATOM      1  N   UNL     1       4.678   3.743  17.547  0.00  0.00    +0.000 N 
ATOM      2  C   UNL     1       4.662   2.380  17.731  0.00  0.00    +0.000 A 
ATOM      3  N   UNL     1       3.875   2.021  18.719  0.00  0.00    +0.000 NA
ATOM      4  C   UNL     1       3.324   3.203  19.170  0.00  0.00    +0.000 A 
ATOM      5  C   UNL     1       2.394   3.463  20.196  0.00  0.00    +0.000 A 
ATOM      6  N   UNL     1       1.862   2.432  20.940  0.00  0.00    +0.000 N 
ATOM      7  C   UNL     1       0.992   2.634  22.066  0.00  0.00    +0.000 C 
ATOM      8  N   UNL     1       2.033   4.753  20.398  0.00  0.00    +0.000 NA
ATOM      9  C   UNL     1       2.581   5.705  19.612  0.00  0.00    +0.000 A 
ATOM     10  N   UNL     1       3.482   5.578  18.611  0.00  0.00    +0.000 NA
ATOM     11  C   UNL     1       3.807   4.286  18.447  0.00  0.00    +0.000 A 
ATOM     12  H   UNL     1       2.275   1.518  20.783  0.00  0.00    +0.000 HD
ENDROOT
BRANCH   1  16
ATOM     13  C   UNL     1       6.260   4.541  14.221  0.00  0.00    +0.000 C 
ATOM     14  C   UNL     1       4.980   5.392  14.188  0.00  0.00    +0.000 C 
ATOM     15  C   UNL     1       5.055   4.207  15.089  0.00  0.00    +0.000 C 
ATOM     16  C   UNL     1       5.476   4.402  16.537  0.00  0.00    +0.000 C 
ATOM     17  C   UNL     1       6.970   4.045  16.503  0.00  0.00    +0.000 C 
ATOM     18  C   UNL     1       7.420   4.748  15.192  0.00  0.00    +0.000 C 
BRANCH  13  21
ATOM     19  C   UNL     1       6.347   2.038  11.393  0.00  0.00    +0.000 C 
ATOM     20  N   UNL     1       6.102   2.683  12.661  0.00  0.00    +0.000 N 
ATOM     21  C   UNL     1       6.601   3.937  12.902  0.00  0.00    +0.000 C 
ATOM     22  O   UNL     1       7.306   4.560  12.121  0.00  0.00    +0.000 OA
ATOM     23  H   UNL     1       5.462   2.252  13.314  0.00  0.00    +0.000 HD
ENDBRANCH  13  21
BRANCH  17  24
ATOM     24  O   UNL     1       7.667   4.552  17.637  0.00  0.00    +0.000 OA
ATOM     25  H   UNL     1       8.374   3.906  17.839  0.00  0.00    +0.000 HD
ENDBRANCH  17  24
BRANCH  18  26
ATOM     26  O   UNL     1       7.671   6.130  15.487  0.00  0.00    +0.000 OA
ATOM     27  H   UNL     1       7.214   6.690  14.839  0.00  0.00    +0.000 HD
ENDBRANCH  18  26
ENDBRANCH   1  16
BRANCH   9  28
ATOM     28  C   UNL     1       2.125   7.031  19.856  0.00  0.00    +0.000 C 
ATOM     29  C   UNL     1       1.715   8.140  20.066  0.00  0.00    +0.000 C 
BRANCH  29  30
ATOM     30  C   UNL     1       1.197   9.430  20.314  0.00  0.00    +0.000 A 
ATOM     31  C   UNL     1       0.960  10.491  19.474  0.00  0.00    +0.000 A 
ATOM     32  C   UNL     1       0.428  11.517  20.292  0.00  0.00    +0.000 A 
ATOM     33  C   UNL     1       0.379  11.006  21.569  0.00  0.00    +0.000 A 
ATOM     34  O   UNL     1       0.851   9.731  21.591  0.00  0.00    +0.000 OA
ENDBRANCH  29  30
ENDBRANCH   9  28
TORSDOF 6
ENDMDL
MODEL 7
REMARK VINA RESULT:      -6.7      5.746     11.998
REMARK  Name = 
REMARK  8 active torsions:
REMARK  status: ('A' for Active; 'I' for Inactive)
REMARK    1  A    between atoms: C_1  and  N_2
REMARK    2  A    between atoms: C_3  and  C_5
REMARK    3  A    between atoms: C_8  and  N_9
REMARK    4  A    between atoms: N_14  and  C_15
REMARK    5  A    between atoms: C_17  and  C_18
REMARK    6  A    between atoms: C_19  and  C_20
REMARK    7  A    between atoms: C_27  and  O_28
REMARK    8  A    between atoms: C_29  and  O_30
REMARK                            x       y       z     vdW  Elec       q    Type
REMARK                         _______ _______ _______ _____ _____    ______ ____
ROOT
ATOM      1  N   UNL     1      -2.998  12.308  20.043  0.00  0.00    +0.000 N 
ATOM      2  C   UNL     1      -4.208  12.732  19.543  0.00  0.00    +0.000 A 
ATOM      3  N   UNL     1      -4.419  12.298  18.322  0.00  0.00    +0.000 NA
ATOM      4  C   UNL     1      -3.315  11.524  18.032  0.00  0.00    +0.000 A 
ATOM      5  C   UNL     1      -2.976  10.782  16.884  0.00  0.00    +0.000 A 
ATOM      6  N   UNL     1      -3.826  10.736  15.800  0.00  0.00    +0.000 N 
ATOM      7  C   UNL     1      -3.496  10.087  14.561  0.00  0.00    +0.000 C 
ATOM      8  N   UNL     1      -1.803  10.103  16.904  0.00  0.00    +0.000 NA
ATOM      9  C   UNL     1      -1.035  10.179  18.013  0.00  0.00    +0.000 A 
ATOM     10  N   UNL     1      -1.250  10.860  19.161  0.00  0.00    +0.000 NA
ATOM     11  C   UNL     1      -2.422  11.512  19.096  0.00  0.00    +0.000 A 
ATOM     12  H   UNL     1      -4.625  11.361  15.842  0.00  0.00    +0.000 HD
ENDROOT
BRANCH   1  16
ATOM     13  C   UNL     1      -2.862  13.766  23.515  0.00  0.00    +0.000 C 
ATOM     14  C   UNL     1      -3.420  12.357  23.773  0.00  0.00    +0.000 C 
ATOM     15  C   UNL     1      -3.555  12.968  22.420  0.00  0.00    +0.000 C 
ATOM     16  C   UNL     1      -2.512  12.659  21.359  0.00  0.00    +0.000 C 
ATOM     17  C   UNL     1      -1.578  13.877  21.443  0.00  0.00    +0.000 C 
ATOM     18  C   UNL     1      -1.463  14.065  22.981  0.00  0.00    +0.000 C 
BRANCH  13  21
ATOM     19  C   UNL     1      -5.133  16.592  24.578  0.00  0.00    +0.000 C 
ATOM     20  N   UNL     1      -4.452  15.582  23.802  0.00  0.00    +0.000 N 
ATOM     21  C   UNL     1      -3.478  14.811  24.381  0.00  0.00    +0.000 C 
ATOM     22  O   UNL     1      -3.086  14.945  25.531  0.00  0.00    +0.000 OA
ATOM     23  H   UNL     1      -4.786  15.373  22.871  0.00  0.00    +0.000 HD
ENDBRANCH  13  21
BRANCH  17  24
ATOM     24  O   UNL     1      -0.309  13.619  20.849  0.00  0.00    +0.000 OA
ATOM     25  H   UNL     1       0.100  12.899  21.372  0.00  0.00    +0.000 HD
ENDBRANCH  17  24
BRANCH  18  26
ATOM     26  O   UNL     1      -0.465  13.159  23.472  0.00  0.00    +0.000 OA
ATOM     27  H   UNL     1      -0.247  12.510  22.784  0.00  0.00    +0.000 HD
ENDBRANCH  18  26
ENDBRANCH   1  16
BRANCH   9  28
ATOM     28  C   UNL     1       0.162   9.410  17.976  0.00  0.00    +0.000 C 
ATOM     29  C   UNL     1       1.158   8.739  17.957  0.00  0.00    +0.000 C 
BRANCH  29  30
ATOM     30  C   UNL     1       2.311   7.925  17.955  0.00  0.00    +0.000 A 
ATOM     31  C   UNL     1       2.679   6.868  18.752  0.00  0.00    +0.000 A 
ATOM     32  C   UNL     1       3.940   6.443  18.270  0.00  0.00    +0.000 A 
ATOM     33  C   UNL     1       4.248   7.270  17.214  0.00  0.00    +0.000 A 
ATOM     34  O   UNL     1       3.258   8.181  17.017  0.00  0.00    +0.000 OA
ENDBRANCH  29  30
ENDBRANCH   9  28
TORSDOF 6
ENDMDL
MODEL 8
REMARK VINA RESULT:      -6.6      9.358     13.240
REMARK  Name = 
REMARK  8 active torsions:
REMARK  status: ('A' for Active; 'I' for Inactive)
REMARK    1  A    between atoms: C_1  and  N_2
REMARK    2  A    between atoms: C_3  and  C_5
REMARK    3  A    between atoms: C_8  and  N_9
REMARK    4  A    between atoms: N_14  and  C_15
REMARK    5  A    between atoms: C_17  and  C_18
REMARK    6  A    between atoms: C_19  and  C_20
REMARK    7  A    between atoms: C_27  and  O_28
REMARK    8  A    between atoms: C_29  and  O_30
REMARK                            x       y       z     vdW  Elec       q    Type
REMARK                         _______ _______ _______ _____ _____    ______ ____
ROOT
ATOM      1  N   UNL     1      -2.314  14.381  23.229  0.00  0.00    +0.000 N 
ATOM      2  C   UNL     1      -1.371  15.056  23.970  0.00  0.00    +0.000 A 
ATOM      3  N   UNL     1      -0.175  14.985  23.433  0.00  0.00    +0.000 NA
ATOM      4  C   UNL     1      -0.358  14.267  22.269  0.00  0.00    +0.000 A 
ATOM      5  C   UNL     1       0.548  13.882  21.262  0.00  0.00    +0.000 A 
ATOM      6  N   UNL     1       1.877  14.240  21.338  0.00  0.00    +0.000 N 
ATOM      7  C   UNL     1       2.872  13.794  20.402  0.00  0.00    +0.000 C 
ATOM      8  N   UNL     1       0.055  13.175  20.216  0.00  0.00    +0.000 NA
ATOM      9  C   UNL     1      -1.264  12.883  20.202  0.00  0.00    +0.000 A 
ATOM     10  N   UNL     1      -2.220  13.187  21.108  0.00  0.00    +0.000 NA
ATOM     11  C   UNL     1      -1.686  13.888  22.122  0.00  0.00    +0.000 A 
ATOM     12  H   UNL     1       2.166  14.675  22.209  0.00  0.00    +0.000 HD
ENDROOT
BRANCH   1  16
ATOM     13  C   UNL     1      -5.835  13.078  23.549  0.00  0.00    +0.000 C 
ATOM     14  C   UNL     1      -5.152  12.484  24.792  0.00  0.00    +0.000 C 
ATOM     15  C   UNL     1      -4.326  12.899  23.623  0.00  0.00    +0.000 C 
ATOM     16  C   UNL     1      -3.706  14.287  23.607  0.00  0.00    +0.000 C 
ATOM     17  C   UNL     1      -4.703  15.089  22.756  0.00  0.00    +0.000 C 
ATOM     18  C   UNL     1      -6.060  14.568  23.307  0.00  0.00    +0.000 C 
BRANCH  13  21
ATOM     19  C   UNL     1      -7.534  11.018  20.877  0.00  0.00    +0.000 C 
ATOM     20  N   UNL     1      -6.660  11.935  21.568  0.00  0.00    +0.000 N 
ATOM     21  C   UNL     1      -6.812  12.149  22.913  0.00  0.00    +0.000 C 
ATOM     22  O   UNL     1      -7.694  11.647  23.595  0.00  0.00    +0.000 OA
ATOM     23  H   UNL     1      -5.864  12.319  21.075  0.00  0.00    +0.000 HD
ENDBRANCH  13  21
BRANCH  17  24
ATOM     24  O   UNL     1      -4.562  16.493  22.949  0.00  0.00    +0.000 OA
ATOM     25  H   UNL     1      -3.743  16.620  23.469  0.00  0.00    +0.000 HD
ENDBRANCH  17  24
BRANCH  18  26
ATOM     26  O   UNL     1      -6.368  15.296  24.504  0.00  0.00    +0.000 OA
ATOM     27  H   UNL     1      -6.322  16.249  24.328  0.00  0.00    +0.000 HD
ENDBRANCH  18  26
ENDBRANCH   1  16
BRANCH   9  28
ATOM     28  C   UNL     1      -1.717  12.173  19.055  0.00  0.00    +0.000 C 
ATOM     29  C   UNL     1      -2.093  11.597  18.071  0.00  0.00    +0.000 C 
BRANCH  29  30
ATOM     30  C   UNL     1      -2.534  10.951  16.895  0.00  0.00    +0.000 A 
ATOM     31  C   UNL     1      -2.117   9.795  16.282  0.00  0.00    +0.000 A 
ATOM     32  C   UNL     1      -2.938   9.648  15.138  0.00  0.00    +0.000 A 
ATOM     33  C   UNL     1      -3.795  10.725  15.138  0.00  0.00    +0.000 A 
ATOM     34  O   UNL     1      -3.552  11.528  16.208  0.00  0.00    +0.000 OA
ENDBRANCH  29  30
ENDBRANCH   9  28
TORSDOF 6
ENDMDL
MODEL 9
REMARK VINA RESULT:      -6.5      8.117     11.679
REMARK  Name = 
REMARK  8 active torsions:
REMARK  status: ('A' for Active; 'I' for Inactive)
REMARK    1  A    between atoms: C_1  and  N_2
REMARK    2  A    between atoms: C_3  and  C_5
REMARK    3  A    between atoms: C_8  and  N_9
REMARK    4  A    between atoms: N_14  and  C_15
REMARK    5  A    between atoms: C_17  and  C_18
REMARK    6  A    between atoms: C_19  and  C_20
REMARK    7  A    between atoms: C_27  and  O_28
REMARK    8  A    between atoms: C_29  and  O_30
REMARK                            x       y       z     vdW  Elec       q    Type
REMARK                         _______ _______ _______ _____ _____    ______ ____
ROOT
ATOM      1  N   UNL     1       9.586  13.713  21.768  0.00  0.00    +0.000 N 
ATOM      2  C   UNL     1      10.148  14.936  21.482  0.00  0.00    +0.000 A 
ATOM      3  N   UNL     1      10.610  14.995  20.255  0.00  0.00    +0.000 NA
ATOM      4  C   UNL     1      10.296  13.768  19.706  0.00  0.00    +0.000 A 
ATOM      5  C   UNL     1      10.517  13.242  18.418  0.00  0.00    +0.000 A 
ATOM      6  N   UNL     1      11.137  14.000  17.447  0.00  0.00    +0.000 N 
ATOM      7  C   UNL     1      11.486  13.490  16.149  0.00  0.00    +0.000 C 
ATOM      8  N   UNL     1      10.077  11.984  18.174  0.00  0.00    +0.000 NA
ATOM      9  C   UNL     1       9.459  11.315  19.171  0.00  0.00    +0.000 A 
ATOM     10  N   UNL     1       9.200  11.709  20.439  0.00  0.00    +0.000 NA
ATOM     11  C   UNL     1       9.651  12.959  20.632  0.00  0.00    +0.000 A 
ATOM     12  H   UNL     1      11.522  14.885  17.759  0.00  0.00    +0.000 HD
ENDROOT
BRANCH   1  16
ATOM     13  C   UNL     1       7.370  12.144  24.381  0.00  0.00    +0.000 C 
ATOM     14  C   UNL     1       8.544  11.154  24.310  0.00  0.00    +0.000 C 
ATOM     15  C   UNL     1       8.270  12.058  23.157  0.00  0.00    +0.000 C 
ATOM     16  C   UNL     1       9.018  13.377  23.055  0.00  0.00    +0.000 C 
ATOM     17  C   UNL     1       8.012  14.380  23.642  0.00  0.00    +0.000 C 
ATOM     18  C   UNL     1       7.475  13.588  24.867  0.00  0.00    +0.000 C 
BRANCH  13  21
ATOM     19  C   UNL     1       4.549  10.282  26.069  0.00  0.00    +0.000 C 
ATOM     20  N   UNL     1       5.818  10.911  25.789  0.00  0.00    +0.000 N 
ATOM     21  C   UNL     1       6.048  11.479  24.563  0.00  0.00    +0.000 C 
ATOM     22  O   UNL     1       5.257  11.452  23.631  0.00  0.00    +0.000 OA
ATOM     23  H   UNL     1       6.480  11.034  26.543  0.00  0.00    +0.000 HD
ENDBRANCH  13  21
BRANCH  17  24
ATOM     24  O   UNL     1       8.637  15.597  24.037  0.00  0.00    +0.000 OA
ATOM     25  H   UNL     1       9.270  15.365  24.748  0.00  0.00    +0.000 HD
ENDBRANCH  17  24
BRANCH  18  26
ATOM     26  O   UNL     1       8.401  13.754  25.950  0.00  0.00    +0.000 OA
ATOM     27  H   UNL     1       9.289  13.488  25.664  0.00  0.00    +0.000 HD
ENDBRANCH  18  26
ENDBRANCH   1  16
BRANCH   9  28
ATOM     28  C   UNL     1       8.989  10.016  18.830  0.00  0.00    +0.000 C 
ATOM     29  C   UNL     1       8.567   8.931  18.535  0.00  0.00    +0.000 C 
BRANCH  29  30
ATOM     30  C   UNL     1       8.038   7.670  18.182  0.00  0.00    +0.000 A 
ATOM     31  C   UNL     1       7.974   6.486  18.875  0.00  0.00    +0.000 A 
ATOM     32  C   UNL     1       7.325   5.570  18.012  0.00  0.00    +0.000 A 
ATOM     33  C   UNL     1       7.040   6.263  16.858  0.00  0.00    +0.000 A 
ATOM     34  O   UNL     1       7.476   7.548  16.953  0.00  0.00    +0.000 OA
ENDBRANCH  29  30
ENDBRANCH   9  28
TORSDOF 6
ENDMDL
