MODEL 1
REMARK VINA RESULT:      -8.2      0.000      0.000
REMARK  Name = 
REMARK  5 active torsions:
REMARK  status: ('A' for Active; 'I' for Inactive)
REMARK    1  A    between atoms: C_2  and  C_3
REMARK    2  A    between atoms: C_3  and  C_4
REMARK    3  A    between atoms: C_4  and  C_5
REMARK    4  A    between atoms: C_11  and  C_12
REMARK    5  A    between atoms: C_12  and  C_14
REMARK                            x       y       z     vdW  Elec       q    Type
REMARK                         _______ _______ _______ _____ _____    ______ ____
ROOT
ATOM      1  C   UNL     1       2.271   6.177  19.256  0.00  0.00    +0.000 C 
ATOM      2  O   UNL     1       2.371   6.874  20.266  0.00  0.00    +0.000 OA
ATOM      3  N   UNL     1       1.742   4.889  19.291  0.00  0.00    +0.000 N 
ATOM      4  C   UNL     1       1.207   4.379  20.549  0.00  0.00    +0.000 C 
ATOM      5  C   UNL     1       2.019   3.200  21.072  0.00  0.00    +0.000 C 
ATOM      6  C   UNL     1       2.188   2.128  19.999  0.00  0.00    +0.000 C 
ATOM      7  C   UNL     1       2.742   2.695  18.684  0.00  0.00    +0.000 C 
ATOM      8  C   UNL     1       1.910   3.899  18.225  0.00  0.00    +0.000 C 
ENDROOT
BRANCH   7   9
ATOM      9  C   UNL     1       4.226   3.064  18.806  0.00  0.00    +0.000 C 
ATOM     10  O   UNL     1       4.920   2.677  19.740  0.00  0.00    +0.000 OA
BRANCH   9  11
ATOM     11  C   UNL     1       4.838   3.909  17.730  0.00  0.00    +0.000 A 
ATOM     12  C   UNL     1       4.373   3.738  16.414  0.00  0.00    +0.000 A 
ATOM     13  C   UNL     1       4.903   4.478  15.370  0.00  0.00    +0.000 A 
ATOM     14  C   UNL     1       5.910   5.400  15.628  0.00  0.00    +0.000 A 
ATOM     15  C   UNL     1       6.398   5.597  16.929  0.00  0.00    +0.000 A 
ATOM     16  C   UNL     1       7.413   6.542  17.153  0.00  0.00    +0.000 A 
ATOM     17  C   UNL     1       7.917   6.773  18.431  0.00  0.00    +0.000 A 
ATOM     18  C   UNL     1       7.402   6.063  19.512  0.00  0.00    +0.000 A 
ATOM     19  C   UNL     1       6.392   5.126  19.304  0.00  0.00    +0.000 A 
ATOM     20  C   UNL     1       5.867   4.852  18.014  0.00  0.00    +0.000 A 
ENDBRANCH   9  11
ENDBRANCH   7   9
BRANCH   1  21
ATOM     21  C   UNL     1       2.630   6.723  17.879  0.00  0.00    +0.000 C 
BRANCH  21  22
ATOM     22  C   UNL     1       2.891   8.227  17.921  0.00  0.00    +0.000 C 
BRANCH  22  24
ATOM     23  C   UNL     1       1.291  10.038  18.585  0.00  0.00    +0.000 C 
ATOM     24  C   UNL     1       1.624   9.025  17.775  0.00  0.00    +0.000 C 
ENDBRANCH  22  24
ENDBRANCH  21  22
ENDBRANCH   1  21
TORSDOF 5
ENDMDL
MODEL 2
REMARK VINA RESULT:      -8.1      0.933      2.328
REMARK  Name = 
REMARK  5 active torsions:
REMARK  status: ('A' for Active; 'I' for Inactive)
REMARK    1  A    between atoms: C_2  and  C_3
REMARK    2  A    between atoms: C_3  and  C_4
REMARK    3  A    between atoms: C_4  and  C_5
REMARK    4  A    between atoms: C_11  and  C_12
REMARK    5  A    between atoms: C_12  and  C_14
REMARK                            x       y       z     vdW  Elec       q    Type
REMARK                         _______ _______ _______ _____ _____    ______ ____
ROOT
ATOM      1  C   UNL     1       2.254   5.979  19.584  0.00  0.00    +0.000 C 
ATOM      2  O   UNL     1       1.886   6.204  20.737  0.00  0.00    +0.000 OA
ATOM      3  N   UNL     1       1.943   4.792  18.924  0.00  0.00    +0.000 N 
ATOM      4  C   UNL     1       1.080   3.820  19.585  0.00  0.00    +0.000 C 
ATOM      5  C   UNL     1       1.820   2.523  19.890  0.00  0.00    +0.000 C 
ATOM      6  C   UNL     1       2.514   1.978  18.645  0.00  0.00    +0.000 C 
ATOM      7  C   UNL     1       3.406   3.026  17.964  0.00  0.00    +0.000 C 
ATOM      8  C   UNL     1       2.621   4.321  17.715  0.00  0.00    +0.000 C 
ENDROOT
BRANCH   7   9
ATOM      9  C   UNL     1       4.679   3.301  18.775  0.00  0.00    +0.000 C 
ATOM     10  O   UNL     1       4.939   2.692  19.807  0.00  0.00    +0.000 OA
BRANCH   9  11
ATOM     11  C   UNL     1       5.636   4.335  18.264  0.00  0.00    +0.000 A 
ATOM     12  C   UNL     1       6.183   5.241  19.190  0.00  0.00    +0.000 A 
ATOM     13  C   UNL     1       7.064   6.229  18.785  0.00  0.00    +0.000 A 
ATOM     14  C   UNL     1       7.410   6.327  17.443  0.00  0.00    +0.000 A 
ATOM     15  C   UNL     1       6.884   5.440  16.491  0.00  0.00    +0.000 A 
ATOM     16  C   UNL     1       7.261   5.566  15.143  0.00  0.00    +0.000 A 
ATOM     17  C   UNL     1       6.768   4.699  14.171  0.00  0.00    +0.000 A 
ATOM     18  C   UNL     1       5.892   3.681  14.537  0.00  0.00    +0.000 A 
ATOM     19  C   UNL     1       5.514   3.543  15.870  0.00  0.00    +0.000 A 
ATOM     20  C   UNL     1       5.982   4.418  16.885  0.00  0.00    +0.000 A 
ENDBRANCH   9  11
ENDBRANCH   7   9
BRANCH   1  21
ATOM     21  C   UNL     1       2.990   7.035  18.769  0.00  0.00    +0.000 C 
BRANCH  21  22
ATOM     22  C   UNL     1       2.044   7.785  17.834  0.00  0.00    +0.000 C 
BRANCH  22  24
ATOM     23  C   UNL     1       0.657   9.833  18.232  0.00  0.00    +0.000 C 
ATOM     24  C   UNL     1       1.845   9.214  18.259  0.00  0.00    +0.000 C 
ENDBRANCH  22  24
ENDBRANCH  21  22
ENDBRANCH   1  21
TORSDOF 5
ENDMDL
MODEL 3
REMARK VINA RESULT:      -7.8      1.009      1.279
REMARK  Name = 
REMARK  5 active torsions:
REMARK  status: ('A' for Active; 'I' for Inactive)
REMARK    1  A    between atoms: C_2  and  C_3
REMARK    2  A    between atoms: C_3  and  C_4
REMARK    3  A    between atoms: C_4  and  C_5
REMARK    4  A    between atoms: C_11  and  C_12
REMARK    5  A    between atoms: C_12  and  C_14
REMARK                            x       y       z     vdW  Elec       q    Type
REMARK                         _______ _______ _______ _____ _____    ______ ____
ROOT
ATOM      1  C   UNL     1       2.228   5.313  20.253  0.00  0.00    +0.000 C 
ATOM      2  O   UNL     1       2.291   5.108  21.465  0.00  0.00    +0.000 OA
ATOM      3  N   UNL     1       1.597   4.427  19.381  0.00  0.00    +0.000 N 
ATOM      4  C   UNL     1       0.912   3.262  19.931  0.00  0.00    +0.000 C 
ATOM      5  C   UNL     1       1.578   1.961  19.500  0.00  0.00    +0.000 C 
ATOM      6  C   UNL     1       1.757   1.907  17.986  0.00  0.00    +0.000 C 
ATOM      7  C   UNL     1       2.469   3.151  17.435  0.00  0.00    +0.000 C 
ATOM      8  C   UNL     1       1.781   4.429  17.929  0.00  0.00    +0.000 C 
ENDROOT
BRANCH   7   9
ATOM      9  C   UNL     1       3.962   3.155  17.793  0.00  0.00    +0.000 C 
ATOM     10  O   UNL     1       4.417   2.467  18.700  0.00  0.00    +0.000 OA
BRANCH   9  11
ATOM     11  C   UNL     1       4.883   4.019  16.985  0.00  0.00    +0.000 A 
ATOM     12  C   UNL     1       4.756   3.990  15.586  0.00  0.00    +0.000 A 
ATOM     13  C   UNL     1       5.582   4.754  14.779  0.00  0.00    +0.000 A 
ATOM     14  C   UNL     1       6.552   5.559  15.362  0.00  0.00    +0.000 A 
ATOM     15  C   UNL     1       6.708   5.613  16.757  0.00  0.00    +0.000 A 
ATOM     16  C   UNL     1       7.696   6.443  17.312  0.00  0.00    +0.000 A 
ATOM     17  C   UNL     1       7.875   6.531  18.691  0.00  0.00    +0.000 A 
ATOM     18  C   UNL     1       7.056   5.793  19.539  0.00  0.00    +0.000 A 
ATOM     19  C   UNL     1       6.069   4.969  19.002  0.00  0.00    +0.000 A 
ATOM     20  C   UNL     1       5.870   4.841  17.602  0.00  0.00    +0.000 A 
ENDBRANCH   9  11
ENDBRANCH   7   9
BRANCH   1  21
ATOM     21  C   UNL     1       2.750   6.607  19.641  0.00  0.00    +0.000 C 
BRANCH  21  22
ATOM     22  C   UNL     1       1.874   7.800  20.015  0.00  0.00    +0.000 C 
BRANCH  22  24
ATOM     23  C   UNL     1       2.254   8.577  17.664  0.00  0.00    +0.000 C 
ATOM     24  C   UNL     1       1.755   8.790  18.889  0.00  0.00    +0.000 C 
ENDBRANCH  22  24
ENDBRANCH  21  22
ENDBRANCH   1  21
TORSDOF 5
ENDMDL
MODEL 4
REMARK VINA RESULT:      -7.5      1.557      3.966
REMARK  Name = 
REMARK  5 active torsions:
REMARK  status: ('A' for Active; 'I' for Inactive)
REMARK    1  A    between atoms: C_2  and  C_3
REMARK    2  A    between atoms: C_3  and  C_4
REMARK    3  A    between atoms: C_4  and  C_5
REMARK    4  A    between atoms: C_11  and  C_12
REMARK    5  A    between atoms: C_12  and  C_14
REMARK                            x       y       z     vdW  Elec       q    Type
REMARK                         _______ _______ _______ _____ _____    ______ ____
ROOT
ATOM      1  C   UNL     1       4.740   3.589  19.931  0.00  0.00    +0.000 C 
ATOM      2  O   UNL     1       5.299   2.530  19.647  0.00  0.00    +0.000 OA
ATOM      3  N   UNL     1       3.481   3.628  20.528  0.00  0.00    +0.000 N 
ATOM      4  C   UNL     1       2.841   2.373  20.910  0.00  0.00    +0.000 C 
ATOM      5  C   UNL     1       1.572   2.120  20.106  0.00  0.00    +0.000 C 
ATOM      6  C   UNL     1       0.636   3.325  20.157  0.00  0.00    +0.000 C 
ATOM      7  C   UNL     1       1.339   4.631  19.762  0.00  0.00    +0.000 C 
ATOM      8  C   UNL     1       2.628   4.816  20.575  0.00  0.00    +0.000 C 
ENDROOT
BRANCH   7   9
ATOM      9  C   UNL     1       1.626   4.688  18.255  0.00  0.00    +0.000 C 
ATOM     10  O   UNL     1       1.058   3.952  17.455  0.00  0.00    +0.000 OA
BRANCH   9  11
ATOM     11  C   UNL     1       2.619   5.695  17.759  0.00  0.00    +0.000 A 
ATOM     12  C   UNL     1       2.416   7.044  18.098  0.00  0.00    +0.000 A 
ATOM     13  C   UNL     1       3.289   8.027  17.663  0.00  0.00    +0.000 A 
ATOM     14  C   UNL     1       4.379   7.674  16.879  0.00  0.00    +0.000 A 
ATOM     15  C   UNL     1       4.613   6.337  16.520  0.00  0.00    +0.000 A 
ATOM     16  C   UNL     1       5.730   6.016  15.730  0.00  0.00    +0.000 A 
ATOM     17  C   UNL     1       6.001   4.701  15.361  0.00  0.00    +0.000 A 
ATOM     18  C   UNL     1       5.159   3.679  15.790  0.00  0.00    +0.000 A 
ATOM     19  C   UNL     1       4.051   3.982  16.579  0.00  0.00    +0.000 A 
ATOM     20  C   UNL     1       3.734   5.313  16.958  0.00  0.00    +0.000 A 
ENDBRANCH   9  11
ENDBRANCH   7   9
BRANCH   1  21
ATOM     21  C   UNL     1       5.439   4.930  19.739  0.00  0.00    +0.000 C 
BRANCH  21  22
ATOM     22  C   UNL     1       6.751   4.774  18.974  0.00  0.00    +0.000 C 
BRANCH  22  24
ATOM     23  C   UNL     1       7.948   6.902  18.408  0.00  0.00    +0.000 C 
ATOM     24  C   UNL     1       7.709   5.898  19.262  0.00  0.00    +0.000 C 
ENDBRANCH  22  24
ENDBRANCH  21  22
ENDBRANCH   1  21
TORSDOF 5
ENDMDL
MODEL 5
REMARK VINA RESULT:      -7.4      1.524      2.729
REMARK  Name = 
REMARK  5 active torsions:
REMARK  status: ('A' for Active; 'I' for Inactive)
REMARK    1  A    between atoms: C_2  and  C_3
REMARK    2  A    between atoms: C_3  and  C_4
REMARK    3  A    between atoms: C_4  and  C_5
REMARK    4  A    between atoms: C_11  and  C_12
REMARK    5  A    between atoms: C_12  and  C_14
REMARK                            x       y       z     vdW  Elec       q    Type
REMARK                         _______ _______ _______ _____ _____    ______ ____
ROOT
ATOM      1  C   UNL     1       2.173   5.329  20.333  0.00  0.00    +0.000 C 
ATOM      2  O   UNL     1       1.951   5.015  21.502  0.00  0.00    +0.000 OA
ATOM      3  N   UNL     1       1.764   4.539  19.260  0.00  0.00    +0.000 N 
ATOM      4  C   UNL     1       0.969   3.344  19.525  0.00  0.00    +0.000 C 
ATOM      5  C   UNL     1       1.717   2.073  19.143  0.00  0.00    +0.000 C 
ATOM      6  C   UNL     1       2.246   2.152  17.714  0.00  0.00    +0.000 C 
ATOM      7  C   UNL     1       3.068   3.424  17.461  0.00  0.00    +0.000 C 
ATOM      8  C   UNL     1       2.282   4.667  17.897  0.00  0.00    +0.000 C 
ENDROOT
BRANCH   7   9
ATOM      9  C   UNL     1       4.435   3.364  18.156  0.00  0.00    +0.000 C 
ATOM     10  O   UNL     1       4.699   2.516  19.002  0.00  0.00    +0.000 OA
BRANCH   9  11
ATOM     11  C   UNL     1       5.476   4.368  17.763  0.00  0.00    +0.000 A 
ATOM     12  C   UNL     1       5.958   5.240  18.755  0.00  0.00    +0.000 A 
ATOM     13  C   UNL     1       6.911   6.199  18.457  0.00  0.00    +0.000 A 
ATOM     14  C   UNL     1       7.396   6.301  17.159  0.00  0.00    +0.000 A 
ATOM     15  C   UNL     1       6.937   5.447  16.144  0.00  0.00    +0.000 A 
ATOM     16  C   UNL     1       7.454   5.575  14.844  0.00  0.00    +0.000 A 
ATOM     17  C   UNL     1       7.031   4.741  13.812  0.00  0.00    +0.000 A 
ATOM     18  C   UNL     1       6.086   3.753  14.070  0.00  0.00    +0.000 A 
ATOM     19  C   UNL     1       5.569   3.611  15.356  0.00  0.00    +0.000 A 
ATOM     20  C   UNL     1       5.963   4.455  16.428  0.00  0.00    +0.000 A 
ENDBRANCH   9  11
ENDBRANCH   7   9
BRANCH   1  21
ATOM     21  C   UNL     1       2.825   6.661  19.981  0.00  0.00    +0.000 C 
BRANCH  21  22
ATOM     22  C   UNL     1       1.792   7.781  19.874  0.00  0.00    +0.000 C 
BRANCH  22  24
ATOM     23  C   UNL     1       0.657   9.416  21.396  0.00  0.00    +0.000 C 
ATOM     24  C   UNL     1       1.385   8.305  21.224  0.00  0.00    +0.000 C 
ENDBRANCH  22  24
ENDBRANCH  21  22
ENDBRANCH   1  21
TORSDOF 5
ENDMDL
MODEL 6
REMARK VINA RESULT:      -7.1      2.030      5.654
REMARK  Name = 
REMARK  5 active torsions:
REMARK  status: ('A' for Active; 'I' for Inactive)
REMARK    1  A    between atoms: C_2  and  C_3
REMARK    2  A    between atoms: C_3  and  C_4
REMARK    3  A    between atoms: C_4  and  C_5
REMARK    4  A    between atoms: C_11  and  C_12
REMARK    5  A    between atoms: C_12  and  C_14
REMARK                            x       y       z     vdW  Elec       q    Type
REMARK                         _______ _______ _______ _____ _____    ______ ____
ROOT
ATOM      1  C   UNL     1       5.147   4.800  17.062  0.00  0.00    +0.000 C 
ATOM      2  O   UNL     1       5.010   3.910  16.223  0.00  0.00    +0.000 OA
ATOM      3  N   UNL     1       4.843   4.604  18.408  0.00  0.00    +0.000 N 
ATOM      4  C   UNL     1       4.433   3.277  18.855  0.00  0.00    +0.000 C 
ATOM      5  C   UNL     1       2.992   3.269  19.351  0.00  0.00    +0.000 C 
ATOM      6  C   UNL     1       2.761   4.362  20.390  0.00  0.00    +0.000 C 
ATOM      7  C   UNL     1       3.212   5.745  19.898  0.00  0.00    +0.000 C 
ATOM      8  C   UNL     1       4.653   5.686  19.376  0.00  0.00    +0.000 C 
ENDROOT
BRANCH   7   9
ATOM      9  C   UNL     1       2.262   6.305  18.830  0.00  0.00    +0.000 C 
ATOM     10  O   UNL     1       1.712   5.585  18.004  0.00  0.00    +0.000 OA
BRANCH   9  11
ATOM     11  C   UNL     1       1.992   7.779  18.824  0.00  0.00    +0.000 A 
ATOM     12  C   UNL     1       2.367   8.513  17.684  0.00  0.00    +0.000 A 
ATOM     13  C   UNL     1       2.157   9.880  17.617  0.00  0.00    +0.000 A 
ATOM     14  C   UNL     1       1.570  10.535  18.692  0.00  0.00    +0.000 A 
ATOM     15  C   UNL     1       1.183   9.835  19.845  0.00  0.00    +0.000 A 
ATOM     16  C   UNL     1       0.587  10.530  20.911  0.00  0.00    +0.000 A 
ATOM     17  C   UNL     1       0.182   9.869  22.068  0.00  0.00    +0.000 A 
ATOM     18  C   UNL     1       0.358   8.493  22.172  0.00  0.00    +0.000 A 
ATOM     19  C   UNL     1       0.944   7.791  21.121  0.00  0.00    +0.000 A 
ATOM     20  C   UNL     1       1.386   8.433  19.934  0.00  0.00    +0.000 A 
ENDBRANCH   9  11
ENDBRANCH   7   9
BRANCH   1  21
ATOM     21  C   UNL     1       5.757   6.147  16.696  0.00  0.00    +0.000 C 
BRANCH  21  22
ATOM     22  C   UNL     1       7.271   6.153  16.898  0.00  0.00    +0.000 C 
BRANCH  22  24
ATOM     23  C   UNL     1       8.018   8.392  17.736  0.00  0.00    +0.000 C 
ATOM     24  C   UNL     1       7.693   7.114  17.974  0.00  0.00    +0.000 C 
ENDBRANCH  22  24
ENDBRANCH  21  22
ENDBRANCH   1  21
TORSDOF 5
ENDMDL
MODEL 7
REMARK VINA RESULT:      -7.0      1.818      2.314
REMARK  Name = 
REMARK  5 active torsions:
REMARK  status: ('A' for Active; 'I' for Inactive)
REMARK    1  A    between atoms: C_2  and  C_3
REMARK    2  A    between atoms: C_3  and  C_4
REMARK    3  A    between atoms: C_4  and  C_5
REMARK    4  A    between atoms: C_11  and  C_12
REMARK    5  A    between atoms: C_12  and  C_14
REMARK                            x       y       z     vdW  Elec       q    Type
REMARK                         _______ _______ _______ _____ _____    ______ ____
ROOT
ATOM      1  C   UNL     1       1.888   4.585  20.823  0.00  0.00    +0.000 C 
ATOM      2  O   UNL     1       2.632   4.462  21.796  0.00  0.00    +0.000 OA
ATOM      3  N   UNL     1       1.776   3.599  19.845  0.00  0.00    +0.000 N 
ATOM      4  C   UNL     1       2.496   2.342  20.022  0.00  0.00    +0.000 C 
ATOM      5  C   UNL     1       3.570   2.153  18.957  0.00  0.00    +0.000 C 
ATOM      6  C   UNL     1       2.996   2.337  17.555  0.00  0.00    +0.000 C 
ATOM      7  C   UNL     1       2.235   3.661  17.402  0.00  0.00    +0.000 C 
ATOM      8  C   UNL     1       1.194   3.816  18.519  0.00  0.00    +0.000 C 
ENDROOT
BRANCH   7   9
ATOM      9  C   UNL     1       3.188   4.863  17.367  0.00  0.00    +0.000 C 
ATOM     10  O   UNL     1       2.858   5.969  17.781  0.00  0.00    +0.000 OA
BRANCH   9  11
ATOM     11  C   UNL     1       4.570   4.658  16.825  0.00  0.00    +0.000 A 
ATOM     12  C   UNL     1       4.699   4.248  15.486  0.00  0.00    +0.000 A 
ATOM     13  C   UNL     1       5.946   4.028  14.925  0.00  0.00    +0.000 A 
ATOM     14  C   UNL     1       7.085   4.214  15.698  0.00  0.00    +0.000 A 
ATOM     15  C   UNL     1       6.994   4.622  17.038  0.00  0.00    +0.000 A 
ATOM     16  C   UNL     1       8.168   4.806  17.788  0.00  0.00    +0.000 A 
ATOM     17  C   UNL     1       8.120   5.219  19.117  0.00  0.00    +0.000 A 
ATOM     18  C   UNL     1       6.888   5.467  19.716  0.00  0.00    +0.000 A 
ATOM     19  C   UNL     1       5.717   5.294  18.982  0.00  0.00    +0.000 A 
ATOM     20  C   UNL     1       5.727   4.856  17.632  0.00  0.00    +0.000 A 
ENDBRANCH   9  11
ENDBRANCH   7   9
BRANCH   1  21
ATOM     21  C   UNL     1       0.961   5.786  20.681  0.00  0.00    +0.000 C 
BRANCH  21  22
ATOM     22  C   UNL     1       1.718   7.102  20.846  0.00  0.00    +0.000 C 
BRANCH  22  24
ATOM     23  C   UNL     1      -0.167   8.521  21.689  0.00  0.00    +0.000 C 
ATOM     24  C   UNL     1       0.800   8.292  20.791  0.00  0.00    +0.000 C 
ENDBRANCH  22  24
ENDBRANCH  21  22
ENDBRANCH   1  21
TORSDOF 5
ENDMDL
MODEL 8
REMARK VINA RESULT:      -7.0      2.013      5.947
REMARK  Name = 
REMARK  5 active torsions:
REMARK  status: ('A' for Active; 'I' for Inactive)
REMARK    1  A    between atoms: C_2  and  C_3
REMARK    2  A    between atoms: C_3  and  C_4
REMARK    3  A    between atoms: C_4  and  C_5
REMARK    4  A    between atoms: C_11  and  C_12
REMARK    5  A    between atoms: C_12  and  C_14
REMARK                            x       y       z     vdW  Elec       q    Type
REMARK                         _______ _______ _______ _____ _____    ______ ____
ROOT
ATOM      1  C   UNL     1       4.529   4.003  17.475  0.00  0.00    +0.000 C 
ATOM      2  O   UNL     1       4.126   3.016  16.859  0.00  0.00    +0.000 OA
ATOM      3  N   UNL     1       4.306   4.169  18.840  0.00  0.00    +0.000 N 
ATOM      4  C   UNL     1       3.649   3.100  19.584  0.00  0.00    +0.000 C 
ATOM      5  C   UNL     1       2.291   3.536  20.120  0.00  0.00    +0.000 C 
ATOM      6  C   UNL     1       2.399   4.845  20.897  0.00  0.00    +0.000 C 
ATOM      7  C   UNL     1       3.103   5.948  20.094  0.00  0.00    +0.000 C 
ATOM      8  C   UNL     1       4.445   5.443  19.548  0.00  0.00    +0.000 C 
ENDROOT
BRANCH   7   9
ATOM      9  C   UNL     1       2.215   6.482  18.962  0.00  0.00    +0.000 C 
ATOM     10  O   UNL     1       1.740   5.747  18.103  0.00  0.00    +0.000 OA
BRANCH   9  11
ATOM     11  C   UNL     1       1.910   7.949  18.931  0.00  0.00    +0.000 A 
ATOM     12  C   UNL     1       2.374   8.695  17.834  0.00  0.00    +0.000 A 
ATOM     13  C   UNL     1       2.138  10.057  17.748  0.00  0.00    +0.000 A 
ATOM     14  C   UNL     1       1.434  10.694  18.762  0.00  0.00    +0.000 A 
ATOM     15  C   UNL     1       0.956   9.980  19.872  0.00  0.00    +0.000 A 
ATOM     16  C   UNL     1       0.242  10.657  20.876  0.00  0.00    +0.000 A 
ATOM     17  C   UNL     1      -0.256   9.982  21.988  0.00  0.00    +0.000 A 
ATOM     18  C   UNL     1      -0.056   8.610  22.107  0.00  0.00    +0.000 A 
ATOM     19  C   UNL     1       0.645   7.927  21.116  0.00  0.00    +0.000 A 
ATOM     20  C   UNL     1       1.183   8.584  19.979  0.00  0.00    +0.000 A 
ENDBRANCH   9  11
ENDBRANCH   7   9
BRANCH   1  21
ATOM     21  C   UNL     1       5.391   5.061  16.796  0.00  0.00    +0.000 C 
BRANCH  21  22
ATOM     22  C   UNL     1       6.763   4.509  16.416  0.00  0.00    +0.000 C 
BRANCH  22  24
ATOM     23  C   UNL     1       6.109   4.136  14.027  0.00  0.00    +0.000 C 
ATOM     24  C   UNL     1       7.001   4.560  14.932  0.00  0.00    +0.000 C 
ENDBRANCH  22  24
ENDBRANCH  21  22
ENDBRANCH   1  21
TORSDOF 5
ENDMDL
MODEL 9
REMARK VINA RESULT:      -6.9      1.907      5.463
REMARK  Name = 
REMARK  5 active torsions:
REMARK  status: ('A' for Active; 'I' for Inactive)
REMARK    1  A    between atoms: C_2  and  C_3
REMARK    2  A    between atoms: C_3  and  C_4
REMARK    3  A    between atoms: C_4  and  C_5
REMARK    4  A    between atoms: C_11  and  C_12
REMARK    5  A    between atoms: C_12  and  C_14
REMARK                            x       y       z     vdW  Elec       q    Type
REMARK                         _______ _______ _______ _____ _____    ______ ____
ROOT
ATOM      1  C   UNL     1       4.251   3.284  17.944  0.00  0.00    +0.000 C 
ATOM      2  O   UNL     1       3.734   2.302  17.411  0.00  0.00    +0.000 OA
ATOM      3  N   UNL     1       3.979   3.644  19.262  0.00  0.00    +0.000 N 
ATOM      4  C   UNL     1       3.122   2.780  20.068  0.00  0.00    +0.000 C 
ATOM      5  C   UNL     1       1.820   3.475  20.449  0.00  0.00    +0.000 C 
ATOM      6  C   UNL     1       2.087   4.837  21.085  0.00  0.00    +0.000 C 
ATOM      7  C   UNL     1       3.000   5.719  20.221  0.00  0.00    +0.000 C 
ATOM      8  C   UNL     1       4.275   4.958  19.836  0.00  0.00    +0.000 C 
ENDROOT
BRANCH   7   9
ATOM      9  C   UNL     1       2.272   6.240  18.974  0.00  0.00    +0.000 C 
ATOM     10  O   UNL     1       1.903   5.493  18.074  0.00  0.00    +0.000 OA
BRANCH   9  11
ATOM     11  C   UNL     1       1.992   7.709  18.878  0.00  0.00    +0.000 A 
ATOM     12  C   UNL     1       2.470   8.398  17.750  0.00  0.00    +0.000 A 
ATOM     13  C   UNL     1       2.257   9.759  17.603  0.00  0.00    +0.000 A 
ATOM     14  C   UNL     1       1.563  10.451  18.586  0.00  0.00    +0.000 A 
ATOM     15  C   UNL     1       1.071   9.795  19.726  0.00  0.00    +0.000 A 
ATOM     16  C   UNL     1       0.367  10.527  20.698  0.00  0.00    +0.000 A 
ATOM     17  C   UNL     1      -0.143   9.911  21.838  0.00  0.00    +0.000 A 
ATOM     18  C   UNL     1       0.033   8.543  22.017  0.00  0.00    +0.000 A 
ATOM     19  C   UNL     1       0.724   7.804  21.059  0.00  0.00    +0.000 A 
ATOM     20  C   UNL     1       1.275   8.402  19.895  0.00  0.00    +0.000 A 
ENDBRANCH   9  11
ENDBRANCH   7   9
BRANCH   1  21
ATOM     21  C   UNL     1       5.305   4.114  17.221  0.00  0.00    +0.000 C 
BRANCH  21  22
ATOM     22  C   UNL     1       4.694   4.935  16.088  0.00  0.00    +0.000 C 
BRANCH  22  24
ATOM     23  C   UNL     1       5.825   6.899  17.158  0.00  0.00    +0.000 C 
ATOM     24  C   UNL     1       5.105   6.381  16.153  0.00  0.00    +0.000 C 
ENDBRANCH  22  24
ENDBRANCH  21  22
ENDBRANCH   1  21
TORSDOF 5
ENDMDL
