MODEL 1
REMARK VINA RESULT:      -8.2      0.000      0.000
REMARK  Name = 
REMARK  2 active torsions:
REMARK  status: ('A' for Active; 'I' for Inactive)
REMARK    1  A    between atoms: N_1  and  C_2
REMARK    2  A    between atoms: N_17  and  C_18
REMARK                            x       y       z     vdW  Elec       q    Type
REMARK                         _______ _______ _______ _____ _____    ______ ____
ROOT
ATOM      1  C   UNL     1       1.093  11.562  19.358  0.00  0.00    +0.000 A 
ATOM      2  C   UNL     1       1.114  12.960  19.329  0.00  0.00    +0.000 A 
ATOM      3  C   UNL     1       0.812  13.756  20.451  0.00  0.00    +0.000 A 
ATOM      4  C   UNL     1       0.246  13.116  21.569  0.00  0.00    +0.000 A 
ATOM      5  N   UNL     1      -0.147  13.837  22.634  0.00  0.00    +0.000 NA
ATOM      6  C   UNL     1       0.005  15.170  22.691  0.00  0.00    +0.000 A 
ATOM      7  C   UNL     1      -0.459  15.894  23.820  0.00  0.00    +0.000 A 
ATOM      8  C   UNL     1      -1.043  15.262  24.943  0.00  0.00    +0.000 A 
ATOM      9  C   UNL     1      -1.523  15.992  26.041  0.00  0.00    +0.000 A 
ATOM     10  C   UNL     1      -1.444  17.370  26.042  0.00  0.00    +0.000 A 
ATOM     11  C   UNL     1      -0.864  18.031  24.957  0.00  0.00    +0.000 A 
ATOM     12  C   UNL     1      -0.355  17.301  23.866  0.00  0.00    +0.000 A 
ATOM     13  C   UNL     1       0.274  17.968  22.824  0.00  0.00    +0.000 A 
ATOM     14  C   UNL     1       0.808  17.248  21.756  0.00  0.00    +0.000 A 
ATOM     15  C   UNL     1       0.627  15.853  21.619  0.00  0.00    +0.000 A 
ATOM     16  N   UNL     1       1.029  15.124  20.502  0.00  0.00    +0.000 N 
ATOM     17  C   UNL     1       0.080  11.710  21.562  0.00  0.00    +0.000 A 
ATOM     18  C   UNL     1      -0.609  11.051  22.605  0.00  0.00    +0.000 A 
ATOM     19  C   UNL     1      -0.777   9.665  22.618  0.00  0.00    +0.000 A 
ATOM     20  C   UNL     1      -0.176   8.892  21.640  0.00  0.00    +0.000 A 
ATOM     21  C   UNL     1       0.528   9.510  20.609  0.00  0.00    +0.000 A 
ATOM     22  C   UNL     1       0.595  10.919  20.503  0.00  0.00    +0.000 A 
ENDROOT
BRANCH  16  23
ATOM     23  C   UNL     1       1.615  15.837  19.351  0.00  0.00    +0.000 A 
ATOM     24  C   UNL     1       3.005  15.691  19.177  0.00  0.00    +0.000 A 
ATOM     25  C   UNL     1       3.635  16.265  18.081  0.00  0.00    +0.000 A 
ATOM     26  C   UNL     1       2.912  17.093  17.233  0.00  0.00    +0.000 A 
ATOM     27  C   UNL     1       1.551  17.349  17.448  0.00  0.00    +0.000 A 
ATOM     28  C   UNL     1       0.910  18.301  16.640  0.00  0.00    +0.000 A 
ATOM     29  C   UNL     1      -0.426  18.631  16.839  0.00  0.00    +0.000 A 
ATOM     30  C   UNL     1      -1.163  17.946  17.793  0.00  0.00    +0.000 A 
ATOM     31  C   UNL     1      -0.558  16.940  18.553  0.00  0.00    +0.000 A 
ATOM     32  C   UNL     1       0.840  16.674  18.477  0.00  0.00    +0.000 A 
ENDBRANCH  16  23
BRANCH   1  33
ATOM     33  N   UNL     1       1.766  10.884  18.333  0.00  0.00    +0.000 N 
ATOM     34  H   UNL     1       2.042   9.924  18.513  0.00  0.00    +0.000 HD
ATOM     35  H   UNL     1       2.507  11.399  17.867  0.00  0.00    +0.000 HD
ENDBRANCH   1  33
TORSDOF 2
ENDMDL
MODEL 2
REMARK VINA RESULT:      -7.4      2.272      6.980
REMARK  Name = 
REMARK  2 active torsions:
REMARK  status: ('A' for Active; 'I' for Inactive)
REMARK    1  A    between atoms: N_1  and  C_2
REMARK    2  A    between atoms: N_17  and  C_18
REMARK                            x       y       z     vdW  Elec       q    Type
REMARK                         _______ _______ _______ _____ _____    ______ ____
ROOT
ATOM      1  C   UNL     1       0.491  17.089  20.244  0.00  0.00    +0.000 A 
ATOM      2  C   UNL     1      -0.352  16.326  21.057  0.00  0.00    +0.000 A 
ATOM      3  C   UNL     1      -0.192  14.939  21.244  0.00  0.00    +0.000 A 
ATOM      4  C   UNL     1       0.709  14.269  20.395  0.00  0.00    +0.000 A 
ATOM      5  N   UNL     1       0.837  12.932  20.465  0.00  0.00    +0.000 NA
ATOM      6  C   UNL     1       0.146  12.193  21.348  0.00  0.00    +0.000 A 
ATOM      7  C   UNL     1       0.285  10.780  21.360  0.00  0.00    +0.000 A 
ATOM      8  C   UNL     1       1.178  10.095  20.501  0.00  0.00    +0.000 A 
ATOM      9  C   UNL     1       1.285   8.697  20.504  0.00  0.00    +0.000 A 
ATOM     10  C   UNL     1       0.498   7.944  21.353  0.00  0.00    +0.000 A 
ATOM     11  C   UNL     1      -0.387   8.584  22.224  0.00  0.00    +0.000 A 
ATOM     12  C   UNL     1      -0.477   9.989  22.245  0.00  0.00    +0.000 A 
ATOM     13  C   UNL     1      -1.317  10.611  23.159  0.00  0.00    +0.000 A 
ATOM     14  C   UNL     1      -1.387  12.003  23.206  0.00  0.00    +0.000 A 
ATOM     15  C   UNL     1      -0.726  12.826  22.265  0.00  0.00    +0.000 A 
ATOM     16  N   UNL     1      -0.880  14.208  22.199  0.00  0.00    +0.000 N 
ATOM     17  C   UNL     1       1.471  15.008  19.459  0.00  0.00    +0.000 A 
ATOM     18  C   UNL     1       2.281  14.358  18.501  0.00  0.00    +0.000 A 
ATOM     19  C   UNL     1       3.044  15.070  17.574  0.00  0.00    +0.000 A 
ATOM     20  C   UNL     1       3.095  16.451  17.644  0.00  0.00    +0.000 A 
ATOM     21  C   UNL     1       2.325  17.122  18.591  0.00  0.00    +0.000 A 
ATOM     22  C   UNL     1       1.442  16.426  19.449  0.00  0.00    +0.000 A 
ENDROOT
BRANCH  16  23
ATOM     23  C   UNL     1      -1.839  14.869  23.106  0.00  0.00    +0.000 A 
ATOM     24  C   UNL     1      -1.312  15.345  24.322  0.00  0.00    +0.000 A 
ATOM     25  C   UNL     1      -2.121  16.044  25.206  0.00  0.00    +0.000 A 
ATOM     26  C   UNL     1      -3.481  16.155  24.949  0.00  0.00    +0.000 A 
ATOM     27  C   UNL     1      -4.054  15.590  23.801  0.00  0.00    +0.000 A 
ATOM     28  C   UNL     1      -5.451  15.615  23.666  0.00  0.00    +0.000 A 
ATOM     29  C   UNL     1      -6.078  15.027  22.573  0.00  0.00    +0.000 A 
ATOM     30  C   UNL     1      -5.309  14.485  21.555  0.00  0.00    +0.000 A 
ATOM     31  C   UNL     1      -3.914  14.523  21.639  0.00  0.00    +0.000 A 
ATOM     32  C   UNL     1      -3.239  14.985  22.806  0.00  0.00    +0.000 A 
ENDBRANCH  16  23
BRANCH   1  33
ATOM     33  N   UNL     1       0.484  18.477  20.428  0.00  0.00    +0.000 N 
ATOM     34  H   UNL     1       1.229  19.010  19.989  0.00  0.00    +0.000 HD
ATOM     35  H   UNL     1       0.309  18.803  21.375  0.00  0.00    +0.000 HD
ENDBRANCH   1  33
TORSDOF 2
ENDMDL
MODEL 3
REMARK VINA RESULT:      -7.4      4.112      5.529
REMARK  Name = 
REMARK  2 active torsions:
REMARK  status: ('A' for Active; 'I' for Inactive)
REMARK    1  A    between atoms: N_1  and  C_2
REMARK    2  A    between atoms: N_17  and  C_18
REMARK                            x       y       z     vdW  Elec       q    Type
REMARK                         _______ _______ _______ _____ _____    ______ ____
ROOT
ATOM      1  C   UNL     1      -4.453  11.678  17.563  0.00  0.00    +0.000 A 
ATOM      2  C   UNL     1      -3.226  11.805  18.219  0.00  0.00    +0.000 A 
ATOM      3  C   UNL     1      -3.092  12.381  19.497  0.00  0.00    +0.000 A 
ATOM      4  C   UNL     1      -4.208  13.059  20.024  0.00  0.00    +0.000 A 
ATOM      5  N   UNL     1      -4.113  13.707  21.199  0.00  0.00    +0.000 NA
ATOM      6  C   UNL     1      -2.982  13.713  21.923  0.00  0.00    +0.000 A 
ATOM      7  C   UNL     1      -2.918  14.441  23.140  0.00  0.00    +0.000 A 
ATOM      8  C   UNL     1      -4.029  15.139  23.670  0.00  0.00    +0.000 A 
ATOM      9  C   UNL     1      -3.943  15.878  24.860  0.00  0.00    +0.000 A 
ATOM     10  C   UNL     1      -2.746  15.951  25.543  0.00  0.00    +0.000 A 
ATOM     11  C   UNL     1      -1.629  15.267  25.058  0.00  0.00    +0.000 A 
ATOM     12  C   UNL     1      -1.718  14.500  23.881  0.00  0.00    +0.000 A 
ATOM     13  C   UNL     1      -0.616  13.777  23.445  0.00  0.00    +0.000 A 
ATOM     14  C   UNL     1      -0.707  12.991  22.296  0.00  0.00    +0.000 A 
ATOM     15  C   UNL     1      -1.853  12.993  21.468  0.00  0.00    +0.000 A 
ATOM     16  N   UNL     1      -1.928  12.327  20.248  0.00  0.00    +0.000 N 
ATOM     17  C   UNL     1      -5.427  13.067  19.304  0.00  0.00    +0.000 A 
ATOM     18  C   UNL     1      -6.522  13.851  19.732  0.00  0.00    +0.000 A 
ATOM     19  C   UNL     1      -7.734  13.867  19.039  0.00  0.00    +0.000 A 
ATOM     20  C   UNL     1      -7.915  13.025  17.955  0.00  0.00    +0.000 A 
ATOM     21  C   UNL     1      -6.861  12.225  17.520  0.00  0.00    +0.000 A 
ATOM     22  C   UNL     1      -5.585  12.295  18.125  0.00  0.00    +0.000 A 
ENDROOT
BRANCH  16  23
ATOM     23  C   UNL     1      -0.733  11.631  19.732  0.00  0.00    +0.000 A 
ATOM     24  C   UNL     1      -0.668  10.247  19.983  0.00  0.00    +0.000 A 
ATOM     25  C   UNL     1       0.382   9.495  19.475  0.00  0.00    +0.000 A 
ATOM     26  C   UNL     1       1.435  10.135  18.834  0.00  0.00    +0.000 A 
ATOM     27  C   UNL     1       1.452  11.526  18.671  0.00  0.00    +0.000 A 
ATOM     28  C   UNL     1       2.604  12.126  18.141  0.00  0.00    +0.000 A 
ATOM     29  C   UNL     1       2.697  13.507  18.001  0.00  0.00    +0.000 A 
ATOM     30  C   UNL     1       1.601  14.299  18.308  0.00  0.00    +0.000 A 
ATOM     31  C   UNL     1       0.419  13.708  18.764  0.00  0.00    +0.000 A 
ATOM     32  C   UNL     1       0.334  12.315  19.056  0.00  0.00    +0.000 A 
ENDBRANCH  16  23
BRANCH   1  33
ATOM     33  N   UNL     1      -4.528  10.769  16.501  0.00  0.00    +0.000 N 
ATOM     34  H   UNL     1      -4.778  11.137  15.588  0.00  0.00    +0.000 HD
ATOM     35  H   UNL     1      -5.014   9.897  16.691  0.00  0.00    +0.000 HD
ENDBRANCH   1  33
TORSDOF 2
ENDMDL
MODEL 4
REMARK VINA RESULT:      -7.4      6.093      9.901
REMARK  Name = 
REMARK  2 active torsions:
REMARK  status: ('A' for Active; 'I' for Inactive)
REMARK    1  A    between atoms: N_1  and  C_2
REMARK    2  A    between atoms: N_17  and  C_18
REMARK                            x       y       z     vdW  Elec       q    Type
REMARK                         _______ _______ _______ _____ _____    ______ ____
ROOT
ATOM      1  C   UNL     1       3.873  16.048  21.359  0.00  0.00    +0.000 A 
ATOM      2  C   UNL     1       4.915  15.412  22.039  0.00  0.00    +0.000 A 
ATOM      3  C   UNL     1       6.073  14.934  21.396  0.00  0.00    +0.000 A 
ATOM      4  C   UNL     1       6.066  14.893  19.989  0.00  0.00    +0.000 A 
ATOM      5  N   UNL     1       7.106  14.362  19.323  0.00  0.00    +0.000 NA
ATOM      6  C   UNL     1       8.191  13.882  19.953  0.00  0.00    +0.000 A 
ATOM      7  C   UNL     1       9.249  13.297  19.210  0.00  0.00    +0.000 A 
ATOM      8  C   UNL     1       9.244  13.238  17.796  0.00  0.00    +0.000 A 
ATOM      9  C   UNL     1      10.284  12.631  17.075  0.00  0.00    +0.000 A 
ATOM     10  C   UNL     1      11.347  12.058  17.744  0.00  0.00    +0.000 A 
ATOM     11  C   UNL     1      11.393  12.107  19.139  0.00  0.00    +0.000 A 
ATOM     12  C   UNL     1      10.367  12.740  19.866  0.00  0.00    +0.000 A 
ATOM     13  C   UNL     1      10.458  12.833  21.248  0.00  0.00    +0.000 A 
ATOM     14  C   UNL     1       9.460  13.487  21.970  0.00  0.00    +0.000 A 
ATOM     15  C   UNL     1       8.274  13.958  21.363  0.00  0.00    +0.000 A 
ATOM     16  N   UNL     1       7.201  14.493  22.071  0.00  0.00    +0.000 N 
ATOM     17  C   UNL     1       4.952  15.401  19.280  0.00  0.00    +0.000 A 
ATOM     18  C   UNL     1       4.849  15.251  17.878  0.00  0.00    +0.000 A 
ATOM     19  C   UNL     1       3.760  15.752  17.160  0.00  0.00    +0.000 A 
ATOM     20  C   UNL     1       2.795  16.500  17.811  0.00  0.00    +0.000 A 
ATOM     21  C   UNL     1       2.879  16.684  19.190  0.00  0.00    +0.000 A 
ATOM     22  C   UNL     1       3.899  16.072  19.954  0.00  0.00    +0.000 A 
ENDROOT
BRANCH  16  23
ATOM     23  C   UNL     1       7.249  14.514  23.546  0.00  0.00    +0.000 A 
ATOM     24  C   UNL     1       7.845  15.648  24.129  0.00  0.00    +0.000 A 
ATOM     25  C   UNL     1       7.872  15.791  25.509  0.00  0.00    +0.000 A 
ATOM     26  C   UNL     1       7.431  14.748  26.314  0.00  0.00    +0.000 A 
ATOM     27  C   UNL     1       6.939  13.558  25.760  0.00  0.00    +0.000 A 
ATOM     28  C   UNL     1       6.639  12.491  26.620  0.00  0.00    +0.000 A 
ATOM     29  C   UNL     1       6.195  11.270  26.125  0.00  0.00    +0.000 A 
ATOM     30  C   UNL     1       5.958  11.131  24.766  0.00  0.00    +0.000 A 
ATOM     31  C   UNL     1       6.179  12.210  23.905  0.00  0.00    +0.000 A 
ATOM     32  C   UNL     1       6.770  13.427  24.355  0.00  0.00    +0.000 A 
ENDBRANCH  16  23
BRANCH   1  33
ATOM     33  N   UNL     1       2.975  16.809  22.118  0.00  0.00    +0.000 N 
ATOM     34  H   UNL     1       1.995  16.543  22.087  0.00  0.00    +0.000 HD
ATOM     35  H   UNL     1       3.084  17.817  22.062  0.00  0.00    +0.000 HD
ENDBRANCH   1  33
TORSDOF 2
ENDMDL
MODEL 5
REMARK VINA RESULT:      -7.3      6.631     10.329
REMARK  Name = 
REMARK  2 active torsions:
REMARK  status: ('A' for Active; 'I' for Inactive)
REMARK    1  A    between atoms: N_1  and  C_2
REMARK    2  A    between atoms: N_17  and  C_18
REMARK                            x       y       z     vdW  Elec       q    Type
REMARK                         _______ _______ _______ _____ _____    ______ ____
ROOT
ATOM      1  C   UNL     1       4.177  15.291  21.855  0.00  0.00    +0.000 A 
ATOM      2  C   UNL     1       5.201  14.461  22.320  0.00  0.00    +0.000 A 
ATOM      3  C   UNL     1       6.386  14.223  21.597  0.00  0.00    +0.000 A 
ATOM      4  C   UNL     1       6.429  14.655  20.258  0.00  0.00    +0.000 A 
ATOM      5  N   UNL     1       7.497  14.376  19.491  0.00  0.00    +0.000 NA
ATOM      6  C   UNL     1       8.563  13.709  19.964  0.00  0.00    +0.000 A 
ATOM      7  C   UNL     1       9.652  13.404  19.106  0.00  0.00    +0.000 A 
ATOM      8  C   UNL     1       9.698  13.822  17.755  0.00  0.00    +0.000 A 
ATOM      9  C   UNL     1      10.768  13.489  16.911  0.00  0.00    +0.000 A 
ATOM     10  C   UNL     1      11.813  12.722  17.388  0.00  0.00    +0.000 A 
ATOM     11  C   UNL     1      11.809  12.300  18.719  0.00  0.00    +0.000 A 
ATOM     12  C   UNL     1      10.752  12.656  19.578  0.00  0.00    +0.000 A 
ATOM     13  C   UNL     1      10.793  12.281  20.914  0.00  0.00    +0.000 A 
ATOM     14  C   UNL     1       9.764  12.657  21.777  0.00  0.00    +0.000 A 
ATOM     15  C   UNL     1       8.595  13.308  21.320  0.00  0.00    +0.000 A 
ATOM     16  N   UNL     1       7.493  13.578  22.127  0.00  0.00    +0.000 N 
ATOM     17  C   UNL     1       5.335  15.376  19.720  0.00  0.00    +0.000 A 
ATOM     18  C   UNL     1       5.283  15.704  18.346  0.00  0.00    +0.000 A 
ATOM     19  C   UNL     1       4.217  16.419  17.798  0.00  0.00    +0.000 A 
ATOM     20  C   UNL     1       3.222  16.909  18.626  0.00  0.00    +0.000 A 
ATOM     21  C   UNL     1       3.255  16.620  19.989  0.00  0.00    +0.000 A 
ATOM     22  C   UNL     1       4.253  15.784  20.541  0.00  0.00    +0.000 A 
ENDROOT
BRANCH  16  23
ATOM     23  C   UNL     1       7.489  13.103  23.524  0.00  0.00    +0.000 A 
ATOM     24  C   UNL     1       6.800  11.899  23.765  0.00  0.00    +0.000 A 
ATOM     25  C   UNL     1       6.801  11.336  25.033  0.00  0.00    +0.000 A 
ATOM     26  C   UNL     1       7.371  12.034  26.091  0.00  0.00    +0.000 A 
ATOM     27  C   UNL     1       7.963  13.290  25.901  0.00  0.00    +0.000 A 
ATOM     28  C   UNL     1       8.397  14.005  27.027  0.00  0.00    +0.000 A 
ATOM     29  C   UNL     1       8.948  15.276  26.904  0.00  0.00    +0.000 A 
ATOM     30  C   UNL     1       9.154  15.811  25.642  0.00  0.00    +0.000 A 
ATOM     31  C   UNL     1       8.798  15.077  24.507  0.00  0.00    +0.000 A 
ATOM     32  C   UNL     1       8.102  13.837  24.597  0.00  0.00    +0.000 A 
ENDBRANCH  16  23
BRANCH   1  33
ATOM     33  N   UNL     1       3.246  15.756  22.791  0.00  0.00    +0.000 N 
ATOM     34  H   UNL     1       2.845  16.677  22.634  0.00  0.00    +0.000 HD
ATOM     35  H   UNL     1       3.489  15.623  23.769  0.00  0.00    +0.000 HD
ENDBRANCH   1  33
TORSDOF 2
ENDMDL
MODEL 6
REMARK VINA RESULT:      -7.3      1.098      2.162
REMARK  Name = 
REMARK  2 active torsions:
REMARK  status: ('A' for Active; 'I' for Inactive)
REMARK    1  A    between atoms: N_1  and  C_2
REMARK    2  A    between atoms: N_17  and  C_18
REMARK                            x       y       z     vdW  Elec       q    Type
REMARK                         _______ _______ _______ _____ _____    ______ ____
ROOT
ATOM      1  C   UNL     1      -0.493  12.491  19.283  0.00  0.00    +0.000 A 
ATOM      2  C   UNL     1      -0.608  13.880  19.376  0.00  0.00    +0.000 A 
ATOM      3  C   UNL     1      -0.526  14.579  20.595  0.00  0.00    +0.000 A 
ATOM      4  C   UNL     1      -0.561  13.823  21.782  0.00  0.00    +0.000 A 
ATOM      5  N   UNL     1      -0.578  14.439  22.977  0.00  0.00    +0.000 NA
ATOM      6  C   UNL     1      -0.534  15.777  23.092  0.00  0.00    +0.000 A 
ATOM      7  C   UNL     1      -0.592  16.385  24.374  0.00  0.00    +0.000 A 
ATOM      8  C   UNL     1      -0.643  15.633  25.572  0.00  0.00    +0.000 A 
ATOM      9  C   UNL     1      -0.728  16.247  26.831  0.00  0.00    +0.000 A 
ATOM     10  C   UNL     1      -0.777  17.623  26.927  0.00  0.00    +0.000 A 
ATOM     11  C   UNL     1      -0.718  18.400  25.767  0.00  0.00    +0.000 A 
ATOM     12  C   UNL     1      -0.603  17.790  24.504  0.00  0.00    +0.000 A 
ATOM     13  C   UNL     1      -0.483  18.577  23.367  0.00  0.00    +0.000 A 
ATOM     14  C   UNL     1      -0.337  17.978  22.116  0.00  0.00    +0.000 A 
ATOM     15  C   UNL     1      -0.434  16.579  21.932  0.00  0.00    +0.000 A 
ATOM     16  N   UNL     1      -0.427  15.959  20.685  0.00  0.00    +0.000 N 
ATOM     17  C   UNL     1      -0.592  12.410  21.710  0.00  0.00    +0.000 A 
ATOM     18  C   UNL     1      -0.768  11.624  22.872  0.00  0.00    +0.000 A 
ATOM     19  C   UNL     1      -0.795  10.229  22.822  0.00  0.00    +0.000 A 
ATOM     20  C   UNL     1      -0.550   9.580  21.624  0.00  0.00    +0.000 A 
ATOM     21  C   UNL     1      -0.352  10.326  20.464  0.00  0.00    +0.000 A 
ATOM     22  C   UNL     1      -0.455  11.737  20.469  0.00  0.00    +0.000 A 
ENDROOT
BRANCH  16  23
ATOM     23  C   UNL     1      -0.392  16.791  19.467  0.00  0.00    +0.000 A 
ATOM     24  C   UNL     1      -1.614  17.377  19.084  0.00  0.00    +0.000 A 
ATOM     25  C   UNL     1      -1.665  18.234  17.993  0.00  0.00    +0.000 A 
ATOM     26  C   UNL     1      -0.535  18.403  17.203  0.00  0.00    +0.000 A 
ATOM     27  C   UNL     1       0.664  17.741  17.494  0.00  0.00    +0.000 A 
ATOM     28  C   UNL     1       1.727  17.843  16.583  0.00  0.00    +0.000 A 
ATOM     29  C   UNL     1       2.924  17.168  16.795  0.00  0.00    +0.000 A 
ATOM     30  C   UNL     1       3.106  16.454  17.969  0.00  0.00    +0.000 A 
ATOM     31  C   UNL     1       2.085  16.407  18.923  0.00  0.00    +0.000 A 
ATOM     32  C   UNL     1       0.795  16.964  18.677  0.00  0.00    +0.000 A 
ENDBRANCH  16  23
BRANCH   1  33
ATOM     33  N   UNL     1      -0.207  11.947  18.024  0.00  0.00    +0.000 N 
ATOM     34  H   UNL     1       0.769  11.778  17.800  0.00  0.00    +0.000 HD
ATOM     35  H   UNL     1      -0.699  12.358  17.237  0.00  0.00    +0.000 HD
ENDBRANCH   1  33
TORSDOF 2
ENDMDL
MODEL 7
REMARK VINA RESULT:      -7.2      3.580      4.327
REMARK  Name = 
REMARK  2 active torsions:
REMARK  status: ('A' for Active; 'I' for Inactive)
REMARK    1  A    between atoms: N_1  and  C_2
REMARK    2  A    between atoms: N_17  and  C_18
REMARK                            x       y       z     vdW  Elec       q    Type
REMARK                         _______ _______ _______ _____ _____    ______ ____
ROOT
ATOM      1  C   UNL     1      -3.491  11.289  17.700  0.00  0.00    +0.000 A 
ATOM      2  C   UNL     1      -2.339  11.913  18.186  0.00  0.00    +0.000 A 
ATOM      3  C   UNL     1      -2.278  12.544  19.443  0.00  0.00    +0.000 A 
ATOM      4  C   UNL     1      -3.492  12.751  20.126  0.00  0.00    +0.000 A 
ATOM      5  N   UNL     1      -3.507  13.428  21.287  0.00  0.00    +0.000 NA
ATOM      6  C   UNL     1      -2.387  13.906  21.853  0.00  0.00    +0.000 A 
ATOM      7  C   UNL     1      -2.456  14.648  23.061  0.00  0.00    +0.000 A 
ATOM      8  C   UNL     1      -3.673  14.874  23.747  0.00  0.00    +0.000 A 
ATOM      9  C   UNL     1      -3.731  15.632  24.926  0.00  0.00    +0.000 A 
ATOM     10  C   UNL     1      -2.582  16.196  25.443  0.00  0.00    +0.000 A 
ATOM     11  C   UNL     1      -1.360  15.987  24.800  0.00  0.00    +0.000 A 
ATOM     12  C   UNL     1      -1.291  15.202  23.634  0.00  0.00    +0.000 A 
ATOM     13  C   UNL     1      -0.061  14.953  23.042  0.00  0.00    +0.000 A 
ATOM     14  C   UNL     1       0.016  14.150  21.904  0.00  0.00    +0.000 A 
ATOM     15  C   UNL     1      -1.135  13.670  21.238  0.00  0.00    +0.000 A 
ATOM     16  N   UNL     1      -1.100  12.981  20.029  0.00  0.00    +0.000 N 
ATOM     17  C   UNL     1      -4.697  12.252  19.578  0.00  0.00    +0.000 A 
ATOM     18  C   UNL     1      -5.947  12.558  20.162  0.00  0.00    +0.000 A 
ATOM     19  C   UNL     1      -7.146  12.070  19.639  0.00  0.00    +0.000 A 
ATOM     20  C   UNL     1      -7.120  11.184  18.576  0.00  0.00    +0.000 A 
ATOM     21  C   UNL     1      -5.903  10.845  17.990  0.00  0.00    +0.000 A 
ATOM     22  C   UNL     1      -4.690  11.434  18.419  0.00  0.00    +0.000 A 
ENDROOT
BRANCH  16  23
ATOM     23  C   UNL     1       0.195  12.790  19.345  0.00  0.00    +0.000 A 
ATOM     24  C   UNL     1       0.673  11.467  19.287  0.00  0.00    +0.000 A 
ATOM     25  C   UNL     1       1.845  11.179  18.603  0.00  0.00    +0.000 A 
ATOM     26  C   UNL     1       2.613  12.218  18.092  0.00  0.00    +0.000 A 
ATOM     27  C   UNL     1       2.218  13.555  18.236  0.00  0.00    +0.000 A 
ATOM     28  C   UNL     1       3.101  14.564  17.823  0.00  0.00    +0.000 A 
ATOM     29  C   UNL     1       2.784  15.909  17.986  0.00  0.00    +0.000 A 
ATOM     30  C   UNL     1       1.539  16.261  18.483  0.00  0.00    +0.000 A 
ATOM     31  C   UNL     1       0.619  15.266  18.828  0.00  0.00    +0.000 A 
ATOM     32  C   UNL     1       0.960  13.882  18.810  0.00  0.00    +0.000 A 
ENDBRANCH  16  23
BRANCH   1  33
ATOM     33  N   UNL     1      -3.339  10.383  16.643  0.00  0.00    +0.000 N 
ATOM     34  H   UNL     1      -2.651  10.607  15.931  0.00  0.00    +0.000 HD
ATOM     35  H   UNL     1      -4.197  10.032  16.228  0.00  0.00    +0.000 HD
ENDBRANCH   1  33
TORSDOF 2
ENDMDL
MODEL 8
REMARK VINA RESULT:      -7.2      3.266      3.560
REMARK  Name = 
REMARK  2 active torsions:
REMARK  status: ('A' for Active; 'I' for Inactive)
REMARK    1  A    between atoms: N_1  and  C_2
REMARK    2  A    between atoms: N_17  and  C_18
REMARK                            x       y       z     vdW  Elec       q    Type
REMARK                         _______ _______ _______ _____ _____    ______ ____
ROOT
ATOM      1  C   UNL     1      -2.312  11.709  18.060  0.00  0.00    +0.000 A 
ATOM      2  C   UNL     1      -1.501  12.693  18.632  0.00  0.00    +0.000 A 
ATOM      3  C   UNL     1      -1.859  13.408  19.790  0.00  0.00    +0.000 A 
ATOM      4  C   UNL     1      -3.185  13.284  20.247  0.00  0.00    +0.000 A 
ATOM      5  N   UNL     1      -3.611  14.012  21.293  0.00  0.00    +0.000 NA
ATOM      6  C   UNL     1      -2.802  14.854  21.956  0.00  0.00    +0.000 A 
ATOM      7  C   UNL     1      -3.306  15.630  23.032  0.00  0.00    +0.000 A 
ATOM      8  C   UNL     1      -4.641  15.523  23.489  0.00  0.00    +0.000 A 
ATOM      9  C   UNL     1      -5.134  16.317  24.536  0.00  0.00    +0.000 A 
ATOM     10  C   UNL     1      -4.314  17.246  25.144  0.00  0.00    +0.000 A 
ATOM     11  C   UNL     1      -2.986  17.373  24.729  0.00  0.00    +0.000 A 
ATOM     12  C   UNL     1      -2.479  16.559  23.700  0.00  0.00    +0.000 A 
ATOM     13  C   UNL     1      -1.141  16.655  23.341  0.00  0.00    +0.000 A 
ATOM     14  C   UNL     1      -0.626  15.829  22.343  0.00  0.00    +0.000 A 
ATOM     15  C   UNL     1      -1.444  14.967  21.577  0.00  0.00    +0.000 A 
ATOM     16  N   UNL     1      -0.988  14.230  20.487  0.00  0.00    +0.000 N 
ATOM     17  C   UNL     1      -4.071  12.396  19.590  0.00  0.00    +0.000 A 
ATOM     18  C   UNL     1      -5.442  12.348  19.931  0.00  0.00    +0.000 A 
ATOM     19  C   UNL     1      -6.330  11.476  19.299  0.00  0.00    +0.000 A 
ATOM     20  C   UNL     1      -5.852  10.560  18.377  0.00  0.00    +0.000 A 
ATOM     21  C   UNL     1      -4.502  10.568  18.034  0.00  0.00    +0.000 A 
ATOM     22  C   UNL     1      -3.613  11.532  18.562  0.00  0.00    +0.000 A 
ENDROOT
BRANCH  16  23
ATOM     23  C   UNL     1       0.410  14.394  20.041  0.00  0.00    +0.000 A 
ATOM     24  C   UNL     1       1.349  13.516  20.614  0.00  0.00    +0.000 A 
ATOM     25  C   UNL     1       2.674  13.546  20.204  0.00  0.00    +0.000 A 
ATOM     26  C   UNL     1       3.095  14.536  19.324  0.00  0.00    +0.000 A 
ATOM     27  C   UNL     1       2.204  15.496  18.826  0.00  0.00    +0.000 A 
ATOM     28  C   UNL     1       2.716  16.550  18.054  0.00  0.00    +0.000 A 
ATOM     29  C   UNL     1       1.888  17.558  17.574  0.00  0.00    +0.000 A 
ATOM     30  C   UNL     1       0.520  17.476  17.785  0.00  0.00    +0.000 A 
ATOM     31  C   UNL     1      -0.013  16.391  18.487  0.00  0.00    +0.000 A 
ATOM     32  C   UNL     1       0.816  15.417  19.116  0.00  0.00    +0.000 A 
ENDBRANCH  16  23
BRANCH   1  33
ATOM     33  N   UNL     1      -1.711  10.813  17.167  0.00  0.00    +0.000 N 
ATOM     34  H   UNL     1      -0.953  10.238  17.522  0.00  0.00    +0.000 HD
ATOM     35  H   UNL     1      -1.494  11.179  16.244  0.00  0.00    +0.000 HD
ENDBRANCH   1  33
TORSDOF 2
ENDMDL
MODEL 9
REMARK VINA RESULT:      -7.1      3.652      5.216
REMARK  Name = 
REMARK  2 active torsions:
REMARK  status: ('A' for Active; 'I' for Inactive)
REMARK    1  A    between atoms: N_1  and  C_2
REMARK    2  A    between atoms: N_17  and  C_18
REMARK                            x       y       z     vdW  Elec       q    Type
REMARK                         _______ _______ _______ _____ _____    ______ ____
ROOT
ATOM      1  C   UNL     1      -3.558  11.276  17.629  0.00  0.00    +0.000 A 
ATOM      2  C   UNL     1      -2.380  11.854  18.110  0.00  0.00    +0.000 A 
ATOM      3  C   UNL     1      -2.284  12.463  19.376  0.00  0.00    +0.000 A 
ATOM      4  C   UNL     1      -3.482  12.698  20.077  0.00  0.00    +0.000 A 
ATOM      5  N   UNL     1      -3.462  13.357  21.248  0.00  0.00    +0.000 NA
ATOM      6  C   UNL     1      -2.319  13.789  21.807  0.00  0.00    +0.000 A 
ATOM      7  C   UNL     1      -2.350  14.514  23.027  0.00  0.00    +0.000 A 
ATOM      8  C   UNL     1      -3.551  14.768  23.732  0.00  0.00    +0.000 A 
ATOM      9  C   UNL     1      -3.570  15.510  24.923  0.00  0.00    +0.000 A 
ATOM     10  C   UNL     1      -2.397  16.028  25.434  0.00  0.00    +0.000 A 
ATOM     11  C   UNL     1      -1.190  15.789  24.773  0.00  0.00    +0.000 A 
ATOM     12  C   UNL     1      -1.161  15.021  23.594  0.00  0.00    +0.000 A 
ATOM     13  C   UNL     1       0.053  14.741  22.983  0.00  0.00    +0.000 A 
ATOM     14  C   UNL     1       0.091  13.954  21.832  0.00  0.00    +0.000 A 
ATOM     15  C   UNL     1      -1.083  13.522  21.173  0.00  0.00    +0.000 A 
ATOM     16  N   UNL     1      -1.085  12.852  19.953  0.00  0.00    +0.000 N 
ATOM     17  C   UNL     1      -4.710  12.247  19.536  0.00  0.00    +0.000 A 
ATOM     18  C   UNL     1      -5.941  12.585  20.140  0.00  0.00    +0.000 A 
ATOM     19  C   UNL     1      -7.162  12.144  19.624  0.00  0.00    +0.000 A 
ATOM     20  C   UNL     1      -7.178  11.274  18.548  0.00  0.00    +0.000 A 
ATOM     21  C   UNL     1      -5.979  10.906  17.942  0.00  0.00    +0.000 A 
ATOM     22  C   UNL     1      -4.743  11.447  18.364  0.00  0.00    +0.000 A 
ENDROOT
BRANCH  16  23
ATOM     23  C   UNL     1       0.194  12.630  19.251  0.00  0.00    +0.000 A 
ATOM     24  C   UNL     1       0.794  13.771  18.685  0.00  0.00    +0.000 A 
ATOM     25  C   UNL     1       2.033  13.674  18.067  0.00  0.00    +0.000 A 
ATOM     26  C   UNL     1       2.614  12.424  17.891  0.00  0.00    +0.000 A 
ATOM     27  C   UNL     1       1.983  11.257  18.343  0.00  0.00    +0.000 A 
ATOM     28  C   UNL     1       2.551  10.017  18.014  0.00  0.00    +0.000 A 
ATOM     29  C   UNL     1       1.944   8.825  18.393  0.00  0.00    +0.000 A 
ATOM     30  C   UNL     1       0.807   8.859  19.184  0.00  0.00    +0.000 A 
ATOM     31  C   UNL     1       0.273  10.088  19.585  0.00  0.00    +0.000 A 
ATOM     32  C   UNL     1       0.782  11.328  19.099  0.00  0.00    +0.000 A 
ENDBRANCH  16  23
BRANCH   1  33
ATOM     33  N   UNL     1      -3.448  10.381  16.556  0.00  0.00    +0.000 N 
ATOM     34  H   UNL     1      -4.269  10.251  15.972  0.00  0.00    +0.000 HD
ATOM     35  H   UNL     1      -2.996   9.495  16.757  0.00  0.00    +0.000 HD
ENDBRANCH   1  33
TORSDOF 2
ENDMDL
