MODEL 1
REMARK VINA RESULT:      -8.2      0.000      0.000
REMARK  Name = 
REMARK  10 active torsions:
REMARK  status: ('A' for Active; 'I' for Inactive)
REMARK    1  A    between atoms: C_1  and  C_2
REMARK    2  A    between atoms: C_5  and  C_6
REMARK    3  A    between atoms: N_8  and  C_9
REMARK    4  A    between atoms: C_9  and  C_10
REMARK    5  A    between atoms: C_10  and  O_12
REMARK    6  A    between atoms: O_12  and  C_13
REMARK    7  A    between atoms: C_13  and  C_14
REMARK    8  A    between atoms: N_16  and  C_17
REMARK    9  A    between atoms: C_23  and  C_24
REMARK   10  A    between atoms: C_29  and  C_30
REMARK                            x       y       z     vdW  Elec       q    Type
REMARK                         _______ _______ _______ _____ _____    ______ ____
ROOT
ATOM      1  O   UNL     1       1.845   2.308  20.246  0.00  0.00    +0.000 OA
ENDROOT
BRANCH   1   2
ATOM      2  C   UNL     1       2.350   2.303  18.978  0.00  0.00    +0.000 C 
ATOM      3  O   UNL     1       1.670   2.354  17.960  0.00  0.00    +0.000 OA
BRANCH   2   4
ATOM      4  C   UNL     1       3.868   2.222  18.994  0.00  0.00    +0.000 C 
BRANCH   4   7
ATOM      5  C   UNL     1       5.487   3.656  17.834  0.00  0.00    +0.000 C 
ATOM      6  O   UNL     1       5.896   4.105  18.900  0.00  0.00    +0.000 OA
ATOM      7  N   UNL     1       4.477   2.717  17.775  0.00  0.00    +0.000 N 
ATOM      8  H   UNL     1       4.209   2.275  16.910  0.00  0.00    +0.000 HD
BRANCH   5  13
ATOM      9  C   UNL     1       7.686   5.380  12.724  0.00  0.00    +0.000 C 
ATOM     10  C   UNL     1       7.120   4.919  14.040  0.00  0.00    +0.000 A 
ATOM     11  C   UNL     1       7.637   5.447  15.232  0.00  0.00    +0.000 A 
ATOM     12  C   UNL     1       7.132   5.054  16.475  0.00  0.00    +0.000 A 
ATOM     13  C   UNL     1       6.090   4.126  16.548  0.00  0.00    +0.000 A 
ATOM     14  C   UNL     1       5.577   3.589  15.356  0.00  0.00    +0.000 A 
ATOM     15  C   UNL     1       6.082   3.972  14.101  0.00  0.00    +0.000 A 
ATOM     16  C   UNL     1       5.502   3.359  12.855  0.00  0.00    +0.000 C 
ENDBRANCH   5  13
ENDBRANCH   4   7
ENDBRANCH   2   4
ENDBRANCH   1   2
BRANCH   1  17
ATOM     17  C   UNL     1       2.326   3.374  21.070  0.00  0.00    +0.000 C 
BRANCH  17  18
ATOM     18  C   UNL     1       1.621   4.665  20.637  0.00  0.00    +0.000 C 
ATOM     19  O   UNL     1       0.408   4.676  20.429  0.00  0.00    +0.000 OA
ATOM     20  N   UNL     1       2.473   5.751  20.476  0.00  0.00    +0.000 N 
ATOM     21  H   UNL     1       3.472   5.554  20.514  0.00  0.00    +0.000 HD
BRANCH  20  22
ATOM     22  C   UNL     1       2.082   7.058  20.076  0.00  0.00    +0.000 A 
ATOM     23  C   UNL     1       1.301   7.869  20.917  0.00  0.00    +0.000 A 
ATOM     24  C   UNL     1       0.842   9.124  20.513  0.00  0.00    +0.000 A 
ATOM     25  C   UNL     1       1.175   9.604  19.259  0.00  0.00    +0.000 A 
ATOM     26 CL   UNL     1       0.582  11.130  18.738  0.00  0.00    +0.000 Cl
ATOM     27  C   UNL     1       1.991   8.848  18.423  0.00  0.00    +0.000 A 
ATOM     28  C   UNL     1       2.464   7.575  18.821  0.00  0.00    +0.000 A 
BRANCH  28  29
ATOM     29  C   UNL     1       3.341   6.843  17.838  0.00  0.00    +0.000 C 
ATOM     30  F   UNL     1       4.615   6.633  18.279  0.00  0.00    +0.000 F 
ATOM     31  F   UNL     1       2.853   5.613  17.518  0.00  0.00    +0.000 F 
ATOM     32  F   UNL     1       3.468   7.512  16.658  0.00  0.00    +0.000 F 
ENDBRANCH  28  29
ENDBRANCH  20  22
ENDBRANCH  17  18
ENDBRANCH   1  17
TORSDOF 8
ENDMDL
MODEL 2
REMARK VINA RESULT:      -7.7      1.937      2.510
REMARK  Name = 
REMARK  10 active torsions:
REMARK  status: ('A' for Active; 'I' for Inactive)
REMARK    1  A    between atoms: C_1  and  C_2
REMARK    2  A    between atoms: C_5  and  C_6
REMARK    3  A    between atoms: N_8  and  C_9
REMARK    4  A    between atoms: C_9  and  C_10
REMARK    5  A    between atoms: C_10  and  O_12
REMARK    6  A    between atoms: O_12  and  C_13
REMARK    7  A    between atoms: C_13  and  C_14
REMARK    8  A    between atoms: N_16  and  C_17
REMARK    9  A    between atoms: C_23  and  C_24
REMARK   10  A    between atoms: C_29  and  C_30
REMARK                            x       y       z     vdW  Elec       q    Type
REMARK                         _______ _______ _______ _____ _____    ______ ____
ROOT
ATOM      1  O   UNL     1       1.619   2.601  20.670  0.00  0.00    +0.000 OA
ENDROOT
BRANCH   1   2
ATOM      2  C   UNL     1       1.600   2.236  19.355  0.00  0.00    +0.000 C 
ATOM      3  O   UNL     1       0.604   2.262  18.641  0.00  0.00    +0.000 OA
BRANCH   2   4
ATOM      4  C   UNL     1       2.977   1.789  18.891  0.00  0.00    +0.000 C 
BRANCH   4   7
ATOM      5  C   UNL     1       4.023   3.572  17.567  0.00  0.00    +0.000 C 
ATOM      6  O   UNL     1       3.345   3.280  16.587  0.00  0.00    +0.000 OA
ATOM      7  N   UNL     1       3.917   2.886  18.760  0.00  0.00    +0.000 N 
ATOM      8  H   UNL     1       4.398   3.186  19.593  0.00  0.00    +0.000 HD
BRANCH   5  13
ATOM      9  C   UNL     1       7.932   7.885  17.411  0.00  0.00    +0.000 C 
ATOM     10  C   UNL     1       6.919   6.775  17.467  0.00  0.00    +0.000 A 
ATOM     11  C   UNL     1       5.905   6.721  16.499  0.00  0.00    +0.000 A 
ATOM     12  C   UNL     1       4.950   5.699  16.509  0.00  0.00    +0.000 A 
ATOM     13  C   UNL     1       4.999   4.703  17.487  0.00  0.00    +0.000 A 
ATOM     14  C   UNL     1       6.008   4.760  18.463  0.00  0.00    +0.000 A 
ATOM     15  C   UNL     1       6.968   5.786  18.467  0.00  0.00    +0.000 A 
ATOM     16  C   UNL     1       8.022   5.805  19.540  0.00  0.00    +0.000 C 
ENDBRANCH   5  13
ENDBRANCH   4   7
ENDBRANCH   2   4
ENDBRANCH   1   2
BRANCH   1  17
ATOM     17  C   UNL     1       2.384   3.778  20.946  0.00  0.00    +0.000 C 
BRANCH  17  18
ATOM     18  C   UNL     1       1.476   4.995  20.735  0.00  0.00    +0.000 C 
ATOM     19  O   UNL     1       0.279   4.848  20.489  0.00  0.00    +0.000 OA
ATOM     20  N   UNL     1       2.135   6.216  20.809  0.00  0.00    +0.000 N 
ATOM     21  H   UNL     1       3.153   6.181  20.846  0.00  0.00    +0.000 HD
BRANCH  20  22
ATOM     22  C   UNL     1       1.534   7.494  20.645  0.00  0.00    +0.000 A 
ATOM     23  C   UNL     1       0.790   8.082  21.682  0.00  0.00    +0.000 A 
ATOM     24  C   UNL     1       0.128   9.300  21.516  0.00  0.00    +0.000 A 
ATOM     25  C   UNL     1       0.213   9.967  20.307  0.00  0.00    +0.000 A 
ATOM     26 CL   UNL     1      -0.631  11.446  20.080  0.00  0.00    +0.000 Cl
ATOM     27  C   UNL     1       0.985   9.437  19.277  0.00  0.00    +0.000 A 
ATOM     28  C   UNL     1       1.663   8.204  19.433  0.00  0.00    +0.000 A 
BRANCH  28  29
ATOM     29  C   UNL     1       2.470   7.723  18.255  0.00  0.00    +0.000 C 
ATOM     30  F   UNL     1       3.813   7.663  18.489  0.00  0.00    +0.000 F 
ATOM     31  F   UNL     1       2.109   6.474  17.850  0.00  0.00    +0.000 F 
ATOM     32  F   UNL     1       2.324   8.526  17.164  0.00  0.00    +0.000 F 
ENDBRANCH  28  29
ENDBRANCH  20  22
ENDBRANCH  17  18
ENDBRANCH   1  17
TORSDOF 8
ENDMDL
MODEL 3
REMARK VINA RESULT:      -7.6      2.738      7.573
REMARK  Name = 
REMARK  10 active torsions:
REMARK  status: ('A' for Active; 'I' for Inactive)
REMARK    1  A    between atoms: C_1  and  C_2
REMARK    2  A    between atoms: C_5  and  C_6
REMARK    3  A    between atoms: N_8  and  C_9
REMARK    4  A    between atoms: C_9  and  C_10
REMARK    5  A    between atoms: C_10  and  O_12
REMARK    6  A    between atoms: O_12  and  C_13
REMARK    7  A    between atoms: C_13  and  C_14
REMARK    8  A    between atoms: N_16  and  C_17
REMARK    9  A    between atoms: C_23  and  C_24
REMARK   10  A    between atoms: C_29  and  C_30
REMARK                            x       y       z     vdW  Elec       q    Type
REMARK                         _______ _______ _______ _____ _____    ______ ____
ROOT
ATOM      1  O   UNL     1       2.462   2.832  19.493  0.00  0.00    +0.000 OA
ENDROOT
BRANCH   1   2
ATOM      2  C   UNL     1       1.801   3.858  20.104  0.00  0.00    +0.000 C 
ATOM      3  O   UNL     1       0.634   3.809  20.474  0.00  0.00    +0.000 OA
BRANCH   2   4
ATOM      4  C   UNL     1       2.702   5.073  20.260  0.00  0.00    +0.000 C 
BRANCH   4   7
ATOM      5  C   UNL     1       1.911   7.392  20.119  0.00  0.00    +0.000 C 
ATOM      6  O   UNL     1       2.387   7.516  18.994  0.00  0.00    +0.000 OA
ATOM      7  N   UNL     1       2.019   6.217  20.834  0.00  0.00    +0.000 N 
ATOM      8  H   UNL     1       1.545   6.081  21.712  0.00  0.00    +0.000 HD
BRANCH   5  13
ATOM      9  C   UNL     1      -0.951  11.930  22.385  0.00  0.00    +0.000 C 
ATOM     10  C   UNL     1      -0.202  10.768  21.792  0.00  0.00    +0.000 A 
ATOM     11  C   UNL     1       0.275   9.755  22.637  0.00  0.00    +0.000 A 
ATOM     12  C   UNL     1       0.967   8.652  22.125  0.00  0.00    +0.000 A 
ATOM     13  C   UNL     1       1.187   8.539  20.750  0.00  0.00    +0.000 A 
ATOM     14  C   UNL     1       0.719   9.557  19.903  0.00  0.00    +0.000 A 
ATOM     15  C   UNL     1       0.030  10.673  20.407  0.00  0.00    +0.000 A 
ATOM     16  C   UNL     1      -0.443  11.739  19.456  0.00  0.00    +0.000 C 
ENDBRANCH   5  13
ENDBRANCH   4   7
ENDBRANCH   2   4
ENDBRANCH   1   2
BRANCH   1  17
ATOM     17  C   UNL     1       3.872   3.035  19.355  0.00  0.00    +0.000 C 
BRANCH  17  18
ATOM     18  C   UNL     1       4.152   3.450  17.906  0.00  0.00    +0.000 C 
ATOM     19  O   UNL     1       3.254   3.430  17.065  0.00  0.00    +0.000 OA
ATOM     20  N   UNL     1       5.476   3.793  17.659  0.00  0.00    +0.000 N 
ATOM     21  H   UNL     1       6.142   3.598  18.405  0.00  0.00    +0.000 HD
BRANCH  20  22
ATOM     22  C   UNL     1       6.005   4.206  16.405  0.00  0.00    +0.000 A 
ATOM     23  C   UNL     1       5.700   3.506  15.226  0.00  0.00    +0.000 A 
ATOM     24  C   UNL     1       6.269   3.847  13.997  0.00  0.00    +0.000 A 
ATOM     25  C   UNL     1       7.146   4.915  13.922  0.00  0.00    +0.000 A 
ATOM     26 CL   UNL     1       7.882   5.317  12.423  0.00  0.00    +0.000 Cl
ATOM     27  C   UNL     1       7.428   5.661  15.062  0.00  0.00    +0.000 A 
ATOM     28  C   UNL     1       6.855   5.327  16.313  0.00  0.00    +0.000 A 
BRANCH  28  29
ATOM     29  C   UNL     1       7.229   6.202  17.481  0.00  0.00    +0.000 C 
ATOM     30  F   UNL     1       6.160   6.648  18.204  0.00  0.00    +0.000 F 
ATOM     31  F   UNL     1       8.038   5.566  18.372  0.00  0.00    +0.000 F 
ATOM     32  F   UNL     1       7.903   7.321  17.096  0.00  0.00    +0.000 F 
ENDBRANCH  28  29
ENDBRANCH  20  22
ENDBRANCH  17  18
ENDBRANCH   1  17
TORSDOF 8
ENDMDL
MODEL 4
REMARK VINA RESULT:      -7.5      2.489      6.006
REMARK  Name = 
REMARK  10 active torsions:
REMARK  status: ('A' for Active; 'I' for Inactive)
REMARK    1  A    between atoms: C_1  and  C_2
REMARK    2  A    between atoms: C_5  and  C_6
REMARK    3  A    between atoms: N_8  and  C_9
REMARK    4  A    between atoms: C_9  and  C_10
REMARK    5  A    between atoms: C_10  and  O_12
REMARK    6  A    between atoms: O_12  and  C_13
REMARK    7  A    between atoms: C_13  and  C_14
REMARK    8  A    between atoms: N_16  and  C_17
REMARK    9  A    between atoms: C_23  and  C_24
REMARK   10  A    between atoms: C_29  and  C_30
REMARK                            x       y       z     vdW  Elec       q    Type
REMARK                         _______ _______ _______ _____ _____    ______ ____
ROOT
ATOM      1  O   UNL     1       3.069   1.701  18.990  0.00  0.00    +0.000 OA
ENDROOT
BRANCH   1   2
ATOM      2  C   UNL     1       3.872   2.148  19.999  0.00  0.00    +0.000 C 
ATOM      3  O   UNL     1       5.037   1.803  20.163  0.00  0.00    +0.000 OA
BRANCH   2   4
ATOM      4  C   UNL     1       3.132   3.129  20.895  0.00  0.00    +0.000 C 
BRANCH   4   7
ATOM      5  C   UNL     1       1.900   5.163  20.288  0.00  0.00    +0.000 C 
ATOM      6  O   UNL     1       0.842   4.670  20.666  0.00  0.00    +0.000 OA
ATOM      7  N   UNL     1       3.094   4.474  20.356  0.00  0.00    +0.000 N 
ATOM      8  H   UNL     1       3.976   4.912  20.139  0.00  0.00    +0.000 HD
BRANCH   5  13
ATOM      9  C   UNL     1       1.888  10.642  18.314  0.00  0.00    +0.000 C 
ATOM     10  C   UNL     1       1.875   9.228  18.826  0.00  0.00    +0.000 A 
ATOM     11  C   UNL     1       2.443   8.210  18.046  0.00  0.00    +0.000 A 
ATOM     12  C   UNL     1       2.462   6.884  18.491  0.00  0.00    +0.000 A 
ATOM     13  C   UNL     1       1.917   6.553  19.734  0.00  0.00    +0.000 A 
ATOM     14  C   UNL     1       1.339   7.569  20.512  0.00  0.00    +0.000 A 
ATOM     15  C   UNL     1       1.309   8.904  20.072  0.00  0.00    +0.000 A 
ATOM     16  C   UNL     1       0.670   9.952  20.942  0.00  0.00    +0.000 C 
ENDBRANCH   5  13
ENDBRANCH   4   7
ENDBRANCH   2   4
ENDBRANCH   1   2
BRANCH   1  17
ATOM     17  C   UNL     1       3.604   1.894  17.678  0.00  0.00    +0.000 C 
BRANCH  17  18
ATOM     18  C   UNL     1       4.113   3.337  17.579  0.00  0.00    +0.000 C 
ATOM     19  O   UNL     1       3.338   4.257  17.321  0.00  0.00    +0.000 OA
ATOM     20  N   UNL     1       5.483   3.471  17.766  0.00  0.00    +0.000 N 
ATOM     21  H   UNL     1       6.023   2.607  17.800  0.00  0.00    +0.000 HD
BRANCH  20  22
ATOM     22  C   UNL     1       6.211   4.691  17.720  0.00  0.00    +0.000 A 
ATOM     23  C   UNL     1       6.618   5.336  18.901  0.00  0.00    +0.000 A 
ATOM     24  C   UNL     1       7.265   6.572  18.881  0.00  0.00    +0.000 A 
ATOM     25  C   UNL     1       7.537   7.183  17.670  0.00  0.00    +0.000 A 
ATOM     26 CL   UNL     1       8.297   8.724  17.636  0.00  0.00    +0.000 Cl
ATOM     27  C   UNL     1       7.194   6.547  16.481  0.00  0.00    +0.000 A 
ATOM     28  C   UNL     1       6.539   5.292  16.487  0.00  0.00    +0.000 A 
BRANCH  28  29
ATOM     29  C   UNL     1       6.214   4.693  15.144  0.00  0.00    +0.000 C 
ATOM     30  F   UNL     1       6.335   3.334  15.097  0.00  0.00    +0.000 F 
ATOM     31  F   UNL     1       4.940   4.964  14.745  0.00  0.00    +0.000 F 
ATOM     32  F   UNL     1       7.023   5.166  14.155  0.00  0.00    +0.000 F 
ENDBRANCH  28  29
ENDBRANCH  20  22
ENDBRANCH  17  18
ENDBRANCH   1  17
TORSDOF 8
ENDMDL
MODEL 5
REMARK VINA RESULT:      -7.4      4.275      8.409
REMARK  Name = 
REMARK  10 active torsions:
REMARK  status: ('A' for Active; 'I' for Inactive)
REMARK    1  A    between atoms: C_1  and  C_2
REMARK    2  A    between atoms: C_5  and  C_6
REMARK    3  A    between atoms: N_8  and  C_9
REMARK    4  A    between atoms: C_9  and  C_10
REMARK    5  A    between atoms: C_10  and  O_12
REMARK    6  A    between atoms: O_12  and  C_13
REMARK    7  A    between atoms: C_13  and  C_14
REMARK    8  A    between atoms: N_16  and  C_17
REMARK    9  A    between atoms: C_23  and  C_24
REMARK   10  A    between atoms: C_29  and  C_30
REMARK                            x       y       z     vdW  Elec       q    Type
REMARK                         _______ _______ _______ _____ _____    ______ ____
ROOT
ATOM      1  O   UNL     1       1.649   9.109  22.071  0.00  0.00    +0.000 OA
ENDROOT
BRANCH   1   2
ATOM      2  C   UNL     1       0.725  10.064  22.380  0.00  0.00    +0.000 C 
ATOM      3  O   UNL     1      -0.027  10.015  23.347  0.00  0.00    +0.000 OA
BRANCH   2   4
ATOM      4  C   UNL     1       0.748  11.196  21.366  0.00  0.00    +0.000 C 
BRANCH   4   7
ATOM      5  C   UNL     1      -1.203  11.354  19.884  0.00  0.00    +0.000 C 
ATOM      6  O   UNL     1      -1.794  12.065  20.691  0.00  0.00    +0.000 OA
ATOM      7  N   UNL     1       0.064  10.866  20.130  0.00  0.00    +0.000 N 
ATOM      8  H   UNL     1       0.589  10.366  19.430  0.00  0.00    +0.000 HD
BRANCH   5  13
ATOM      9  C   UNL     1      -3.912  10.088  14.887  0.00  0.00    +0.000 C 
ATOM     10  C   UNL     1      -3.225  10.411  16.185  0.00  0.00    +0.000 A 
ATOM     11  C   UNL     1      -1.969   9.847  16.457  0.00  0.00    +0.000 A 
ATOM     12  C   UNL     1      -1.293  10.130  17.648  0.00  0.00    +0.000 A 
ATOM     13  C   UNL     1      -1.860  10.993  18.589  0.00  0.00    +0.000 A 
ATOM     14  C   UNL     1      -3.121  11.550  18.324  0.00  0.00    +0.000 A 
ATOM     15  C   UNL     1      -3.813  11.267  17.134  0.00  0.00    +0.000 A 
ATOM     16  C   UNL     1      -5.166  11.885  16.903  0.00  0.00    +0.000 C 
ENDBRANCH   5  13
ENDBRANCH   4   7
ENDBRANCH   2   4
ENDBRANCH   1   2
BRANCH   1  17
ATOM     17  C   UNL     1       1.098   7.906  21.528  0.00  0.00    +0.000 C 
BRANCH  17  18
ATOM     18  C   UNL     1       1.807   7.615  20.200  0.00  0.00    +0.000 C 
ATOM     19  O   UNL     1       1.773   8.433  19.280  0.00  0.00    +0.000 OA
ATOM     20  N   UNL     1       2.425   6.372  20.145  0.00  0.00    +0.000 N 
ATOM     21  H   UNL     1       2.225   5.732  20.912  0.00  0.00    +0.000 HD
BRANCH  20  22
ATOM     22  C   UNL     1       3.143   5.851  19.034  0.00  0.00    +0.000 A 
ATOM     23  C   UNL     1       3.996   6.671  18.275  0.00  0.00    +0.000 A 
ATOM     24  C   UNL     1       4.650   6.201  17.135  0.00  0.00    +0.000 A 
ATOM     25  C   UNL     1       4.477   4.886  16.740  0.00  0.00    +0.000 A 
ATOM     26 CL   UNL     1       5.246   4.309  15.317  0.00  0.00    +0.000 Cl
ATOM     27  C   UNL     1       3.681   4.034  17.499  0.00  0.00    +0.000 A 
ATOM     28  C   UNL     1       3.014   4.498  18.658  0.00  0.00    +0.000 A 
BRANCH  28  29
ATOM     29  C   UNL     1       2.178   3.491  19.405  0.00  0.00    +0.000 C 
ATOM     30  F   UNL     1       0.845   3.787  19.432  0.00  0.00    +0.000 F 
ATOM     31  F   UNL     1       2.269   2.241  18.875  0.00  0.00    +0.000 F 
ATOM     32  F   UNL     1       2.553   3.372  20.710  0.00  0.00    +0.000 F 
ENDBRANCH  28  29
ENDBRANCH  20  22
ENDBRANCH  17  18
ENDBRANCH   1  17
TORSDOF 8
ENDMDL
MODEL 6
REMARK VINA RESULT:      -7.3      4.202      8.345
REMARK  Name = 
REMARK  10 active torsions:
REMARK  status: ('A' for Active; 'I' for Inactive)
REMARK    1  A    between atoms: C_1  and  C_2
REMARK    2  A    between atoms: C_5  and  C_6
REMARK    3  A    between atoms: N_8  and  C_9
REMARK    4  A    between atoms: C_9  and  C_10
REMARK    5  A    between atoms: C_10  and  O_12
REMARK    6  A    between atoms: O_12  and  C_13
REMARK    7  A    between atoms: C_13  and  C_14
REMARK    8  A    between atoms: N_16  and  C_17
REMARK    9  A    between atoms: C_23  and  C_24
REMARK   10  A    between atoms: C_29  and  C_30
REMARK                            x       y       z     vdW  Elec       q    Type
REMARK                         _______ _______ _______ _____ _____    ______ ____
ROOT
ATOM      1  O   UNL     1       1.635   9.048  20.893  0.00  0.00    +0.000 OA
ENDROOT
BRANCH   1   2
ATOM      2  C   UNL     1       1.183   9.513  22.094  0.00  0.00    +0.000 C 
ATOM      3  O   UNL     1       1.672   9.223  23.180  0.00  0.00    +0.000 OA
BRANCH   2   4
ATOM      4  C   UNL     1      -0.013  10.434  21.909  0.00  0.00    +0.000 C 
BRANCH   4   7
ATOM      5  C   UNL     1      -0.933  11.194  19.764  0.00  0.00    +0.000 C 
ATOM      6  O   UNL     1      -0.511  12.331  19.953  0.00  0.00    +0.000 OA
ATOM      7  N   UNL     1      -0.741  10.181  20.680  0.00  0.00    +0.000 N 
ATOM      8  H   UNL     1      -0.999   9.227  20.482  0.00  0.00    +0.000 HD
BRANCH   5  13
ATOM      9  C   UNL     1      -3.988  10.108  14.927  0.00  0.00    +0.000 C 
ATOM     10  C   UNL     1      -3.212  10.384  16.185  0.00  0.00    +0.000 A 
ATOM     11  C   UNL     1      -1.960   9.778  16.366  0.00  0.00    +0.000 A 
ATOM     12  C   UNL     1      -1.202  10.017  17.517  0.00  0.00    +0.000 A 
ATOM     13  C   UNL     1      -1.681  10.879  18.507  0.00  0.00    +0.000 A 
ATOM     14  C   UNL     1      -2.938  11.479  18.332  0.00  0.00    +0.000 A 
ATOM     15  C   UNL     1      -3.712  11.240  17.183  0.00  0.00    +0.000 A 
ATOM     16  C   UNL     1      -5.056  11.903  17.049  0.00  0.00    +0.000 C 
ENDBRANCH   5  13
ENDBRANCH   4   7
ENDBRANCH   2   4
ENDBRANCH   1   2
BRANCH   1  17
ATOM     17  C   UNL     1       1.521   7.632  20.725  0.00  0.00    +0.000 C 
BRANCH  17  18
ATOM     18  C   UNL     1       2.302   7.239  19.466  0.00  0.00    +0.000 C 
ATOM     19  O   UNL     1       2.162   7.872  18.420  0.00  0.00    +0.000 OA
ATOM     20  N   UNL     1       3.111   6.120  19.625  0.00  0.00    +0.000 N 
ATOM     21  H   UNL     1       2.995   5.596  20.492  0.00  0.00    +0.000 HD
BRANCH  20  22
ATOM     22  C   UNL     1       3.931   5.541  18.619  0.00  0.00    +0.000 A 
ATOM     23  C   UNL     1       5.240   6.004  18.397  0.00  0.00    +0.000 A 
ATOM     24  C   UNL     1       6.035   5.502  17.365  0.00  0.00    +0.000 A 
ATOM     25  C   UNL     1       5.539   4.507  16.541  0.00  0.00    +0.000 A 
ATOM     26 CL   UNL     1       6.495   3.912  15.244  0.00  0.00    +0.000 Cl
ATOM     27  C   UNL     1       4.268   3.990  16.767  0.00  0.00    +0.000 A 
ATOM     28  C   UNL     1       3.452   4.488  17.812  0.00  0.00    +0.000 A 
BRANCH  28  29
ATOM     29  C   UNL     1       2.093   3.857  17.967  0.00  0.00    +0.000 C 
ATOM     30  F   UNL     1       1.062   4.651  17.556  0.00  0.00    +0.000 F 
ATOM     31  F   UNL     1       1.971   2.699  17.262  0.00  0.00    +0.000 F 
ATOM     32  F   UNL     1       1.815   3.537  19.262  0.00  0.00    +0.000 F 
ENDBRANCH  28  29
ENDBRANCH  20  22
ENDBRANCH  17  18
ENDBRANCH   1  17
TORSDOF 8
ENDMDL
MODEL 7
REMARK VINA RESULT:      -7.3      2.585      6.060
REMARK  Name = 
REMARK  10 active torsions:
REMARK  status: ('A' for Active; 'I' for Inactive)
REMARK    1  A    between atoms: C_1  and  C_2
REMARK    2  A    between atoms: C_5  and  C_6
REMARK    3  A    between atoms: N_8  and  C_9
REMARK    4  A    between atoms: C_9  and  C_10
REMARK    5  A    between atoms: C_10  and  O_12
REMARK    6  A    between atoms: O_12  and  C_13
REMARK    7  A    between atoms: C_13  and  C_14
REMARK    8  A    between atoms: N_16  and  C_17
REMARK    9  A    between atoms: C_23  and  C_24
REMARK   10  A    between atoms: C_29  and  C_30
REMARK                            x       y       z     vdW  Elec       q    Type
REMARK                         _______ _______ _______ _____ _____    ______ ____
ROOT
ATOM      1  O   UNL     1       3.887   2.160  18.069  0.00  0.00    +0.000 OA
ENDROOT
BRANCH   1   2
ATOM      2  C   UNL     1       2.732   2.825  17.773  0.00  0.00    +0.000 C 
ATOM      3  O   UNL     1       2.346   3.072  16.637  0.00  0.00    +0.000 OA
BRANCH   2   4
ATOM      4  C   UNL     1       1.990   3.224  19.039  0.00  0.00    +0.000 C 
BRANCH   4   7
ATOM      5  C   UNL     1       1.739   5.287  20.344  0.00  0.00    +0.000 C 
ATOM      6  O   UNL     1       1.955   4.685  21.391  0.00  0.00    +0.000 OA
ATOM      7  N   UNL     1       1.730   4.648  19.121  0.00  0.00    +0.000 N 
ATOM      8  H   UNL     1       1.653   5.156  18.255  0.00  0.00    +0.000 HD
BRANCH   5  13
ATOM      9  C   UNL     1       0.769  11.029  20.256  0.00  0.00    +0.000 C 
ATOM     10  C   UNL     1       1.034   9.548  20.275  0.00  0.00    +0.000 A 
ATOM     11  C   UNL     1       0.720   8.808  21.424  0.00  0.00    +0.000 A 
ATOM     12  C   UNL     1       0.941   7.428  21.477  0.00  0.00    +0.000 A 
ATOM     13  C   UNL     1       1.476   6.760  20.374  0.00  0.00    +0.000 A 
ATOM     14  C   UNL     1       1.801   7.500  19.226  0.00  0.00    +0.000 A 
ATOM     15  C   UNL     1       1.590   8.888  19.163  0.00  0.00    +0.000 A 
ATOM     16  C   UNL     1       1.963   9.635  17.911  0.00  0.00    +0.000 C 
ENDBRANCH   5  13
ENDBRANCH   4   7
ENDBRANCH   2   4
ENDBRANCH   1   2
BRANCH   1  17
ATOM     17  C   UNL     1       4.383   2.397  19.390  0.00  0.00    +0.000 C 
BRANCH  17  18
ATOM     18  C   UNL     1       4.975   3.810  19.429  0.00  0.00    +0.000 C 
ATOM     19  O   UNL     1       4.625   4.612  20.294  0.00  0.00    +0.000 OA
ATOM     20  N   UNL     1       5.874   4.079  18.404  0.00  0.00    +0.000 N 
ATOM     21  H   UNL     1       5.937   3.383  17.662  0.00  0.00    +0.000 HD
BRANCH  20  22
ATOM     22  C   UNL     1       6.559   5.308  18.203  0.00  0.00    +0.000 A 
ATOM     23  C   UNL     1       7.696   5.636  18.962  0.00  0.00    +0.000 A 
ATOM     24  C   UNL     1       8.337   6.869  18.835  0.00  0.00    +0.000 A 
ATOM     25  C   UNL     1       7.862   7.798  17.926  0.00  0.00    +0.000 A 
ATOM     26 CL   UNL     1       8.621   9.333  17.790  0.00  0.00    +0.000 Cl
ATOM     27  C   UNL     1       6.771   7.484  17.121  0.00  0.00    +0.000 A 
ATOM     28  C   UNL     1       6.113   6.236  17.239  0.00  0.00    +0.000 A 
BRANCH  28  29
ATOM     29  C   UNL     1       4.942   6.000  16.320  0.00  0.00    +0.000 C 
ATOM     30  F   UNL     1       3.738   5.939  16.958  0.00  0.00    +0.000 F 
ATOM     31  F   UNL     1       4.813   6.976  15.379  0.00  0.00    +0.000 F 
ATOM     32  F   UNL     1       5.052   4.830  15.631  0.00  0.00    +0.000 F 
ENDBRANCH  28  29
ENDBRANCH  20  22
ENDBRANCH  17  18
ENDBRANCH   1  17
TORSDOF 8
ENDMDL
MODEL 8
REMARK VINA RESULT:      -7.2      5.169      7.702
REMARK  Name = 
REMARK  10 active torsions:
REMARK  status: ('A' for Active; 'I' for Inactive)
REMARK    1  A    between atoms: C_1  and  C_2
REMARK    2  A    between atoms: C_5  and  C_6
REMARK    3  A    between atoms: N_8  and  C_9
REMARK    4  A    between atoms: C_9  and  C_10
REMARK    5  A    between atoms: C_10  and  O_12
REMARK    6  A    between atoms: O_12  and  C_13
REMARK    7  A    between atoms: C_13  and  C_14
REMARK    8  A    between atoms: N_16  and  C_17
REMARK    9  A    between atoms: C_23  and  C_24
REMARK   10  A    between atoms: C_29  and  C_30
REMARK                            x       y       z     vdW  Elec       q    Type
REMARK                         _______ _______ _______ _____ _____    ______ ____
ROOT
ATOM      1  O   UNL     1      -0.166  10.039  20.091  0.00  0.00    +0.000 OA
ENDROOT
BRANCH   1   2
ATOM      2  C   UNL     1       0.159   9.825  21.399  0.00  0.00    +0.000 C 
ATOM      3  O   UNL     1      -0.568  10.095  22.348  0.00  0.00    +0.000 OA
BRANCH   2   4
ATOM      4  C   UNL     1       1.544   9.209  21.525  0.00  0.00    +0.000 C 
BRANCH   4   7
ATOM      5  C   UNL     1       2.022   7.451  19.880  0.00  0.00    +0.000 C 
ATOM      6  O   UNL     1       2.382   8.283  19.053  0.00  0.00    +0.000 OA
ATOM      7  N   UNL     1       1.583   7.812  21.137  0.00  0.00    +0.000 N 
ATOM      8  H   UNL     1       1.382   7.128  21.849  0.00  0.00    +0.000 HD
BRANCH   5  13
ATOM      9  C   UNL     1       2.062   1.744  18.720  0.00  0.00    +0.000 C 
ATOM     10  C   UNL     1       2.061   3.216  19.032  0.00  0.00    +0.000 A 
ATOM     11  C   UNL     1       2.414   4.131  18.029  0.00  0.00    +0.000 A 
ATOM     12  C   UNL     1       2.416   5.508  18.276  0.00  0.00    +0.000 A 
ATOM     13  C   UNL     1       2.054   5.996  19.534  0.00  0.00    +0.000 A 
ATOM     14  C   UNL     1       1.709   5.081  20.542  0.00  0.00    +0.000 A 
ATOM     15  C   UNL     1       1.711   3.695  20.308  0.00  0.00    +0.000 A 
ATOM     16  C   UNL     1       1.341   2.759  21.426  0.00  0.00    +0.000 C 
ENDBRANCH   5  13
ENDBRANCH   4   7
ENDBRANCH   2   4
ENDBRANCH   1   2
BRANCH   1  17
ATOM     17  C   UNL     1       0.173  11.340  19.602  0.00  0.00    +0.000 C 
BRANCH  17  18
ATOM     18  C   UNL     1      -1.130  12.116  19.376  0.00  0.00    +0.000 C 
ATOM     19  O   UNL     1      -1.179  13.329  19.580  0.00  0.00    +0.000 OA
ATOM     20  N   UNL     1      -2.199  11.326  18.972  0.00  0.00    +0.000 N 
ATOM     21  H   UNL     1      -2.059  10.318  19.011  0.00  0.00    +0.000 HD
BRANCH  20  22
ATOM     22  C   UNL     1      -3.516  11.790  18.701  0.00  0.00    +0.000 A 
ATOM     23  C   UNL     1      -4.229  12.541  19.651  0.00  0.00    +0.000 A 
ATOM     24  C   UNL     1      -5.549  12.939  19.437  0.00  0.00    +0.000 A 
ATOM     25  C   UNL     1      -6.180  12.608  18.251  0.00  0.00    +0.000 A 
ATOM     26 CL   UNL     1      -7.818  13.060  17.994  0.00  0.00    +0.000 Cl
ATOM     27  C   UNL     1      -5.485  11.911  17.268  0.00  0.00    +0.000 A 
ATOM     28  C   UNL     1      -4.145  11.503  17.472  0.00  0.00    +0.000 A 
BRANCH  28  29
ATOM     29  C   UNL     1      -3.488  10.753  16.342  0.00  0.00    +0.000 C 
ATOM     30  F   UNL     1      -4.300  10.549  15.264  0.00  0.00    +0.000 F 
ATOM     31  F   UNL     1      -2.388  11.395  15.860  0.00  0.00    +0.000 F 
ATOM     32  F   UNL     1      -3.061   9.516  16.720  0.00  0.00    +0.000 F 
ENDBRANCH  28  29
ENDBRANCH  20  22
ENDBRANCH  17  18
ENDBRANCH   1  17
TORSDOF 8
ENDMDL
MODEL 9
REMARK VINA RESULT:      -7.2      6.506      9.418
REMARK  Name = 
REMARK  10 active torsions:
REMARK  status: ('A' for Active; 'I' for Inactive)
REMARK    1  A    between atoms: C_1  and  C_2
REMARK    2  A    between atoms: C_5  and  C_6
REMARK    3  A    between atoms: N_8  and  C_9
REMARK    4  A    between atoms: C_9  and  C_10
REMARK    5  A    between atoms: C_10  and  O_12
REMARK    6  A    between atoms: O_12  and  C_13
REMARK    7  A    between atoms: C_13  and  C_14
REMARK    8  A    between atoms: N_16  and  C_17
REMARK    9  A    between atoms: C_23  and  C_24
REMARK   10  A    between atoms: C_29  and  C_30
REMARK                            x       y       z     vdW  Elec       q    Type
REMARK                         _______ _______ _______ _____ _____    ______ ____
ROOT
ATOM      1  O   UNL     1       8.618   8.959  18.747  0.00  0.00    +0.000 OA
ENDROOT
BRANCH   1   2
ATOM      2  C   UNL     1       8.994  10.268  18.669  0.00  0.00    +0.000 C 
ATOM      3  O   UNL     1       8.561  11.067  17.846  0.00  0.00    +0.000 OA
BRANCH   2   4
ATOM      4  C   UNL     1      10.023  10.607  19.736  0.00  0.00    +0.000 C 
BRANCH   4   7
ATOM      5  C   UNL     1       9.414  12.431  21.261  0.00  0.00    +0.000 C 
ATOM      6  O   UNL     1       9.904  13.265  20.505  0.00  0.00    +0.000 OA
ATOM      7  N   UNL     1       9.428  11.082  20.970  0.00  0.00    +0.000 N 
ATOM      8  H   UNL     1       8.940  10.409  21.539  0.00  0.00    +0.000 HD
BRANCH   5  13
ATOM      9  C   UNL     1       6.866  13.948  26.274  0.00  0.00    +0.000 C 
ATOM     10  C   UNL     1       7.510  13.552  24.973  0.00  0.00    +0.000 A 
ATOM     11  C   UNL     1       8.319  14.477  24.298  0.00  0.00    +0.000 A 
ATOM     12  C   UNL     1       8.945  14.144  23.091  0.00  0.00    +0.000 A 
ATOM     13  C   UNL     1       8.778  12.871  22.542  0.00  0.00    +0.000 A 
ATOM     14  C   UNL     1       7.960  11.946  23.212  0.00  0.00    +0.000 A 
ATOM     15  C   UNL     1       7.321  12.272  24.420  0.00  0.00    +0.000 A 
ATOM     16  C   UNL     1       6.449  11.246  25.093  0.00  0.00    +0.000 C 
ENDBRANCH   5  13
ENDBRANCH   4   7
ENDBRANCH   2   4
ENDBRANCH   1   2
BRANCH   1  17
ATOM     17  C   UNL     1       8.142   8.406  17.517  0.00  0.00    +0.000 C 
BRANCH  17  18
ATOM     18  C   UNL     1       7.251   7.203  17.850  0.00  0.00    +0.000 C 
ATOM     19  O   UNL     1       7.576   6.409  18.732  0.00  0.00    +0.000 OA
ATOM     20  N   UNL     1       6.116   7.099  17.056  0.00  0.00    +0.000 N 
ATOM     21  H   UNL     1       6.064   7.726  16.254  0.00  0.00    +0.000 HD
BRANCH  20  22
ATOM     22  C   UNL     1       5.130   6.079  17.149  0.00  0.00    +0.000 A 
ATOM     23  C   UNL     1       3.954   6.275  17.893  0.00  0.00    +0.000 A 
ATOM     24  C   UNL     1       3.009   5.261  18.061  0.00  0.00    +0.000 A 
ATOM     25  C   UNL     1       3.215   4.028  17.467  0.00  0.00    +0.000 A 
ATOM     26 CL   UNL     1       2.078   2.762  17.701  0.00  0.00    +0.000 Cl
ATOM     27  C   UNL     1       4.344   3.819  16.681  0.00  0.00    +0.000 A 
ATOM     28  C   UNL     1       5.308   4.839  16.500  0.00  0.00    +0.000 A 
BRANCH  28  29
ATOM     29  C   UNL     1       6.491   4.505  15.629  0.00  0.00    +0.000 C 
ATOM     30  F   UNL     1       6.784   5.460  14.700  0.00  0.00    +0.000 F 
ATOM     31  F   UNL     1       7.634   4.324  16.347  0.00  0.00    +0.000 F 
ATOM     32  F   UNL     1       6.306   3.353  14.924  0.00  0.00    +0.000 F 
ENDBRANCH  28  29
ENDBRANCH  20  22
ENDBRANCH  17  18
ENDBRANCH   1  17
TORSDOF 8
ENDMDL
