MODEL 1
REMARK VINA RESULT:      -7.5      0.000      0.000
REMARK  Name = 
REMARK  4 active torsions:
REMARK  status: ('A' for Active; 'I' for Inactive)
REMARK    1  A    between atoms: C_1  and  O_2
REMARK    2  A    between atoms: O_2  and  C_3
REMARK    3  A    between atoms: C_8  and  C_9
REMARK    4  A    between atoms: C_9  and  N_10
REMARK                            x       y       z     vdW  Elec       q    Type
REMARK                         _______ _______ _______ _____ _____    ______ ____
ROOT
ATOM      1  N   UNL     1       5.179   3.748  17.694  0.00  0.00    +0.000 N 
ATOM      2  C   UNL     1       5.879   4.263  16.624  0.00  0.00    +0.000 A 
ATOM      3  C   UNL     1       6.783   5.448  16.892  0.00  0.00    +0.000 A 
ATOM      4  N   UNL     1       7.507   5.985  15.966  0.00  0.00    +0.000 NA
ATOM      5  N   UNL     1       7.380   5.398  14.745  0.00  0.00    +0.000 N 
ATOM      6  C   UNL     1       6.558   4.332  14.434  0.00  0.00    +0.000 A 
ATOM      7  O   UNL     1       6.535   3.918  13.278  0.00  0.00    +0.000 OA
ATOM      8  N   UNL     1       5.801   3.775  15.429  0.00  0.00    +0.000 NA
ATOM      9  H   UNL     1       5.251   4.236  18.576  0.00  0.00    +0.000 HD
ATOM     10  H   UNL     1       7.928   5.782  13.983  0.00  0.00    +0.000 HD
ENDROOT
BRANCH   1  11
ATOM     11  C   UNL     1       3.923   3.030  17.522  0.00  0.00    +0.000 C 
BRANCH  11  17
ATOM     12  C   UNL     1       2.496   4.646  18.900  0.00  0.00    +0.000 A 
ATOM     13  C   UNL     1       1.580   4.871  19.935  0.00  0.00    +0.000 A 
ATOM     14  C   UNL     1       1.182   3.830  20.773  0.00  0.00    +0.000 A 
ATOM     15  C   UNL     1       1.676   2.548  20.568  0.00  0.00    +0.000 A 
ATOM     16  C   UNL     1       2.552   2.304  19.512  0.00  0.00    +0.000 A 
ATOM     17  C   UNL     1       2.978   3.347  18.663  0.00  0.00    +0.000 A 
BRANCH  12  19
ATOM     18  C   UNL     1       2.771   6.966  18.576  0.00  0.00    +0.000 C 
ATOM     19  O   UNL     1       2.906   5.644  18.054  0.00  0.00    +0.000 OA
ENDBRANCH  12  19
ENDBRANCH  11  17
ENDBRANCH   1  11
TORSDOF 3
ENDMDL
MODEL 2
REMARK VINA RESULT:      -7.4      1.463      2.181
REMARK  Name = 
REMARK  4 active torsions:
REMARK  status: ('A' for Active; 'I' for Inactive)
REMARK    1  A    between atoms: C_1  and  O_2
REMARK    2  A    between atoms: O_2  and  C_3
REMARK    3  A    between atoms: C_8  and  C_9
REMARK    4  A    between atoms: C_9  and  N_10
REMARK                            x       y       z     vdW  Elec       q    Type
REMARK                         _______ _______ _______ _____ _____    ______ ____
ROOT
ATOM      1  N   UNL     1       4.902   4.070  17.729  0.00  0.00    +0.000 N 
ATOM      2  C   UNL     1       5.694   4.456  16.669  0.00  0.00    +0.000 A 
ATOM      3  C   UNL     1       6.653   5.605  16.900  0.00  0.00    +0.000 A 
ATOM      4  N   UNL     1       7.462   6.022  15.983  0.00  0.00    +0.000 NA
ATOM      5  N   UNL     1       7.370   5.347  14.805  0.00  0.00    +0.000 N 
ATOM      6  C   UNL     1       6.502   4.308  14.526  0.00  0.00    +0.000 A 
ATOM      7  O   UNL     1       6.520   3.803  13.407  0.00  0.00    +0.000 OA
ATOM      8  N   UNL     1       5.655   3.878  15.512  0.00  0.00    +0.000 NA
ATOM      9  H   UNL     1       4.953   4.623  18.574  0.00  0.00    +0.000 HD
ATOM     10  H   UNL     1       7.984   5.635  14.052  0.00  0.00    +0.000 HD
ENDROOT
BRANCH   1  11
ATOM     11  C   UNL     1       3.616   3.415  17.535  0.00  0.00    +0.000 C 
BRANCH  11  17
ATOM     12  C   UNL     1       3.454   2.765  20.004  0.00  0.00    +0.000 A 
ATOM     13  C   UNL     1       2.740   2.754  21.209  0.00  0.00    +0.000 A 
ATOM     14  C   UNL     1       1.433   3.237  21.266  0.00  0.00    +0.000 A 
ATOM     15  C   UNL     1       0.836   3.759  20.126  0.00  0.00    +0.000 A 
ATOM     16  C   UNL     1       1.555   3.818  18.933  0.00  0.00    +0.000 A 
ATOM     17  C   UNL     1       2.872   3.320  18.851  0.00  0.00    +0.000 A 
BRANCH  12  19
ATOM     18  C   UNL     1       5.112   1.354  20.910  0.00  0.00    +0.000 C 
ATOM     19  O   UNL     1       4.742   2.304  19.910  0.00  0.00    +0.000 OA
ENDBRANCH  12  19
ENDBRANCH  11  17
ENDBRANCH   1  11
TORSDOF 3
ENDMDL
MODEL 3
REMARK VINA RESULT:      -7.2      1.819      2.142
REMARK  Name = 
REMARK  4 active torsions:
REMARK  status: ('A' for Active; 'I' for Inactive)
REMARK    1  A    between atoms: C_1  and  O_2
REMARK    2  A    between atoms: O_2  and  C_3
REMARK    3  A    between atoms: C_8  and  C_9
REMARK    4  A    between atoms: C_9  and  N_10
REMARK                            x       y       z     vdW  Elec       q    Type
REMARK                         _______ _______ _______ _____ _____    ______ ____
ROOT
ATOM      1  N   UNL     1       5.184   3.778  17.909  0.00  0.00    +0.000 N 
ATOM      2  C   UNL     1       6.055   4.684  17.343  0.00  0.00    +0.000 A 
ATOM      3  C   UNL     1       6.566   4.378  15.950  0.00  0.00    +0.000 A 
ATOM      4  N   UNL     1       7.361   5.177  15.318  0.00  0.00    +0.000 NA
ATOM      5  N   UNL     1       7.694   6.301  16.010  0.00  0.00    +0.000 N 
ATOM      6  C   UNL     1       7.279   6.624  17.288  0.00  0.00    +0.000 A 
ATOM      7  O   UNL     1       7.677   7.669  17.795  0.00  0.00    +0.000 OA
ATOM      8  N   UNL     1       6.435   5.766  17.941  0.00  0.00    +0.000 NA
ATOM      9  H   UNL     1       4.997   2.928  17.395  0.00  0.00    +0.000 HD
ATOM     10  H   UNL     1       8.315   6.962  15.557  0.00  0.00    +0.000 HD
ENDROOT
BRANCH   1  11
ATOM     11  C   UNL     1       5.053   3.631  19.352  0.00  0.00    +0.000 C 
BRANCH  11  17
ATOM     12  C   UNL     1       2.886   4.913  19.809  0.00  0.00    +0.000 A 
ATOM     13  C   UNL     1       1.524   4.911  20.133  0.00  0.00    +0.000 A 
ATOM     14  C   UNL     1       0.871   3.723  20.461  0.00  0.00    +0.000 A 
ATOM     15  C   UNL     1       1.568   2.522  20.441  0.00  0.00    +0.000 A 
ATOM     16  C   UNL     1       2.912   2.507  20.074  0.00  0.00    +0.000 A 
ATOM     17  C   UNL     1       3.594   3.700  19.755  0.00  0.00    +0.000 A 
BRANCH  12  19
ATOM     18  C   UNL     1       2.919   6.867  18.488  0.00  0.00    +0.000 C 
ATOM     19  O   UNL     1       3.560   6.060  19.477  0.00  0.00    +0.000 OA
ENDBRANCH  12  19
ENDBRANCH  11  17
ENDBRANCH   1  11
TORSDOF 3
ENDMDL
MODEL 4
REMARK VINA RESULT:      -7.0      2.316      2.912
REMARK  Name = 
REMARK  4 active torsions:
REMARK  status: ('A' for Active; 'I' for Inactive)
REMARK    1  A    between atoms: C_1  and  O_2
REMARK    2  A    between atoms: O_2  and  C_3
REMARK    3  A    between atoms: C_8  and  C_9
REMARK    4  A    between atoms: C_9  and  N_10
REMARK                            x       y       z     vdW  Elec       q    Type
REMARK                         _______ _______ _______ _____ _____    ______ ____
ROOT
ATOM      1  N   UNL     1       3.775   3.913  17.057  0.00  0.00    +0.000 N 
ATOM      2  C   UNL     1       5.030   4.478  16.996  0.00  0.00    +0.000 A 
ATOM      3  C   UNL     1       5.279   5.500  15.906  0.00  0.00    +0.000 A 
ATOM      4  N   UNL     1       6.410   6.112  15.782  0.00  0.00    +0.000 NA
ATOM      5  N   UNL     1       7.345   5.755  16.705  0.00  0.00    +0.000 N 
ATOM      6  C   UNL     1       7.186   4.817  17.706  0.00  0.00    +0.000 A 
ATOM      7  O   UNL     1       8.128   4.585  18.459  0.00  0.00    +0.000 OA
ATOM      8  N   UNL     1       5.979   4.181  17.824  0.00  0.00    +0.000 NA
ATOM      9  H   UNL     1       3.118   4.156  16.328  0.00  0.00    +0.000 HD
ATOM     10  H   UNL     1       8.251   6.208  16.652  0.00  0.00    +0.000 HD
ENDROOT
BRANCH   1  11
ATOM     11  C   UNL     1       3.548   2.595  17.634  0.00  0.00    +0.000 C 
BRANCH  11  17
ATOM     12  C   UNL     1       3.461   2.541  20.191  0.00  0.00    +0.000 A 
ATOM     13  C   UNL     1       2.748   2.724  21.382  0.00  0.00    +0.000 A 
ATOM     14  C   UNL     1       1.387   3.025  21.358  0.00  0.00    +0.000 A 
ATOM     15  C   UNL     1       0.731   3.173  20.142  0.00  0.00    +0.000 A 
ATOM     16  C   UNL     1       1.443   3.040  18.951  0.00  0.00    +0.000 A 
ATOM     17  C   UNL     1       2.816   2.719  18.954  0.00  0.00    +0.000 A 
BRANCH  12  19
ATOM     18  C   UNL     1       5.200   1.221  21.083  0.00  0.00    +0.000 C 
ATOM     19  O   UNL     1       4.801   2.249  20.175  0.00  0.00    +0.000 OA
ENDBRANCH  12  19
ENDBRANCH  11  17
ENDBRANCH   1  11
TORSDOF 3
ENDMDL
MODEL 5
REMARK VINA RESULT:      -7.0      1.528      1.820
REMARK  Name = 
REMARK  4 active torsions:
REMARK  status: ('A' for Active; 'I' for Inactive)
REMARK    1  A    between atoms: C_1  and  O_2
REMARK    2  A    between atoms: O_2  and  C_3
REMARK    3  A    between atoms: C_8  and  C_9
REMARK    4  A    between atoms: C_9  and  N_10
REMARK                            x       y       z     vdW  Elec       q    Type
REMARK                         _______ _______ _______ _____ _____    ______ ____
ROOT
ATOM      1  N   UNL     1       4.134   6.182  17.936  0.00  0.00    +0.000 N 
ATOM      2  C   UNL     1       5.182   5.894  17.088  0.00  0.00    +0.000 A 
ATOM      3  C   UNL     1       6.451   6.705  17.252  0.00  0.00    +0.000 A 
ATOM      4  N   UNL     1       7.501   6.494  16.530  0.00  0.00    +0.000 NA
ATOM      5  N   UNL     1       7.363   5.491  15.619  0.00  0.00    +0.000 N 
ATOM      6  C   UNL     1       6.228   4.732  15.408  0.00  0.00    +0.000 A 
ATOM      7  O   UNL     1       6.245   3.869  14.535  0.00  0.00    +0.000 OA
ATOM      8  N   UNL     1       5.126   4.969  16.185  0.00  0.00    +0.000 NA
ATOM      9  H   UNL     1       4.246   6.965  18.565  0.00  0.00    +0.000 HD
ATOM     10  H   UNL     1       8.160   5.284  15.028  0.00  0.00    +0.000 HD
ENDROOT
BRANCH   1  11
ATOM     11  C   UNL     1       2.750   5.916  17.571  0.00  0.00    +0.000 C 
BRANCH  11  17
ATOM     12  C   UNL     1       2.028   5.180  19.913  0.00  0.00    +0.000 A 
ATOM     13  C   UNL     1       1.400   4.250  20.750  0.00  0.00    +0.000 A 
ATOM     14  C   UNL     1       0.927   3.040  20.242  0.00  0.00    +0.000 A 
ATOM     15  C   UNL     1       1.055   2.760  18.888  0.00  0.00    +0.000 A 
ATOM     16  C   UNL     1       1.636   3.700  18.038  0.00  0.00    +0.000 A 
ATOM     17  C   UNL     1       2.135   4.922  18.536  0.00  0.00    +0.000 A 
BRANCH  12  19
ATOM     18  C   UNL     1       1.490   7.313  20.764  0.00  0.00    +0.000 C 
ATOM     19  O   UNL     1       2.501   6.382  20.376  0.00  0.00    +0.000 OA
ENDBRANCH  12  19
ENDBRANCH  11  17
ENDBRANCH   1  11
TORSDOF 3
ENDMDL
MODEL 6
REMARK VINA RESULT:      -7.0      1.487      2.455
REMARK  Name = 
REMARK  4 active torsions:
REMARK  status: ('A' for Active; 'I' for Inactive)
REMARK    1  A    between atoms: C_1  and  O_2
REMARK    2  A    between atoms: O_2  and  C_3
REMARK    3  A    between atoms: C_8  and  C_9
REMARK    4  A    between atoms: C_9  and  N_10
REMARK                            x       y       z     vdW  Elec       q    Type
REMARK                         _______ _______ _______ _____ _____    ______ ____
ROOT
ATOM      1  N   UNL     1       5.927   4.263  18.691  0.00  0.00    +0.000 N 
ATOM      2  C   UNL     1       6.315   4.592  17.410  0.00  0.00    +0.000 A 
ATOM      3  C   UNL     1       7.221   5.794  17.246  0.00  0.00    +0.000 A 
ATOM      4  N   UNL     1       7.668   6.168  16.093  0.00  0.00    +0.000 NA
ATOM      5  N   UNL     1       7.251   5.394  15.053  0.00  0.00    +0.000 N 
ATOM      6  C   UNL     1       6.409   4.302  15.136  0.00  0.00    +0.000 A 
ATOM      7  O   UNL     1       6.104   3.708  14.105  0.00  0.00    +0.000 OA
ATOM      8  N   UNL     1       5.949   3.920  16.367  0.00  0.00    +0.000 NA
ATOM      9  H   UNL     1       6.208   4.885  19.437  0.00  0.00    +0.000 HD
ATOM     10  H   UNL     1       7.574   5.644  14.125  0.00  0.00    +0.000 HD
ENDROOT
BRANCH   1  11
ATOM     11  C   UNL     1       4.691   3.541  18.963  0.00  0.00    +0.000 C 
BRANCH  11  17
ATOM     12  C   UNL     1       2.660   4.114  20.410  0.00  0.00    +0.000 A 
ATOM     13  C   UNL     1       1.734   5.054  20.879  0.00  0.00    +0.000 A 
ATOM     14  C   UNL     1       1.722   6.354  20.375  0.00  0.00    +0.000 A 
ATOM     15  C   UNL     1       2.653   6.735  19.416  0.00  0.00    +0.000 A 
ATOM     16  C   UNL     1       3.608   5.820  18.978  0.00  0.00    +0.000 A 
ATOM     17  C   UNL     1       3.627   4.496  19.463  0.00  0.00    +0.000 A 
BRANCH  12  19
ATOM     18  C   UNL     1       1.602   2.456  21.712  0.00  0.00    +0.000 C 
ATOM     19  O   UNL     1       2.705   2.829  20.885  0.00  0.00    +0.000 OA
ENDBRANCH  12  19
ENDBRANCH  11  17
ENDBRANCH   1  11
TORSDOF 3
ENDMDL
MODEL 7
REMARK VINA RESULT:      -7.0      2.680      3.314
REMARK  Name = 
REMARK  4 active torsions:
REMARK  status: ('A' for Active; 'I' for Inactive)
REMARK    1  A    between atoms: C_1  and  O_2
REMARK    2  A    between atoms: O_2  and  C_3
REMARK    3  A    between atoms: C_8  and  C_9
REMARK    4  A    between atoms: C_9  and  N_10
REMARK                            x       y       z     vdW  Elec       q    Type
REMARK                         _______ _______ _______ _____ _____    ______ ____
ROOT
ATOM      1  N   UNL     1       4.154   4.937  17.415  0.00  0.00    +0.000 N 
ATOM      2  C   UNL     1       5.378   5.509  17.691  0.00  0.00    +0.000 A 
ATOM      3  C   UNL     1       5.768   6.734  16.890  0.00  0.00    +0.000 A 
ATOM      4  N   UNL     1       6.877   7.364  17.093  0.00  0.00    +0.000 NA
ATOM      5  N   UNL     1       7.654   6.830  18.075  0.00  0.00    +0.000 N 
ATOM      6  C   UNL     1       7.363   5.706  18.823  0.00  0.00    +0.000 A 
ATOM      7  O   UNL     1       8.171   5.329  19.668  0.00  0.00    +0.000 OA
ATOM      8  N   UNL     1       6.182   5.054  18.596  0.00  0.00    +0.000 NA
ATOM      9  H   UNL     1       3.623   5.322  16.646  0.00  0.00    +0.000 HD
ATOM     10  H   UNL     1       8.536   7.289  18.275  0.00  0.00    +0.000 HD
ENDROOT
BRANCH   1  11
ATOM     11  C   UNL     1       3.886   3.528  17.666  0.00  0.00    +0.000 C 
BRANCH  11  17
ATOM     12  C   UNL     1       3.534   2.786  20.089  0.00  0.00    +0.000 A 
ATOM     13  C   UNL     1       2.721   2.717  21.228  0.00  0.00    +0.000 A 
ATOM     14  C   UNL     1       1.403   3.168  21.191  0.00  0.00    +0.000 A 
ATOM     15  C   UNL     1       0.891   3.717  20.022  0.00  0.00    +0.000 A 
ATOM     16  C   UNL     1       1.705   3.834  18.898  0.00  0.00    +0.000 A 
ATOM     17  C   UNL     1       3.037   3.369  18.910  0.00  0.00    +0.000 A 
BRANCH  12  19
ATOM     18  C   UNL     1       5.106   1.263  20.967  0.00  0.00    +0.000 C 
ATOM     19  O   UNL     1       4.836   2.357  20.090  0.00  0.00    +0.000 OA
ENDBRANCH  12  19
ENDBRANCH  11  17
ENDBRANCH   1  11
TORSDOF 3
ENDMDL
MODEL 8
REMARK VINA RESULT:      -6.9      1.285      2.150
REMARK  Name = 
REMARK  4 active torsions:
REMARK  status: ('A' for Active; 'I' for Inactive)
REMARK    1  A    between atoms: C_1  and  O_2
REMARK    2  A    between atoms: O_2  and  C_3
REMARK    3  A    between atoms: C_8  and  C_9
REMARK    4  A    between atoms: C_9  and  N_10
REMARK                            x       y       z     vdW  Elec       q    Type
REMARK                         _______ _______ _______ _____ _____    ______ ____
ROOT
ATOM      1  N   UNL     1       4.561   4.917  17.622  0.00  0.00    +0.000 N 
ATOM      2  C   UNL     1       5.492   4.985  16.608  0.00  0.00    +0.000 A 
ATOM      3  C   UNL     1       6.660   5.931  16.800  0.00  0.00    +0.000 A 
ATOM      4  N   UNL     1       7.604   6.045  15.925  0.00  0.00    +0.000 NA
ATOM      5  N   UNL     1       7.452   5.251  14.829  0.00  0.00    +0.000 N 
ATOM      6  C   UNL     1       6.401   4.387  14.588  0.00  0.00    +0.000 A 
ATOM      7  O   UNL     1       6.389   3.744  13.542  0.00  0.00    +0.000 OA
ATOM      8  N   UNL     1       5.412   4.278  15.528  0.00  0.00    +0.000 NA
ATOM      9  H   UNL     1       4.671   5.555  18.398  0.00  0.00    +0.000 HD
ATOM     10  H   UNL     1       8.167   5.302  14.113  0.00  0.00    +0.000 HD
ENDROOT
BRANCH   1  11
ATOM     11  C   UNL     1       3.181   4.522  17.378  0.00  0.00    +0.000 C 
BRANCH  11  17
ATOM     12  C   UNL     1       2.178   2.826  19.011  0.00  0.00    +0.000 A 
ATOM     13  C   UNL     1       1.603   2.537  20.254  0.00  0.00    +0.000 A 
ATOM     14  C   UNL     1       1.296   3.559  21.152  0.00  0.00    +0.000 A 
ATOM     15  C   UNL     1       1.584   4.878  20.826  0.00  0.00    +0.000 A 
ATOM     16  C   UNL     1       2.199   5.171  19.610  0.00  0.00    +0.000 A 
ATOM     17  C   UNL     1       2.503   4.154  18.682  0.00  0.00    +0.000 A 
BRANCH  12  19
ATOM     18  C   UNL     1       3.770   1.233  18.312  0.00  0.00    +0.000 C 
ATOM     19  O   UNL     1       2.498   1.848  18.105  0.00  0.00    +0.000 OA
ENDBRANCH  12  19
ENDBRANCH  11  17
ENDBRANCH   1  11
TORSDOF 3
ENDMDL
MODEL 9
REMARK VINA RESULT:      -6.9      1.253      2.194
REMARK  Name = 
REMARK  4 active torsions:
REMARK  status: ('A' for Active; 'I' for Inactive)
REMARK    1  A    between atoms: C_1  and  O_2
REMARK    2  A    between atoms: O_2  and  C_3
REMARK    3  A    between atoms: C_8  and  C_9
REMARK    4  A    between atoms: C_9  and  N_10
REMARK                            x       y       z     vdW  Elec       q    Type
REMARK                         _______ _______ _______ _____ _____    ______ ____
ROOT
ATOM      1  N   UNL     1       5.398   4.083  17.916  0.00  0.00    +0.000 N 
ATOM      2  C   UNL     1       5.965   4.396  16.700  0.00  0.00    +0.000 A 
ATOM      3  C   UNL     1       6.988   5.513  16.677  0.00  0.00    +0.000 A 
ATOM      4  N   UNL     1       7.601   5.863  15.595  0.00  0.00    +0.000 NA
ATOM      5  N   UNL     1       7.245   5.148  14.493  0.00  0.00    +0.000 N 
ATOM      6  C   UNL     1       6.305   4.136  14.446  0.00  0.00    +0.000 A 
ATOM      7  O   UNL     1       6.074   3.590  13.370  0.00  0.00    +0.000 OA
ATOM      8  N   UNL     1       5.668   3.778  15.603  0.00  0.00    +0.000 NA
ATOM      9  H   UNL     1       5.642   4.664  18.707  0.00  0.00    +0.000 HD
ATOM     10  H   UNL     1       7.698   5.383  13.617  0.00  0.00    +0.000 HD
ENDROOT
BRANCH   1  11
ATOM     11  C   UNL     1       4.080   3.473  18.021  0.00  0.00    +0.000 C 
BRANCH  11  17
ATOM     12  C   UNL     1       2.150   3.755  19.678  0.00  0.00    +0.000 A 
ATOM     13  C   UNL     1       1.388   4.574  20.520  0.00  0.00    +0.000 A 
ATOM     14  C   UNL     1       1.601   5.952  20.558  0.00  0.00    +0.000 A 
ATOM     15  C   UNL     1       2.597   6.521  19.775  0.00  0.00    +0.000 A 
ATOM     16  C   UNL     1       3.393   5.708  18.970  0.00  0.00    +0.000 A 
ATOM     17  C   UNL     1       3.182   4.315  18.905  0.00  0.00    +0.000 A 
BRANCH  12  19
ATOM     18  C   UNL     1       0.814   1.977  18.895  0.00  0.00    +0.000 C 
ATOM     19  O   UNL     1       1.972   2.397  19.617  0.00  0.00    +0.000 OA
ENDBRANCH  12  19
ENDBRANCH  11  17
ENDBRANCH   1  11
TORSDOF 3
ENDMDL
