MODEL 1
REMARK VINA RESULT:      -7.7      0.000      0.000
REMARK  Name = 
REMARK  8 active torsions:
REMARK  status: ('A' for Active; 'I' for Inactive)
REMARK    1  A    between atoms: C_1  and  N_2
REMARK    2  A    between atoms: C_6  and  C_7
REMARK    3  A    between atoms: C_9  and  C_10
REMARK    4  A    between atoms: N_11  and  C_12
REMARK    5  A    between atoms: C_12  and  C_13
REMARK    6  A    between atoms: C_21  and  C_22
REMARK    7  A    between atoms: N_25  and  O_26
REMARK    8  A    between atoms: O_26  and  C_27
REMARK                            x       y       z     vdW  Elec       q    Type
REMARK                         _______ _______ _______ _____ _____    ______ ____
ROOT
ATOM      1  C   UNL     1       1.499   8.900  18.733  0.00  0.00    +0.000 A 
ATOM      2  C   UNL     1       2.325   8.752  17.607  0.00  0.00    +0.000 A 
ATOM      3  C   UNL     1       3.159   7.675  17.833  0.00  0.00    +0.000 A 
ATOM      4  C   UNL     1       4.221   7.136  16.945  0.00  0.00    +0.000 C 
ATOM      5  N   UNL     1       2.837   7.150  19.073  0.00  0.00    +0.000 N 
ATOM      6  C   UNL     1       1.847   7.924  19.655  0.00  0.00    +0.000 A 
ATOM      7  C   UNL     1       1.327   7.717  21.043  0.00  0.00    +0.000 C 
ENDROOT
BRANCH   1  13
ATOM      8  C   UNL     1      -1.513  14.143  21.595  0.00  0.00    +0.000 C 
ATOM      9  N   UNL     1      -0.288  14.333  20.824  0.00  0.00    +0.000 NA
ATOM     10  C   UNL     1       0.023  13.414  19.980  0.00  0.00    +0.000 C 
ATOM     11  S   UNL     1      -0.935  12.016  19.555  0.00  0.00    +0.000 S 
ATOM     12  C   UNL     1       0.466  11.169  18.973  0.00  0.00    +0.000 C 
ATOM     13  C   UNL     1       0.452   9.831  18.966  0.00  0.00    +0.000 C 
ATOM     14  C   UNL     1       1.574  12.153  18.741  0.00  0.00    +0.000 C 
ATOM     15  O   UNL     1       2.653  11.900  18.231  0.00  0.00    +0.000 OA
ATOM     16  N   UNL     1       1.185  13.372  19.265  0.00  0.00    +0.000 N 
BRANCH  16  17
ATOM     17  O   UNL     1       2.188  14.324  19.491  0.00  0.00    +0.000 OA
ATOM     18  C   UNL     1       2.113  15.329  18.486  0.00  0.00    +0.000 C 
ENDBRANCH  16  17
ENDBRANCH   1  13
BRANCH   5  19
ATOM     19  C   UNL     1       3.408   5.925  19.640  0.00  0.00    +0.000 C 
BRANCH  19  20
ATOM     20  C   UNL     1       2.489   4.741  19.552  0.00  0.00    +0.000 A 
ATOM     21  C   UNL     1       2.110   4.148  18.345  0.00  0.00    +0.000 A 
ATOM     22  F   UNL     1       2.605   4.583  17.180  0.00  0.00    +0.000 F 
ATOM     23  C   UNL     1       1.220   3.077  18.302  0.00  0.00    +0.000 A 
ATOM     24  C   UNL     1       0.707   2.551  19.483  0.00  0.00    +0.000 A 
ATOM     25  C   UNL     1       1.115   3.085  20.703  0.00  0.00    +0.000 A 
ATOM     26  C   UNL     1       2.002   4.162  20.726  0.00  0.00    +0.000 A 
ATOM     27  F   UNL     1       2.387   4.645  21.917  0.00  0.00    +0.000 F 
ENDBRANCH  19  20
ENDBRANCH   5  19
TORSDOF 4
ENDMDL
MODEL 2
REMARK VINA RESULT:      -7.4      2.353      4.130
REMARK  Name = 
REMARK  8 active torsions:
REMARK  status: ('A' for Active; 'I' for Inactive)
REMARK    1  A    between atoms: C_1  and  N_2
REMARK    2  A    between atoms: C_6  and  C_7
REMARK    3  A    between atoms: C_9  and  C_10
REMARK    4  A    between atoms: N_11  and  C_12
REMARK    5  A    between atoms: C_12  and  C_13
REMARK    6  A    between atoms: C_21  and  C_22
REMARK    7  A    between atoms: N_25  and  O_26
REMARK    8  A    between atoms: O_26  and  C_27
REMARK                            x       y       z     vdW  Elec       q    Type
REMARK                         _______ _______ _______ _____ _____    ______ ____
ROOT
ATOM      1  C   UNL     1       1.555   8.401  20.200  0.00  0.00    +0.000 A 
ATOM      2  C   UNL     1       1.355   7.246  20.974  0.00  0.00    +0.000 A 
ATOM      3  C   UNL     1       1.804   6.164  20.243  0.00  0.00    +0.000 A 
ATOM      4  C   UNL     1       1.787   4.729  20.626  0.00  0.00    +0.000 C 
ATOM      5  N   UNL     1       2.296   6.646  19.043  0.00  0.00    +0.000 N 
ATOM      6  C   UNL     1       2.107   8.017  18.987  0.00  0.00    +0.000 A 
ATOM      7  C   UNL     1       2.420   8.860  17.790  0.00  0.00    +0.000 C 
ENDROOT
BRANCH   1  13
ATOM      8  C   UNL     1       0.481  14.892  18.994  0.00  0.00    +0.000 C 
ATOM      9  N   UNL     1      -0.453  13.890  18.490  0.00  0.00    +0.000 NA
ATOM     10  C   UNL     1      -0.444  12.739  19.064  0.00  0.00    +0.000 C 
ATOM     11  S   UNL     1       0.474  12.283  20.478  0.00  0.00    +0.000 S 
ATOM     12  C   UNL     1       0.357  10.597  20.073  0.00  0.00    +0.000 C 
ATOM     13  C   UNL     1       1.297   9.759  20.525  0.00  0.00    +0.000 C 
ATOM     14  C   UNL     1      -0.746  10.407  19.074  0.00  0.00    +0.000 C 
ATOM     15  O   UNL     1      -1.159   9.333  18.668  0.00  0.00    +0.000 OA
ATOM     16  N   UNL     1      -1.163  11.655  18.649  0.00  0.00    +0.000 N 
BRANCH  16  17
ATOM     17  O   UNL     1      -1.911  11.715  17.466  0.00  0.00    +0.000 OA
ATOM     18  C   UNL     1      -3.295  11.636  17.785  0.00  0.00    +0.000 C 
ENDBRANCH  16  17
ENDBRANCH   1  13
BRANCH   5  19
ATOM     19  C   UNL     1       2.976   5.836  18.028  0.00  0.00    +0.000 C 
BRANCH  19  20
ATOM     20  C   UNL     1       4.473   5.928  18.093  0.00  0.00    +0.000 A 
ATOM     21  C   UNL     1       5.240   5.316  19.086  0.00  0.00    +0.000 A 
ATOM     22  F   UNL     1       4.668   4.550  20.023  0.00  0.00    +0.000 F 
ATOM     23  C   UNL     1       6.625   5.462  19.138  0.00  0.00    +0.000 A 
ATOM     24  C   UNL     1       7.282   6.209  18.165  0.00  0.00    +0.000 A 
ATOM     25  C   UNL     1       6.547   6.780  17.130  0.00  0.00    +0.000 A 
ATOM     26  C   UNL     1       5.160   6.629  17.099  0.00  0.00    +0.000 A 
ATOM     27  F   UNL     1       4.482   7.179  16.081  0.00  0.00    +0.000 F 
ENDBRANCH  19  20
ENDBRANCH   5  19
TORSDOF 4
ENDMDL
MODEL 3
REMARK VINA RESULT:      -7.4      0.697      1.511
REMARK  Name = 
REMARK  8 active torsions:
REMARK  status: ('A' for Active; 'I' for Inactive)
REMARK    1  A    between atoms: C_1  and  N_2
REMARK    2  A    between atoms: C_6  and  C_7
REMARK    3  A    between atoms: C_9  and  C_10
REMARK    4  A    between atoms: N_11  and  C_12
REMARK    5  A    between atoms: C_12  and  C_13
REMARK    6  A    between atoms: C_21  and  C_22
REMARK    7  A    between atoms: N_25  and  O_26
REMARK    8  A    between atoms: O_26  and  C_27
REMARK                            x       y       z     vdW  Elec       q    Type
REMARK                         _______ _______ _______ _____ _____    ______ ____
ROOT
ATOM      1  C   UNL     1       1.497   8.892  18.755  0.00  0.00    +0.000 A 
ATOM      2  C   UNL     1       2.282   8.674  17.612  0.00  0.00    +0.000 A 
ATOM      3  C   UNL     1       3.089   7.580  17.855  0.00  0.00    +0.000 A 
ATOM      4  C   UNL     1       4.106   6.973  16.957  0.00  0.00    +0.000 C 
ATOM      5  N   UNL     1       2.791   7.115  19.124  0.00  0.00    +0.000 N 
ATOM      6  C   UNL     1       1.844   7.942  19.705  0.00  0.00    +0.000 A 
ATOM      7  C   UNL     1       1.363   7.807  21.116  0.00  0.00    +0.000 C 
ENDROOT
BRANCH   1  13
ATOM      8  C   UNL     1      -1.285  14.301  21.538  0.00  0.00    +0.000 C 
ATOM      9  N   UNL     1      -0.068  14.431  20.744  0.00  0.00    +0.000 NA
ATOM     10  C   UNL     1       0.198  13.482  19.917  0.00  0.00    +0.000 C 
ATOM     11  S   UNL     1      -0.815  12.109  19.541  0.00  0.00    +0.000 S 
ATOM     12  C   UNL     1       0.546  11.200  18.957  0.00  0.00    +0.000 C 
ATOM     13  C   UNL     1       0.487   9.864  18.982  0.00  0.00    +0.000 C 
ATOM     14  C   UNL     1       1.684  12.139  18.685  0.00  0.00    +0.000 C 
ATOM     15  O   UNL     1       2.745  11.837  18.164  0.00  0.00    +0.000 OA
ATOM     16  N   UNL     1       1.346  13.383  19.186  0.00  0.00    +0.000 N 
BRANCH  16  17
ATOM     17  O   UNL     1       2.385  14.305  19.373  0.00  0.00    +0.000 OA
ATOM     18  C   UNL     1       2.366  15.252  18.312  0.00  0.00    +0.000 C 
ENDBRANCH  16  17
ENDBRANCH   1  13
BRANCH   5  19
ATOM     19  C   UNL     1       3.343   5.896  19.723  0.00  0.00    +0.000 C 
BRANCH  19  20
ATOM     20  C   UNL     1       2.607   4.649  19.325  0.00  0.00    +0.000 A 
ATOM     21  C   UNL     1       1.387   4.264  19.884  0.00  0.00    +0.000 A 
ATOM     22  F   UNL     1       0.769   5.035  20.786  0.00  0.00    +0.000 F 
ATOM     23  C   UNL     1       0.756   3.076  19.519  0.00  0.00    +0.000 A 
ATOM     24  C   UNL     1       1.327   2.254  18.552  0.00  0.00    +0.000 A 
ATOM     25  C   UNL     1       2.513   2.645  17.937  0.00  0.00    +0.000 A 
ATOM     26  C   UNL     1       3.133   3.834  18.320  0.00  0.00    +0.000 A 
ATOM     27  F   UNL     1       4.267   4.190  17.698  0.00  0.00    +0.000 F 
ENDBRANCH  19  20
ENDBRANCH   5  19
TORSDOF 4
ENDMDL
MODEL 4
REMARK VINA RESULT:      -7.2      3.040      4.587
REMARK  Name = 
REMARK  8 active torsions:
REMARK  status: ('A' for Active; 'I' for Inactive)
REMARK    1  A    between atoms: C_1  and  N_2
REMARK    2  A    between atoms: C_6  and  C_7
REMARK    3  A    between atoms: C_9  and  C_10
REMARK    4  A    between atoms: N_11  and  C_12
REMARK    5  A    between atoms: C_12  and  C_13
REMARK    6  A    between atoms: C_21  and  C_22
REMARK    7  A    between atoms: N_25  and  O_26
REMARK    8  A    between atoms: O_26  and  C_27
REMARK                            x       y       z     vdW  Elec       q    Type
REMARK                         _______ _______ _______ _____ _____    ______ ____
ROOT
ATOM      1  C   UNL     1       2.533   7.018  18.833  0.00  0.00    +0.000 A 
ATOM      2  C   UNL     1       1.992   6.001  19.636  0.00  0.00    +0.000 A 
ATOM      3  C   UNL     1       2.902   4.963  19.674  0.00  0.00    +0.000 A 
ATOM      4  C   UNL     1       2.776   3.659  20.375  0.00  0.00    +0.000 C 
ATOM      5  N   UNL     1       4.000   5.343  18.922  0.00  0.00    +0.000 N 
ATOM      6  C   UNL     1       3.765   6.587  18.363  0.00  0.00    +0.000 A 
ATOM      7  C   UNL     1       4.691   7.266  17.402  0.00  0.00    +0.000 C 
ENDROOT
BRANCH   1  13
ATOM      8  C   UNL     1      -2.141  11.790  18.479  0.00  0.00    +0.000 C 
ATOM      9  N   UNL     1      -1.714  11.279  19.778  0.00  0.00    +0.000 NA
ATOM     10  C   UNL     1      -0.573  10.689  19.829  0.00  0.00    +0.000 C 
ATOM     11  S   UNL     1       0.591  10.547  18.535  0.00  0.00    +0.000 S 
ATOM     12  C   UNL     1       1.341   9.173  19.290  0.00  0.00    +0.000 C 
ATOM     13  C   UNL     1       2.002   8.298  18.524  0.00  0.00    +0.000 C 
ATOM     14  C   UNL     1       0.928   9.119  20.731  0.00  0.00    +0.000 C 
ATOM     15  O   UNL     1       1.364   8.343  21.565  0.00  0.00    +0.000 OA
ATOM     16  N   UNL     1      -0.074  10.051  20.929  0.00  0.00    +0.000 N 
BRANCH  16  17
ATOM     17  O   UNL     1      -0.854   9.921  22.086  0.00  0.00    +0.000 OA
ATOM     18  C   UNL     1      -0.745  11.111  22.858  0.00  0.00    +0.000 C 
ENDBRANCH  16  17
ENDBRANCH   1  13
BRANCH   5  19
ATOM     19  C   UNL     1       5.242   4.573  18.802  0.00  0.00    +0.000 C 
BRANCH  19  20
ATOM     20  C   UNL     1       5.742   4.461  17.391  0.00  0.00    +0.000 A 
ATOM     21  C   UNL     1       7.025   4.845  16.996  0.00  0.00    +0.000 A 
ATOM     22  F   UNL     1       7.915   5.293  17.889  0.00  0.00    +0.000 F 
ATOM     23  C   UNL     1       7.438   4.767  15.667  0.00  0.00    +0.000 A 
ATOM     24  C   UNL     1       6.572   4.267  14.698  0.00  0.00    +0.000 A 
ATOM     25  C   UNL     1       5.308   3.822  15.076  0.00  0.00    +0.000 A 
ATOM     26  C   UNL     1       4.910   3.915  16.410  0.00  0.00    +0.000 A 
ATOM     27  F   UNL     1       3.692   3.464  16.745  0.00  0.00    +0.000 F 
ENDBRANCH  19  20
ENDBRANCH   5  19
TORSDOF 4
ENDMDL
MODEL 5
REMARK VINA RESULT:      -7.2      2.342      3.868
REMARK  Name = 
REMARK  8 active torsions:
REMARK  status: ('A' for Active; 'I' for Inactive)
REMARK    1  A    between atoms: C_1  and  N_2
REMARK    2  A    between atoms: C_6  and  C_7
REMARK    3  A    between atoms: C_9  and  C_10
REMARK    4  A    between atoms: N_11  and  C_12
REMARK    5  A    between atoms: C_12  and  C_13
REMARK    6  A    between atoms: C_21  and  C_22
REMARK    7  A    between atoms: N_25  and  O_26
REMARK    8  A    between atoms: O_26  and  C_27
REMARK                            x       y       z     vdW  Elec       q    Type
REMARK                         _______ _______ _______ _____ _____    ______ ____
ROOT
ATOM      1  C   UNL     1       1.571   8.353  20.183  0.00  0.00    +0.000 A 
ATOM      2  C   UNL     1       1.343   7.206  20.960  0.00  0.00    +0.000 A 
ATOM      3  C   UNL     1       1.776   6.112  20.236  0.00  0.00    +0.000 A 
ATOM      4  C   UNL     1       1.729   4.679  20.625  0.00  0.00    +0.000 C 
ATOM      5  N   UNL     1       2.283   6.579  19.036  0.00  0.00    +0.000 N 
ATOM      6  C   UNL     1       2.121   7.953  18.974  0.00  0.00    +0.000 A 
ATOM      7  C   UNL     1       2.457   8.785  17.776  0.00  0.00    +0.000 C 
ENDROOT
BRANCH   1  13
ATOM      8  C   UNL     1       0.555  14.847  18.940  0.00  0.00    +0.000 C 
ATOM      9  N   UNL     1      -0.403  13.852  18.466  0.00  0.00    +0.000 NA
ATOM     10  C   UNL     1      -0.397  12.707  19.050  0.00  0.00    +0.000 C 
ATOM     11  S   UNL     1       0.546  12.251  20.448  0.00  0.00    +0.000 S 
ATOM     12  C   UNL     1       0.399  10.563  20.061  0.00  0.00    +0.000 C 
ATOM     13  C   UNL     1       1.337   9.717  20.501  0.00  0.00    +0.000 C 
ATOM     14  C   UNL     1      -0.728  10.379  19.088  0.00  0.00    +0.000 C 
ATOM     15  O   UNL     1      -1.164   9.307  18.701  0.00  0.00    +0.000 OA
ATOM     16  N   UNL     1      -1.138  11.629  18.660  0.00  0.00    +0.000 N 
BRANCH  16  17
ATOM     17  O   UNL     1      -1.912  11.687  17.494  0.00  0.00    +0.000 OA
ATOM     18  C   UNL     1      -3.289  11.635  17.844  0.00  0.00    +0.000 C 
ENDBRANCH  16  17
ENDBRANCH   1  13
BRANCH   5  19
ATOM     19  C   UNL     1       2.953   5.751  18.029  0.00  0.00    +0.000 C 
BRANCH  19  20
ATOM     20  C   UNL     1       4.446   5.904  18.025  0.00  0.00    +0.000 A 
ATOM     21  C   UNL     1       5.147   6.593  17.034  0.00  0.00    +0.000 A 
ATOM     22  F   UNL     1       4.501   7.216  16.040  0.00  0.00    +0.000 F 
ATOM     23  C   UNL     1       6.538   6.676  17.042  0.00  0.00    +0.000 A 
ATOM     24  C   UNL     1       7.264   6.088  18.073  0.00  0.00    +0.000 A 
ATOM     25  C   UNL     1       6.585   5.445  19.105  0.00  0.00    +0.000 A 
ATOM     26  C   UNL     1       5.192   5.367  19.076  0.00  0.00    +0.000 A 
ATOM     27  F   UNL     1       4.568   4.754  20.093  0.00  0.00    +0.000 F 
ENDBRANCH  19  20
ENDBRANCH   5  19
TORSDOF 4
ENDMDL
MODEL 6
REMARK VINA RESULT:      -7.2      1.281      1.340
REMARK  Name = 
REMARK  8 active torsions:
REMARK  status: ('A' for Active; 'I' for Inactive)
REMARK    1  A    between atoms: C_1  and  N_2
REMARK    2  A    between atoms: C_6  and  C_7
REMARK    3  A    between atoms: C_9  and  C_10
REMARK    4  A    between atoms: N_11  and  C_12
REMARK    5  A    between atoms: C_12  and  C_13
REMARK    6  A    between atoms: C_21  and  C_22
REMARK    7  A    between atoms: N_25  and  O_26
REMARK    8  A    between atoms: O_26  and  C_27
REMARK                            x       y       z     vdW  Elec       q    Type
REMARK                         _______ _______ _______ _____ _____    ______ ____
ROOT
ATOM      1  C   UNL     1       1.008   9.236  19.130  0.00  0.00    +0.000 A 
ATOM      2  C   UNL     1       1.719   9.207  17.920  0.00  0.00    +0.000 A 
ATOM      3  C   UNL     1       2.633   8.174  17.991  0.00  0.00    +0.000 A 
ATOM      4  C   UNL     1       3.626   7.757  16.967  0.00  0.00    +0.000 C 
ATOM      5  N   UNL     1       2.473   7.560  19.221  0.00  0.00    +0.000 N 
ATOM      6  C   UNL     1       1.507   8.233  19.948  0.00  0.00    +0.000 A 
ATOM      7  C   UNL     1       1.148   7.914  21.366  0.00  0.00    +0.000 C 
ENDROOT
BRANCH   1  13
ATOM      8  C   UNL     1      -2.436  13.244  23.231  0.00  0.00    +0.000 C 
ATOM      9  N   UNL     1      -1.098  13.624  22.790  0.00  0.00    +0.000 NA
ATOM     10  C   UNL     1      -0.650  13.061  21.724  0.00  0.00    +0.000 C 
ATOM     11  S   UNL     1      -1.524  11.984  20.663  0.00  0.00    +0.000 S 
ATOM     12  C   UNL     1      -0.047  11.320  20.034  0.00  0.00    +0.000 C 
ATOM     13  C   UNL     1      -0.061  10.083  19.526  0.00  0.00    +0.000 C 
ATOM     14  C   UNL     1       1.087  12.246  20.364  0.00  0.00    +0.000 C 
ATOM     15  O   UNL     1       2.236  12.128  19.973  0.00  0.00    +0.000 OA
ATOM     16  N   UNL     1       0.617  13.209  21.238  0.00  0.00    +0.000 N 
BRANCH  16  17
ATOM     17  O   UNL     1       1.569  13.944  21.957  0.00  0.00    +0.000 OA
ATOM     18  C   UNL     1       1.736  15.218  21.346  0.00  0.00    +0.000 C 
ENDBRANCH  16  17
ENDBRANCH   1  13
BRANCH   5  19
ATOM     19  C   UNL     1       3.171   6.343  19.648  0.00  0.00    +0.000 C 
BRANCH  19  20
ATOM     20  C   UNL     1       2.412   5.083  19.349  0.00  0.00    +0.000 A 
ATOM     21  C   UNL     1       2.404   4.468  18.095  0.00  0.00    +0.000 A 
ATOM     22  F   UNL     1       3.135   4.954  17.085  0.00  0.00    +0.000 F 
ATOM     23  C   UNL     1       1.651   3.322  17.845  0.00  0.00    +0.000 A 
ATOM     24  C   UNL     1       0.905   2.743  18.867  0.00  0.00    +0.000 A 
ATOM     25  C   UNL     1       0.944   3.302  20.141  0.00  0.00    +0.000 A 
ATOM     26  C   UNL     1       1.698   4.454  20.371  0.00  0.00    +0.000 A 
ATOM     27  F   UNL     1       1.726   4.960  21.613  0.00  0.00    +0.000 F 
ENDBRANCH  19  20
ENDBRANCH   5  19
TORSDOF 4
ENDMDL
MODEL 7
REMARK VINA RESULT:      -7.2      3.023      4.532
REMARK  Name = 
REMARK  8 active torsions:
REMARK  status: ('A' for Active; 'I' for Inactive)
REMARK    1  A    between atoms: C_1  and  N_2
REMARK    2  A    between atoms: C_6  and  C_7
REMARK    3  A    between atoms: C_9  and  C_10
REMARK    4  A    between atoms: N_11  and  C_12
REMARK    5  A    between atoms: C_12  and  C_13
REMARK    6  A    between atoms: C_21  and  C_22
REMARK    7  A    between atoms: N_25  and  O_26
REMARK    8  A    between atoms: O_26  and  C_27
REMARK                            x       y       z     vdW  Elec       q    Type
REMARK                         _______ _______ _______ _____ _____    ______ ____
ROOT
ATOM      1  C   UNL     1       2.544   7.109  18.798  0.00  0.00    +0.000 A 
ATOM      2  C   UNL     1       2.043   6.096  19.632  0.00  0.00    +0.000 A 
ATOM      3  C   UNL     1       2.964   5.067  19.647  0.00  0.00    +0.000 A 
ATOM      4  C   UNL     1       2.878   3.770  20.366  0.00  0.00    +0.000 C 
ATOM      5  N   UNL     1       4.030   5.449  18.851  0.00  0.00    +0.000 N 
ATOM      6  C   UNL     1       3.762   6.686  18.288  0.00  0.00    +0.000 A 
ATOM      7  C   UNL     1       4.645   7.362  17.286  0.00  0.00    +0.000 C 
ENDROOT
BRANCH   1  13
ATOM      8  C   UNL     1      -2.219  11.795  18.468  0.00  0.00    +0.000 C 
ATOM      9  N   UNL     1      -1.781  11.286  19.764  0.00  0.00    +0.000 NA
ATOM     10  C   UNL     1      -0.629  10.717  19.813  0.00  0.00    +0.000 C 
ATOM     11  S   UNL     1       0.536  10.603  18.517  0.00  0.00    +0.000 S 
ATOM     12  C   UNL     1       1.312   9.240  19.265  0.00  0.00    +0.000 C 
ATOM     13  C   UNL     1       1.989   8.381  18.495  0.00  0.00    +0.000 C 
ATOM     14  C   UNL     1       0.902   9.171  20.706  0.00  0.00    +0.000 C 
ATOM     15  O   UNL     1       1.353   8.400  21.537  0.00  0.00    +0.000 OA
ATOM     16  N   UNL     1      -0.117  10.084  20.909  0.00  0.00    +0.000 N 
BRANCH  16  17
ATOM     17  O   UNL     1      -0.894   9.935  22.065  0.00  0.00    +0.000 OA
ATOM     18  C   UNL     1      -0.761  11.100  22.870  0.00  0.00    +0.000 C 
ENDBRANCH  16  17
ENDBRANCH   1  13
BRANCH   5  19
ATOM     19  C   UNL     1       5.275   4.691  18.693  0.00  0.00    +0.000 C 
BRANCH  19  20
ATOM     20  C   UNL     1       5.704   4.537  17.263  0.00  0.00    +0.000 A 
ATOM     21  C   UNL     1       4.885   4.004  16.266  0.00  0.00    +0.000 A 
ATOM     22  F   UNL     1       3.623   3.645  16.531  0.00  0.00    +0.000 F 
ATOM     23  C   UNL     1       5.336   3.837  14.958  0.00  0.00    +0.000 A 
ATOM     24  C   UNL     1       6.623   4.233  14.610  0.00  0.00    +0.000 A 
ATOM     25  C   UNL     1       7.440   4.822  15.572  0.00  0.00    +0.000 A 
ATOM     26  C   UNL     1       6.974   4.975  16.878  0.00  0.00    +0.000 A 
ATOM     27  F   UNL     1       7.779   5.560  17.777  0.00  0.00    +0.000 F 
ENDBRANCH  19  20
ENDBRANCH   5  19
TORSDOF 4
ENDMDL
MODEL 8
REMARK VINA RESULT:      -7.0      4.094      8.603
REMARK  Name = 
REMARK  8 active torsions:
REMARK  status: ('A' for Active; 'I' for Inactive)
REMARK    1  A    between atoms: C_1  and  N_2
REMARK    2  A    between atoms: C_6  and  C_7
REMARK    3  A    between atoms: C_9  and  C_10
REMARK    4  A    between atoms: N_11  and  C_12
REMARK    5  A    between atoms: C_12  and  C_13
REMARK    6  A    between atoms: C_21  and  C_22
REMARK    7  A    between atoms: N_25  and  O_26
REMARK    8  A    between atoms: O_26  and  C_27
REMARK                            x       y       z     vdW  Elec       q    Type
REMARK                         _______ _______ _______ _____ _____    ______ ____
ROOT
ATOM      1  C   UNL     1       1.472   8.621  20.077  0.00  0.00    +0.000 A 
ATOM      2  C   UNL     1       1.374   8.458  21.469  0.00  0.00    +0.000 A 
ATOM      3  C   UNL     1       0.391   9.313  21.926  0.00  0.00    +0.000 A 
ATOM      4  C   UNL     1      -0.066   9.520  23.325  0.00  0.00    +0.000 C 
ATOM      5  N   UNL     1      -0.127   9.980  20.829  0.00  0.00    +0.000 N 
ATOM      6  C   UNL     1       0.562   9.594  19.692  0.00  0.00    +0.000 A 
ATOM      7  C   UNL     1       0.345  10.190  18.336  0.00  0.00    +0.000 C 
ENDROOT
BRANCH   1  13
ATOM      8  C   UNL     1       6.420   4.579  18.097  0.00  0.00    +0.000 C 
ATOM      9  N   UNL     1       5.305   4.045  18.873  0.00  0.00    +0.000 NA
ATOM     10  C   UNL     1       4.216   4.729  18.882  0.00  0.00    +0.000 C 
ATOM     11  S   UNL     1       3.877   6.168  17.953  0.00  0.00    +0.000 S 
ATOM     12  C   UNL     1       2.618   6.644  19.053  0.00  0.00    +0.000 C 
ATOM     13  C   UNL     1       2.302   7.940  19.148  0.00  0.00    +0.000 C 
ATOM     14  C   UNL     1       2.217   5.460  19.881  0.00  0.00    +0.000 C 
ATOM     15  O   UNL     1       1.286   5.428  20.669  0.00  0.00    +0.000 OA
ATOM     16  N   UNL     1       3.121   4.441  19.645  0.00  0.00    +0.000 N 
BRANCH  16  17
ATOM     17  O   UNL     1       3.160   3.388  20.569  0.00  0.00    +0.000 OA
ATOM     18  C   UNL     1       2.397   2.297  20.068  0.00  0.00    +0.000 C 
ENDBRANCH  16  17
ENDBRANCH   1  13
BRANCH   5  19
ATOM     19  C   UNL     1      -1.273  10.893  20.866  0.00  0.00    +0.000 C 
BRANCH  19  20
ATOM     20  C   UNL     1      -0.983  12.188  21.567  0.00  0.00    +0.000 A 
ATOM     21  C   UNL     1      -0.032  13.109  21.123  0.00  0.00    +0.000 A 
ATOM     22  F   UNL     1       0.648  12.902  19.988  0.00  0.00    +0.000 F 
ATOM     23  C   UNL     1       0.239  14.281  21.826  0.00  0.00    +0.000 A 
ATOM     24  C   UNL     1      -0.467  14.573  22.989  0.00  0.00    +0.000 A 
ATOM     25  C   UNL     1      -1.462  13.701  23.421  0.00  0.00    +0.000 A 
ATOM     26  C   UNL     1      -1.715  12.529  22.707  0.00  0.00    +0.000 A 
ATOM     27  F   UNL     1      -2.690  11.716  23.141  0.00  0.00    +0.000 F 
ENDBRANCH  19  20
ENDBRANCH   5  19
TORSDOF 4
ENDMDL
MODEL 9
REMARK VINA RESULT:      -7.0      4.067      8.689
REMARK  Name = 
REMARK  8 active torsions:
REMARK  status: ('A' for Active; 'I' for Inactive)
REMARK    1  A    between atoms: C_1  and  N_2
REMARK    2  A    between atoms: C_6  and  C_7
REMARK    3  A    between atoms: C_9  and  C_10
REMARK    4  A    between atoms: N_11  and  C_12
REMARK    5  A    between atoms: C_12  and  C_13
REMARK    6  A    between atoms: C_21  and  C_22
REMARK    7  A    between atoms: N_25  and  O_26
REMARK    8  A    between atoms: O_26  and  C_27
REMARK                            x       y       z     vdW  Elec       q    Type
REMARK                         _______ _______ _______ _____ _____    ______ ____
ROOT
ATOM      1  C   UNL     1       1.478   8.614  20.044  0.00  0.00    +0.000 A 
ATOM      2  C   UNL     1       1.375   8.452  21.435  0.00  0.00    +0.000 A 
ATOM      3  C   UNL     1       0.393   9.310  21.890  0.00  0.00    +0.000 A 
ATOM      4  C   UNL     1      -0.068   9.518  23.287  0.00  0.00    +0.000 C 
ATOM      5  N   UNL     1      -0.119   9.978  20.791  0.00  0.00    +0.000 N 
ATOM      6  C   UNL     1       0.572   9.590  19.656  0.00  0.00    +0.000 A 
ATOM      7  C   UNL     1       0.362  10.187  18.299  0.00  0.00    +0.000 C 
ENDROOT
BRANCH   1  13
ATOM      8  C   UNL     1       6.429   4.567  18.081  0.00  0.00    +0.000 C 
ATOM      9  N   UNL     1       5.313   4.035  18.857  0.00  0.00    +0.000 NA
ATOM     10  C   UNL     1       4.224   4.719  18.863  0.00  0.00    +0.000 C 
ATOM     11  S   UNL     1       3.886   6.156  17.930  0.00  0.00    +0.000 S 
ATOM     12  C   UNL     1       2.626   6.635  19.026  0.00  0.00    +0.000 C 
ATOM     13  C   UNL     1       2.309   7.931  19.118  0.00  0.00    +0.000 C 
ATOM     14  C   UNL     1       2.223   5.453  19.857  0.00  0.00    +0.000 C 
ATOM     15  O   UNL     1       1.291   5.422  20.644  0.00  0.00    +0.000 OA
ATOM     16  N   UNL     1       3.127   4.433  19.624  0.00  0.00    +0.000 N 
BRANCH  16  17
ATOM     17  O   UNL     1       3.165   3.383  20.551  0.00  0.00    +0.000 OA
ATOM     18  C   UNL     1       2.402   2.291  20.052  0.00  0.00    +0.000 C 
ENDBRANCH  16  17
ENDBRANCH   1  13
BRANCH   5  19
ATOM     19  C   UNL     1      -1.263  10.894  20.823  0.00  0.00    +0.000 C 
BRANCH  19  20
ATOM     20  C   UNL     1      -1.001  12.149  21.604  0.00  0.00    +0.000 A 
ATOM     21  C   UNL     1      -1.680  12.481  22.778  0.00  0.00    +0.000 A 
ATOM     22  F   UNL     1      -2.583  11.649  23.310  0.00  0.00    +0.000 F 
ATOM     23  C   UNL     1      -1.439  13.678  23.451  0.00  0.00    +0.000 A 
ATOM     24  C   UNL     1      -0.480  14.564  22.973  0.00  0.00    +0.000 A 
ATOM     25  C   UNL     1       0.253  14.229  21.837  0.00  0.00    +0.000 A 
ATOM     26  C   UNL     1      -0.007  13.030  21.173  0.00  0.00    +0.000 A 
ATOM     27  F   UNL     1       0.726  12.730  20.091  0.00  0.00    +0.000 F 
ENDBRANCH  19  20
ENDBRANCH   5  19
TORSDOF 4
ENDMDL
