MODEL 1
REMARK VINA RESULT:      -7.8      0.000      0.000
REMARK  Name = 
REMARK  2 active torsions:
REMARK  status: ('A' for Active; 'I' for Inactive)
REMARK    1  A    between atoms: C_2  and  C_14
REMARK    2  A    between atoms: N_3  and  C_4
REMARK                            x       y       z     vdW  Elec       q    Type
REMARK                         _______ _______ _______ _____ _____    ______ ____
ROOT
ATOM      1  O   UNL     1       1.368   8.975  19.129  0.00  0.00    +0.000 OA
ATOM      2  C   UNL     1       1.201   8.660  20.303  0.00  0.00    +0.000 C 
ATOM      3  N   UNL     1       1.496   7.435  20.881  0.00  0.00    +0.000 N 
ATOM      4  H   UNL     1       1.108   7.238  21.794  0.00  0.00    +0.000 HD
ENDROOT
BRANCH   3   5
ATOM      5  C   UNL     1       2.114   6.353  20.206  0.00  0.00    +0.000 A 
ATOM      6  C   UNL     1       3.102   6.543  19.231  0.00  0.00    +0.000 A 
ATOM      7  C   UNL     1       3.660   5.466  18.545  0.00  0.00    +0.000 A 
ATOM      8  C   UNL     1       3.225   4.175  18.824  0.00  0.00    +0.000 A 
ATOM      9  C   UNL     1       2.260   3.954  19.820  0.00  0.00    +0.000 A 
ATOM     10  C   UNL     1       1.723   5.045  20.526  0.00  0.00    +0.000 A 
ATOM     11  C   UNL     1       1.896   2.521  20.116  0.00  0.00    +0.000 C 
ATOM     12  N   UNL     1       1.689   1.699  18.914  0.00  0.00    +0.000 NA
ATOM     13  C   UNL     1       2.576   2.033  17.784  0.00  0.00    +0.000 C 
ATOM     14  C   UNL     1       3.751   2.972  18.092  0.00  0.00    +0.000 C 
ATOM     15  H   UNL     1       0.726   1.816  18.604  0.00  0.00    +0.000 HD
ENDBRANCH   3   5
BRANCH   2  16
ATOM     16  C   UNL     1       0.554   9.673  21.174  0.00  0.00    +0.000 A 
ATOM     17  C   UNL     1      -0.073   9.211  22.344  0.00  0.00    +0.000 A 
ATOM     18  C   UNL     1      -0.784  10.094  23.157  0.00  0.00    +0.000 A 
ATOM     19  C   UNL     1      -0.871  11.430  22.790  0.00  0.00    +0.000 A 
ATOM     20  F   UNL     1      -1.573  12.276  23.555  0.00  0.00    +0.000 F 
ATOM     21  C   UNL     1      -0.256  11.901  21.632  0.00  0.00    +0.000 A 
ATOM     22  C   UNL     1       0.463  11.021  20.816  0.00  0.00    +0.000 A 
ENDBRANCH   2  16
TORSDOF 2
ENDMDL
MODEL 2
REMARK VINA RESULT:      -7.8      2.421      3.212
REMARK  Name = 
REMARK  2 active torsions:
REMARK  status: ('A' for Active; 'I' for Inactive)
REMARK    1  A    between atoms: C_2  and  C_14
REMARK    2  A    between atoms: N_3  and  C_4
REMARK                            x       y       z     vdW  Elec       q    Type
REMARK                         _______ _______ _______ _____ _____    ______ ____
ROOT
ATOM      1  O   UNL     1       1.632   9.021  18.085  0.00  0.00    +0.000 OA
ATOM      2  C   UNL     1       1.682   8.496  19.193  0.00  0.00    +0.000 C 
ATOM      3  N   UNL     1       2.266   7.277  19.506  0.00  0.00    +0.000 N 
ATOM      4  H   UNL     1       2.045   6.864  20.402  0.00  0.00    +0.000 HD
ENDROOT
BRANCH   3   5
ATOM      5  C   UNL     1       2.973   6.462  18.587  0.00  0.00    +0.000 A 
ATOM      6  C   UNL     1       2.614   5.132  18.334  0.00  0.00    +0.000 A 
ATOM      7  C   UNL     1       3.355   4.335  17.464  0.00  0.00    +0.000 A 
ATOM      8  C   UNL     1       4.478   4.863  16.837  0.00  0.00    +0.000 A 
ATOM      9  C   UNL     1       4.841   6.203  17.047  0.00  0.00    +0.000 A 
ATOM     10  C   UNL     1       4.072   7.007  17.906  0.00  0.00    +0.000 A 
ATOM     11  C   UNL     1       6.027   6.722  16.274  0.00  0.00    +0.000 C 
ATOM     12  N   UNL     1       7.176   5.805  16.261  0.00  0.00    +0.000 NA
ATOM     13  C   UNL     1       6.818   4.375  16.220  0.00  0.00    +0.000 C 
ATOM     14  C   UNL     1       5.348   4.047  15.922  0.00  0.00    +0.000 C 
ATOM     15  H   UNL     1       7.730   5.967  17.101  0.00  0.00    +0.000 HD
ENDBRANCH   3   5
BRANCH   2  16
ATOM     16  C   UNL     1       0.987   9.207  20.294  0.00  0.00    +0.000 A 
ATOM     17  C   UNL     1       1.172   8.715  21.599  0.00  0.00    +0.000 A 
ATOM     18  C   UNL     1       0.471   9.273  22.667  0.00  0.00    +0.000 A 
ATOM     19  C   UNL     1      -0.417  10.313  22.425  0.00  0.00    +0.000 A 
ATOM     20  F   UNL     1      -1.109  10.835  23.445  0.00  0.00    +0.000 F 
ATOM     21  C   UNL     1      -0.611  10.809  21.137  0.00  0.00    +0.000 A 
ATOM     22  C   UNL     1       0.093  10.257  20.062  0.00  0.00    +0.000 A 
ENDBRANCH   2  16
TORSDOF 2
ENDMDL
MODEL 3
REMARK VINA RESULT:      -7.7      2.464      3.397
REMARK  Name = 
REMARK  2 active torsions:
REMARK  status: ('A' for Active; 'I' for Inactive)
REMARK    1  A    between atoms: C_2  and  C_14
REMARK    2  A    between atoms: N_3  and  C_4
REMARK                            x       y       z     vdW  Elec       q    Type
REMARK                         _______ _______ _______ _____ _____    ______ ____
ROOT
ATOM      1  O   UNL     1       1.823   8.977  18.170  0.00  0.00    +0.000 OA
ATOM      2  C   UNL     1       1.751   8.352  19.223  0.00  0.00    +0.000 C 
ATOM      3  N   UNL     1       2.245   7.079  19.465  0.00  0.00    +0.000 N 
ATOM      4  H   UNL     1       1.926   6.600  20.297  0.00  0.00    +0.000 HD
ENDROOT
BRANCH   3   5
ATOM      5  C   UNL     1       2.986   6.311  18.533  0.00  0.00    +0.000 A 
ATOM      6  C   UNL     1       2.680   4.973  18.251  0.00  0.00    +0.000 A 
ATOM      7  C   UNL     1       3.455   4.223  17.369  0.00  0.00    +0.000 A 
ATOM      8  C   UNL     1       4.560   4.806  16.760  0.00  0.00    +0.000 A 
ATOM      9  C   UNL     1       4.870   6.155  17.000  0.00  0.00    +0.000 A 
ATOM     10  C   UNL     1       4.067   6.911  17.870  0.00  0.00    +0.000 A 
ATOM     11  C   UNL     1       6.039   6.735  16.244  0.00  0.00    +0.000 C 
ATOM     12  N   UNL     1       7.223   5.863  16.218  0.00  0.00    +0.000 NA
ATOM     13  C   UNL     1       6.920   4.422  16.146  0.00  0.00    +0.000 C 
ATOM     14  C   UNL     1       5.465   4.043  15.833  0.00  0.00    +0.000 C 
ATOM     15  H   UNL     1       7.766   6.028  17.064  0.00  0.00    +0.000 HD
ENDBRANCH   3   5
BRANCH   2  16
ATOM     16  C   UNL     1       1.000   8.999  20.326  0.00  0.00    +0.000 A 
ATOM     17  C   UNL     1       0.196  10.106  19.998  0.00  0.00    +0.000 A 
ATOM     18  C   UNL     1      -0.459  10.821  21.000  0.00  0.00    +0.000 A 
ATOM     19  C   UNL     1      -0.299  10.434  22.324  0.00  0.00    +0.000 A 
ATOM     20  F   UNL     1      -0.907  11.133  23.290  0.00  0.00    +0.000 F 
ATOM     21  C   UNL     1       0.496   9.341  22.663  0.00  0.00    +0.000 A 
ATOM     22  C   UNL     1       1.151   8.615  21.662  0.00  0.00    +0.000 A 
ENDBRANCH   2  16
TORSDOF 2
ENDMDL
MODEL 4
REMARK VINA RESULT:      -7.6      0.284      1.119
REMARK  Name = 
REMARK  2 active torsions:
REMARK  status: ('A' for Active; 'I' for Inactive)
REMARK    1  A    between atoms: C_2  and  C_14
REMARK    2  A    between atoms: N_3  and  C_4
REMARK                            x       y       z     vdW  Elec       q    Type
REMARK                         _______ _______ _______ _____ _____    ______ ____
ROOT
ATOM      1  O   UNL     1       1.508   8.852  19.297  0.00  0.00    +0.000 OA
ATOM      2  C   UNL     1       1.162   8.509  20.423  0.00  0.00    +0.000 C 
ATOM      3  N   UNL     1       1.345   7.261  21.000  0.00  0.00    +0.000 N 
ATOM      4  H   UNL     1       0.821   7.049  21.839  0.00  0.00    +0.000 HD
ENDROOT
BRANCH   3   5
ATOM      5  C   UNL     1       2.037   6.185  20.392  0.00  0.00    +0.000 A 
ATOM      6  C   UNL     1       3.218   6.369  19.662  0.00  0.00    +0.000 A 
ATOM      7  C   UNL     1       3.853   5.302  19.030  0.00  0.00    +0.000 A 
ATOM      8  C   UNL     1       3.304   4.028  19.116  0.00  0.00    +0.000 A 
ATOM      9  C   UNL     1       2.138   3.810  19.869  0.00  0.00    +0.000 A 
ATOM     10  C   UNL     1       1.519   4.888  20.525  0.00  0.00    +0.000 A 
ATOM     11  C   UNL     1       1.647   2.388  19.975  0.00  0.00    +0.000 C 
ATOM     12  N   UNL     1       1.659   1.657  18.700  0.00  0.00    +0.000 NA
ATOM     13  C   UNL     1       2.782   2.000  17.808  0.00  0.00    +0.000 C 
ATOM     14  C   UNL     1       3.912   2.840  18.423  0.00  0.00    +0.000 C 
ATOM     15  H   UNL     1       0.792   1.855  18.204  0.00  0.00    +0.000 HD
ENDBRANCH   3   5
BRANCH   2  16
ATOM     16  C   UNL     1       0.411   9.512  21.219  0.00  0.00    +0.000 A 
ATOM     17  C   UNL     1       0.435  10.843  20.768  0.00  0.00    +0.000 A 
ATOM     18  C   UNL     1      -0.165  11.852  21.521  0.00  0.00    +0.000 A 
ATOM     19  C   UNL     1      -0.777  11.525  22.724  0.00  0.00    +0.000 A 
ATOM     20  F   UNL     1      -1.333  12.495  23.461  0.00  0.00    +0.000 F 
ATOM     21  C   UNL     1      -0.806  10.211  23.184  0.00  0.00    +0.000 A 
ATOM     22  C   UNL     1      -0.210   9.193  22.430  0.00  0.00    +0.000 A 
ENDBRANCH   2  16
TORSDOF 2
ENDMDL
MODEL 5
REMARK VINA RESULT:      -7.5      4.114      8.052
REMARK  Name = 
REMARK  2 active torsions:
REMARK  status: ('A' for Active; 'I' for Inactive)
REMARK    1  A    between atoms: C_2  and  C_14
REMARK    2  A    between atoms: N_3  and  C_4
REMARK                            x       y       z     vdW  Elec       q    Type
REMARK                         _______ _______ _______ _____ _____    ______ ____
ROOT
ATOM      1  O   UNL     1       2.110   5.670  18.558  0.00  0.00    +0.000 OA
ATOM      2  C   UNL     1       2.972   6.426  18.122  0.00  0.00    +0.000 C 
ATOM      3  N   UNL     1       2.939   7.812  18.131  0.00  0.00    +0.000 N 
ATOM      4  H   UNL     1       3.603   8.304  17.547  0.00  0.00    +0.000 HD
ENDROOT
BRANCH   3   5
ATOM      5  C   UNL     1       1.912   8.591  18.720  0.00  0.00    +0.000 A 
ATOM      6  C   UNL     1       1.167   9.526  17.990  0.00  0.00    +0.000 A 
ATOM      7  C   UNL     1       0.196  10.316  18.603  0.00  0.00    +0.000 A 
ATOM      8  C   UNL     1      -0.035  10.183  19.967  0.00  0.00    +0.000 A 
ATOM      9  C   UNL     1       0.675   9.230  20.716  0.00  0.00    +0.000 A 
ATOM     10  C   UNL     1       1.633   8.419  20.084  0.00  0.00    +0.000 A 
ATOM     11  C   UNL     1       0.313   9.095  22.174  0.00  0.00    +0.000 C 
ATOM     12  N   UNL     1       0.156  10.381  22.870  0.00  0.00    +0.000 NA
ATOM     13  C   UNL     1      -0.426  11.456  22.046  0.00  0.00    +0.000 C 
ATOM     14  C   UNL     1      -1.035  11.034  20.701  0.00  0.00    +0.000 C 
ATOM     15  H   UNL     1       1.073  10.691  23.189  0.00  0.00    +0.000 HD
ENDBRANCH   3   5
BRANCH   2  16
ATOM     16  C   UNL     1       4.136   5.788  17.457  0.00  0.00    +0.000 A 
ATOM     17  C   UNL     1       5.198   6.626  17.073  0.00  0.00    +0.000 A 
ATOM     18  C   UNL     1       6.277   6.109  16.357  0.00  0.00    +0.000 A 
ATOM     19  C   UNL     1       6.284   4.762  16.020  0.00  0.00    +0.000 A 
ATOM     20  F   UNL     1       7.307   4.268  15.312  0.00  0.00    +0.000 F 
ATOM     21  C   UNL     1       5.237   3.921  16.392  0.00  0.00    +0.000 A 
ATOM     22  C   UNL     1       4.154   4.433  17.116  0.00  0.00    +0.000 A 
ENDBRANCH   2  16
TORSDOF 2
ENDMDL
MODEL 6
REMARK VINA RESULT:      -7.5      5.835      8.894
REMARK  Name = 
REMARK  2 active torsions:
REMARK  status: ('A' for Active; 'I' for Inactive)
REMARK    1  A    between atoms: C_2  and  C_14
REMARK    2  A    between atoms: N_3  and  C_4
REMARK                            x       y       z     vdW  Elec       q    Type
REMARK                         _______ _______ _______ _____ _____    ______ ____
ROOT
ATOM      1  O   UNL     1       5.259   6.314  15.549  0.00  0.00    +0.000 OA
ATOM      2  C   UNL     1       5.291   5.106  15.341  0.00  0.00    +0.000 C 
ATOM      3  N   UNL     1       4.832   4.108  16.187  0.00  0.00    +0.000 N 
ATOM      4  H   UNL     1       5.117   3.157  15.994  0.00  0.00    +0.000 HD
ENDROOT
BRANCH   3   5
ATOM      5  C   UNL     1       4.176   4.337  17.423  0.00  0.00    +0.000 A 
ATOM      6  C   UNL     1       4.750   5.104  18.445  0.00  0.00    +0.000 A 
ATOM      7  C   UNL     1       4.108   5.273  19.671  0.00  0.00    +0.000 A 
ATOM      8  C   UNL     1       2.878   4.665  19.891  0.00  0.00    +0.000 A 
ATOM      9  C   UNL     1       2.266   3.918  18.871  0.00  0.00    +0.000 A 
ATOM     10  C   UNL     1       2.908   3.775  17.629  0.00  0.00    +0.000 A 
ATOM     11  C   UNL     1       0.898   3.352  19.162  0.00  0.00    +0.000 C 
ATOM     12  N   UNL     1       0.782   2.728  20.488  0.00  0.00    +0.000 NA
ATOM     13  C   UNL     1       1.562   3.393  21.548  0.00  0.00    +0.000 C 
ATOM     14  C   UNL     1       2.151   4.768  21.203  0.00  0.00    +0.000 C 
ATOM     15  H   UNL     1       1.100   1.762  20.421  0.00  0.00    +0.000 HD
ENDBRANCH   3   5
BRANCH   2  16
ATOM     16  C   UNL     1       5.950   4.667  14.086  0.00  0.00    +0.000 A 
ATOM     17  C   UNL     1       5.295   3.686  13.321  0.00  0.00    +0.000 A 
ATOM     18  C   UNL     1       5.904   3.158  12.183  0.00  0.00    +0.000 A 
ATOM     19  C   UNL     1       7.168   3.606  11.822  0.00  0.00    +0.000 A 
ATOM     20  F   UNL     1       7.765   3.083  10.744  0.00  0.00    +0.000 F 
ATOM     21  C   UNL     1       7.830   4.576  12.572  0.00  0.00    +0.000 A 
ATOM     22  C   UNL     1       7.221   5.114  13.711  0.00  0.00    +0.000 A 
ENDBRANCH   2  16
TORSDOF 2
ENDMDL
MODEL 7
REMARK VINA RESULT:      -7.5      5.764      8.824
REMARK  Name = 
REMARK  2 active torsions:
REMARK  status: ('A' for Active; 'I' for Inactive)
REMARK    1  A    between atoms: C_2  and  C_14
REMARK    2  A    between atoms: N_3  and  C_4
REMARK                            x       y       z     vdW  Elec       q    Type
REMARK                         _______ _______ _______ _____ _____    ______ ____
ROOT
ATOM      1  O   UNL     1       6.705   4.226  16.789  0.00  0.00    +0.000 OA
ATOM      2  C   UNL     1       5.878   4.426  15.906  0.00  0.00    +0.000 C 
ATOM      3  N   UNL     1       4.518   4.642  16.078  0.00  0.00    +0.000 N 
ATOM      4  H   UNL     1       3.923   4.572  15.264  0.00  0.00    +0.000 HD
ENDROOT
BRANCH   3   5
ATOM      5  C   UNL     1       3.870   4.736  17.334  0.00  0.00    +0.000 A 
ATOM      6  C   UNL     1       4.118   5.785  18.230  0.00  0.00    +0.000 A 
ATOM      7  C   UNL     1       3.505   5.830  19.481  0.00  0.00    +0.000 A 
ATOM      8  C   UNL     1       2.636   4.812  19.856  0.00  0.00    +0.000 A 
ATOM      9  C   UNL     1       2.345   3.766  18.965  0.00  0.00    +0.000 A 
ATOM     10  C   UNL     1       2.947   3.744  17.695  0.00  0.00    +0.000 A 
ATOM     11  C   UNL     1       1.335   2.741  19.417  0.00  0.00    +0.000 C 
ATOM     12  N   UNL     1       1.528   2.287  20.802  0.00  0.00    +0.000 NA
ATOM     13  C   UNL     1       2.009   3.329  21.727  0.00  0.00    +0.000 C 
ATOM     14  C   UNL     1       1.976   4.774  21.206  0.00  0.00    +0.000 C 
ATOM     15  H   UNL     1       2.209   1.528  20.803  0.00  0.00    +0.000 HD
ENDBRANCH   3   5
BRANCH   2  16
ATOM     16  C   UNL     1       6.373   4.361  14.509  0.00  0.00    +0.000 A 
ATOM     17  C   UNL     1       7.413   5.237  14.151  0.00  0.00    +0.000 A 
ATOM     18  C   UNL     1       7.859   5.298  12.831  0.00  0.00    +0.000 A 
ATOM     19  C   UNL     1       7.256   4.492  11.875  0.00  0.00    +0.000 A 
ATOM     20  F   UNL     1       7.665   4.565  10.603  0.00  0.00    +0.000 F 
ATOM     21  C   UNL     1       6.223   3.621  12.215  0.00  0.00    +0.000 A 
ATOM     22  C   UNL     1       5.775   3.550  13.539  0.00  0.00    +0.000 A 
ENDBRANCH   2  16
TORSDOF 2
ENDMDL
MODEL 8
REMARK VINA RESULT:      -7.4      4.158      7.993
REMARK  Name = 
REMARK  2 active torsions:
REMARK  status: ('A' for Active; 'I' for Inactive)
REMARK    1  A    between atoms: C_2  and  C_14
REMARK    2  A    between atoms: N_3  and  C_4
REMARK                            x       y       z     vdW  Elec       q    Type
REMARK                         _______ _______ _______ _____ _____    ______ ____
ROOT
ATOM      1  O   UNL     1       2.042   5.751  18.134  0.00  0.00    +0.000 OA
ATOM      2  C   UNL     1       2.971   6.522  17.917  0.00  0.00    +0.000 C 
ATOM      3  N   UNL     1       2.980   7.890  18.147  0.00  0.00    +0.000 N 
ATOM      4  H   UNL     1       3.720   8.434  17.722  0.00  0.00    +0.000 HD
ENDROOT
BRANCH   3   5
ATOM      5  C   UNL     1       1.920   8.615  18.745  0.00  0.00    +0.000 A 
ATOM      6  C   UNL     1       1.109   9.496  18.017  0.00  0.00    +0.000 A 
ATOM      7  C   UNL     1       0.104  10.236  18.637  0.00  0.00    +0.000 A 
ATOM      8  C   UNL     1      -0.097  10.108  20.006  0.00  0.00    +0.000 A 
ATOM      9  C   UNL     1       0.680   9.208  20.754  0.00  0.00    +0.000 A 
ATOM     10  C   UNL     1       1.673   8.445  20.115  0.00  0.00    +0.000 A 
ATOM     11  C   UNL     1       0.351   9.071  22.220  0.00  0.00    +0.000 C 
ATOM     12  N   UNL     1       0.132  10.354  22.902  0.00  0.00    +0.000 NA
ATOM     13  C   UNL     1      -0.526  11.383  22.076  0.00  0.00    +0.000 C 
ATOM     14  C   UNL     1      -1.132  10.908  20.747  0.00  0.00    +0.000 C 
ATOM     15  H   UNL     1       1.034  10.721  23.202  0.00  0.00    +0.000 HD
ENDBRANCH   3   5
BRANCH   2  16
ATOM     16  C   UNL     1       4.180   5.942  17.283  0.00  0.00    +0.000 A 
ATOM     17  C   UNL     1       4.161   4.565  16.997  0.00  0.00    +0.000 A 
ATOM     18  C   UNL     1       5.298   3.936  16.492  0.00  0.00    +0.000 A 
ATOM     19  C   UNL     1       6.450   4.683  16.285  0.00  0.00    +0.000 A 
ATOM     20  F   UNL     1       7.550   4.078  15.823  0.00  0.00    +0.000 F 
ATOM     21  C   UNL     1       6.483   6.048  16.566  0.00  0.00    +0.000 A 
ATOM     22  C   UNL     1       5.343   6.686  17.067  0.00  0.00    +0.000 A 
ENDBRANCH   2  16
TORSDOF 2
ENDMDL
MODEL 9
REMARK VINA RESULT:      -7.2      8.680     11.236
REMARK  Name = 
REMARK  2 active torsions:
REMARK  status: ('A' for Active; 'I' for Inactive)
REMARK    1  A    between atoms: C_2  and  C_14
REMARK    2  A    between atoms: N_3  and  C_4
REMARK                            x       y       z     vdW  Elec       q    Type
REMARK                         _______ _______ _______ _____ _____    ______ ____
ROOT
ATOM      1  O   UNL     1       7.613  10.021  17.318  0.00  0.00    +0.000 OA
ATOM      2  C   UNL     1       8.240   9.265  18.053  0.00  0.00    +0.000 C 
ATOM      3  N   UNL     1       9.344   9.590  18.828  0.00  0.00    +0.000 N 
ATOM      4  H   UNL     1       9.893   8.831  19.208  0.00  0.00    +0.000 HD
ENDROOT
BRANCH   3   5
ATOM      5  C   UNL     1       9.889  10.892  18.948  0.00  0.00    +0.000 A 
ATOM      6  C   UNL     1       9.836  11.620  20.144  0.00  0.00    +0.000 A 
ATOM      7  C   UNL     1      10.335  12.919  20.225  0.00  0.00    +0.000 A 
ATOM      8  C   UNL     1      10.888  13.512  19.096  0.00  0.00    +0.000 A 
ATOM      9  C   UNL     1      10.983  12.794  17.894  0.00  0.00    +0.000 A 
ATOM     10  C   UNL     1      10.502  11.474  17.829  0.00  0.00    +0.000 A 
ATOM     11  C   UNL     1      11.664  13.480  16.736  0.00  0.00    +0.000 C 
ATOM     12  N   UNL     1      11.249  14.878  16.546  0.00  0.00    +0.000 NA
ATOM     13  C   UNL     1      10.969  15.609  17.796  0.00  0.00    +0.000 C 
ATOM     14  C   UNL     1      11.403  14.925  19.100  0.00  0.00    +0.000 C 
ATOM     15  H   UNL     1      10.404  14.891  15.978  0.00  0.00    +0.000 HD
ENDBRANCH   3   5
BRANCH   2  16
ATOM     16  C   UNL     1       7.815   7.843  18.057  0.00  0.00    +0.000 A 
ATOM     17  C   UNL     1       6.807   7.468  17.152  0.00  0.00    +0.000 A 
ATOM     18  C   UNL     1       6.291   6.172  17.170  0.00  0.00    +0.000 A 
ATOM     19  C   UNL     1       6.778   5.263  18.100  0.00  0.00    +0.000 A 
ATOM     20  F   UNL     1       6.268   4.026  18.136  0.00  0.00    +0.000 F 
ATOM     21  C   UNL     1       7.775   5.622  19.005  0.00  0.00    +0.000 A 
ATOM     22  C   UNL     1       8.301   6.919  18.987  0.00  0.00    +0.000 A 
ENDBRANCH   2  16
TORSDOF 2
ENDMDL
