MODEL 1
REMARK VINA RESULT:      -7.8      0.000      0.000
REMARK  Name = 
REMARK  9 active torsions:
REMARK  status: ('A' for Active; 'I' for Inactive)
REMARK    1  A    between atoms: C_1  and  C_2
REMARK    2  A    between atoms: C_5  and  C_6
REMARK    3  A    between atoms: C_7  and  S_8
REMARK    4  A    between atoms: S_8  and  C_9
REMARK    5  A    between atoms: C_9  and  C_10
REMARK    6  A    between atoms: N_12  and  C_13
REMARK    7  A    between atoms: C_13  and  C_14
REMARK    8  A    between atoms: C_14  and  C_15
REMARK    9  A    between atoms: C_14  and  N_20
REMARK                            x       y       z     vdW  Elec       q    Type
REMARK                         _______ _______ _______ _____ _____    ______ ____
ROOT
ATOM      1  C   UNL     1       8.092   8.283  18.014  0.00  0.00    +0.000 C 
ATOM      2  O   UNL     1       8.620   7.593  18.906  0.00  0.00    +0.000 OA
ATOM      3  N   UNL     1       7.162   7.728  17.140  0.00  0.00    +0.000 N 
ATOM      4  H   UNL     1       7.106   8.162  16.213  0.00  0.00    +0.000 HD
ENDROOT
BRANCH   1   5
ATOM      5  C   UNL     1       8.404   9.762  17.825  0.00  0.00    +0.000 C 
BRANCH   5   6
ATOM      6  S   UNL     1       9.383  10.414  19.222  0.00  0.00    +0.000 S 
BRANCH   6  13
ATOM      7  C   UNL     1       8.003  15.364  17.807  0.00  0.00    +0.000 C 
ATOM      8  C   UNL     1       9.073  14.395  18.215  0.00  0.00    +0.000 A 
ATOM      9  C   UNL     1      10.398  14.812  18.336  0.00  0.00    +0.000 A 
ATOM     10  C   UNL     1      11.387  13.908  18.714  0.00  0.00    +0.000 A 
ATOM     11  C   UNL     1      11.072  12.570  18.980  0.00  0.00    +0.000 A 
ATOM     12  C   UNL     1      12.192  11.641  19.384  0.00  0.00    +0.000 C 
ATOM     13  C   UNL     1       9.730  12.130  18.863  0.00  0.00    +0.000 A 
ATOM     14  C   UNL     1       8.746  13.053  18.480  0.00  0.00    +0.000 A 
ENDBRANCH   6  13
ENDBRANCH   5   6
ENDBRANCH   1   5
BRANCH   3  15
ATOM     15  C   UNL     1       6.781   6.336  17.270  0.00  0.00    +0.000 C 
BRANCH  15  16
ATOM     16  C   UNL     1       5.572   5.853  16.420  0.00  0.00    +0.000 C 
BRANCH  16  17
ATOM     17  N   UNL     1       4.641   5.016  17.256  0.00  0.00    +0.000 NA
ATOM     18  C   UNL     1       5.355   4.362  18.381  0.00  0.00    +0.000 C 
ATOM     19  C   UNL     1       4.446   3.533  19.291  0.00  0.00    +0.000 C 
ATOM     20  C   UNL     1       3.264   4.353  19.773  0.00  0.00    +0.000 C 
ATOM     21  C   UNL     1       2.533   4.933  18.576  0.00  0.00    +0.000 C 
ATOM     22  C   UNL     1       3.475   5.784  17.725  0.00  0.00    +0.000 C 
ENDBRANCH  16  17
BRANCH  16  23
ATOM     23  C   UNL     1       6.043   5.168  15.140  0.00  0.00    +0.000 A 
ATOM     24  C   UNL     1       5.497   4.216  14.283  0.00  0.00    +0.000 A 
ATOM     25  C   UNL     1       6.450   3.975  13.270  0.00  0.00    +0.000 A 
ATOM     26  C   UNL     1       7.506   4.819  13.528  0.00  0.00    +0.000 A 
ATOM     27  O   UNL     1       7.266   5.550  14.653  0.00  0.00    +0.000 OA
ENDBRANCH  16  23
ENDBRANCH  15  16
ENDBRANCH   3  15
TORSDOF 7
ENDMDL
MODEL 2
REMARK VINA RESULT:      -7.8      5.743      8.134
REMARK  Name = 
REMARK  9 active torsions:
REMARK  status: ('A' for Active; 'I' for Inactive)
REMARK    1  A    between atoms: C_1  and  C_2
REMARK    2  A    between atoms: C_5  and  C_6
REMARK    3  A    between atoms: C_7  and  S_8
REMARK    4  A    between atoms: S_8  and  C_9
REMARK    5  A    between atoms: C_9  and  C_10
REMARK    6  A    between atoms: N_12  and  C_13
REMARK    7  A    between atoms: C_13  and  C_14
REMARK    8  A    between atoms: C_14  and  C_15
REMARK    9  A    between atoms: C_14  and  N_20
REMARK                            x       y       z     vdW  Elec       q    Type
REMARK                         _______ _______ _______ _____ _____    ______ ____
ROOT
ATOM      1  C   UNL     1       1.992   8.430  18.711  0.00  0.00    +0.000 C 
ATOM      2  O   UNL     1       1.761   8.114  19.893  0.00  0.00    +0.000 OA
ATOM      3  N   UNL     1       2.878   7.689  17.935  0.00  0.00    +0.000 N 
ATOM      4  H   UNL     1       3.355   8.203  17.188  0.00  0.00    +0.000 HD
ENDROOT
BRANCH   1   5
ATOM      5  C   UNL     1       1.323   9.618  18.032  0.00  0.00    +0.000 C 
BRANCH   5   6
ATOM      6  S   UNL     1       0.237  10.517  19.193  0.00  0.00    +0.000 S 
BRANCH   6  13
ATOM      7  C   UNL     1      -3.199   9.795  15.182  0.00  0.00    +0.000 C 
ATOM      8  C   UNL     1      -2.890  10.408  16.516  0.00  0.00    +0.000 A 
ATOM      9  C   UNL     1      -3.838  11.195  17.170  0.00  0.00    +0.000 A 
ATOM     10  C   UNL     1      -3.546  11.763  18.407  0.00  0.00    +0.000 A 
ATOM     11  C   UNL     1      -2.303  11.554  19.016  0.00  0.00    +0.000 A 
ATOM     12  C   UNL     1      -2.049  12.200  20.357  0.00  0.00    +0.000 C 
ATOM     13  C   UNL     1      -1.329  10.756  18.365  0.00  0.00    +0.000 A 
ATOM     14  C   UNL     1      -1.639  10.193  17.120  0.00  0.00    +0.000 A 
ENDBRANCH   6  13
ENDBRANCH   5   6
ENDBRANCH   1   5
BRANCH   3  15
ATOM     15  C   UNL     1       3.533   6.521  18.492  0.00  0.00    +0.000 C 
BRANCH  15  16
ATOM     16  C   UNL     1       3.403   5.193  17.696  0.00  0.00    +0.000 C 
BRANCH  16  17
ATOM     17  N   UNL     1       2.903   4.090  18.591  0.00  0.00    +0.000 NA
ATOM     18  C   UNL     1       3.965   3.606  19.508  0.00  0.00    +0.000 C 
ATOM     19  C   UNL     1       3.497   2.514  20.472  0.00  0.00    +0.000 C 
ATOM     20  C   UNL     1       2.256   2.949  21.227  0.00  0.00    +0.000 C 
ATOM     21  C   UNL     1       1.183   3.362  20.236  0.00  0.00    +0.000 C 
ATOM     22  C   UNL     1       1.687   4.481  19.326  0.00  0.00    +0.000 C 
ENDBRANCH  16  17
BRANCH  16  23
ATOM     23  C   UNL     1       4.702   4.860  16.969  0.00  0.00    +0.000 A 
ATOM     24  C   UNL     1       5.055   3.980  15.949  0.00  0.00    +0.000 A 
ATOM     25  C   UNL     1       6.441   4.130  15.732  0.00  0.00    +0.000 A 
ATOM     26  C   UNL     1       6.859   5.119  16.593  0.00  0.00    +0.000 A 
ATOM     27  O   UNL     1       5.813   5.573  17.340  0.00  0.00    +0.000 OA
ENDBRANCH  16  23
ENDBRANCH  15  16
ENDBRANCH   3  15
TORSDOF 7
ENDMDL
MODEL 3
REMARK VINA RESULT:      -7.7      4.335      7.558
REMARK  Name = 
REMARK  9 active torsions:
REMARK  status: ('A' for Active; 'I' for Inactive)
REMARK    1  A    between atoms: C_1  and  C_2
REMARK    2  A    between atoms: C_5  and  C_6
REMARK    3  A    between atoms: C_7  and  S_8
REMARK    4  A    between atoms: S_8  and  C_9
REMARK    5  A    between atoms: C_9  and  C_10
REMARK    6  A    between atoms: N_12  and  C_13
REMARK    7  A    between atoms: C_13  and  C_14
REMARK    8  A    between atoms: C_14  and  C_15
REMARK    9  A    between atoms: C_14  and  N_20
REMARK                            x       y       z     vdW  Elec       q    Type
REMARK                         _______ _______ _______ _____ _____    ______ ____
ROOT
ATOM      1  C   UNL     1       2.727   3.991  17.762  0.00  0.00    +0.000 C 
ATOM      2  O   UNL     1       2.199   3.323  16.854  0.00  0.00    +0.000 OA
ATOM      3  N   UNL     1       4.076   4.328  17.707  0.00  0.00    +0.000 N 
ATOM      4  H   UNL     1       4.540   4.463  18.611  0.00  0.00    +0.000 HD
ENDROOT
BRANCH   1   5
ATOM      5  C   UNL     1       1.949   4.496  18.971  0.00  0.00    +0.000 C 
BRANCH   5   6
ATOM      6  S   UNL     1       2.943   5.675  19.950  0.00  0.00    +0.000 S 
BRANCH   6  13
ATOM      7  C   UNL     1      -0.302   9.218  22.257  0.00  0.00    +0.000 C 
ATOM      8  C   UNL     1       0.543   8.823  21.082  0.00  0.00    +0.000 A 
ATOM      9  C   UNL     1       0.650   9.663  19.974  0.00  0.00    +0.000 A 
ATOM     10  C   UNL     1       1.435   9.291  18.885  0.00  0.00    +0.000 A 
ATOM     11  C   UNL     1       2.128   8.074  18.883  0.00  0.00    +0.000 A 
ATOM     12  C   UNL     1       2.959   7.730  17.671  0.00  0.00    +0.000 C 
ATOM     13  C   UNL     1       2.030   7.211  20.003  0.00  0.00    +0.000 A 
ATOM     14  C   UNL     1       1.235   7.600  21.090  0.00  0.00    +0.000 A 
ENDBRANCH   6  13
ENDBRANCH   5   6
ENDBRANCH   1   5
BRANCH   3  15
ATOM     15  C   UNL     1       4.884   3.918  16.575  0.00  0.00    +0.000 C 
BRANCH  15  16
ATOM     16  C   UNL     1       5.647   5.035  15.811  0.00  0.00    +0.000 C 
BRANCH  16  17
ATOM     17  N   UNL     1       6.390   4.457  14.636  0.00  0.00    +0.000 NA
ATOM     18  C   UNL     1       5.461   3.866  13.640  0.00  0.00    +0.000 C 
ATOM     19  C   UNL     1       6.161   3.303  12.402  0.00  0.00    +0.000 C 
ATOM     20  C   UNL     1       7.077   4.338  11.775  0.00  0.00    +0.000 C 
ATOM     21  C   UNL     1       8.048   4.849  12.823  0.00  0.00    +0.000 C 
ATOM     22  C   UNL     1       7.299   5.438  14.018  0.00  0.00    +0.000 C 
ENDBRANCH  16  17
BRANCH  16  23
ATOM     23  C   UNL     1       6.524   5.847  16.761  0.00  0.00    +0.000 A 
ATOM     24  C   UNL     1       7.402   5.529  17.794  0.00  0.00    +0.000 A 
ATOM     25  C   UNL     1       7.896   6.747  18.309  0.00  0.00    +0.000 A 
ATOM     26  C   UNL     1       7.334   7.743  17.542  0.00  0.00    +0.000 A 
ATOM     27  O   UNL     1       6.509   7.208  16.599  0.00  0.00    +0.000 OA
ENDBRANCH  16  23
ENDBRANCH  15  16
ENDBRANCH   3  15
TORSDOF 7
ENDMDL
MODEL 4
REMARK VINA RESULT:      -7.7      5.916      8.504
REMARK  Name = 
REMARK  9 active torsions:
REMARK  status: ('A' for Active; 'I' for Inactive)
REMARK    1  A    between atoms: C_1  and  C_2
REMARK    2  A    between atoms: C_5  and  C_6
REMARK    3  A    between atoms: C_7  and  S_8
REMARK    4  A    between atoms: S_8  and  C_9
REMARK    5  A    between atoms: C_9  and  C_10
REMARK    6  A    between atoms: N_12  and  C_13
REMARK    7  A    between atoms: C_13  and  C_14
REMARK    8  A    between atoms: C_14  and  C_15
REMARK    9  A    between atoms: C_14  and  N_20
REMARK                            x       y       z     vdW  Elec       q    Type
REMARK                         _______ _______ _______ _____ _____    ______ ____
ROOT
ATOM      1  C   UNL     1       2.060   8.173  18.773  0.00  0.00    +0.000 C 
ATOM      2  O   UNL     1       2.316   8.612  17.636  0.00  0.00    +0.000 OA
ATOM      3  N   UNL     1       2.550   6.939  19.188  0.00  0.00    +0.000 N 
ATOM      4  H   UNL     1       1.985   6.447  19.887  0.00  0.00    +0.000 HD
ENDROOT
BRANCH   1   5
ATOM      5  C   UNL     1       1.220   8.946  19.782  0.00  0.00    +0.000 C 
BRANCH   5   6
ATOM      6  S   UNL     1       0.999  10.684  19.264  0.00  0.00    +0.000 S 
BRANCH   6  13
ATOM      7  C   UNL     1      -2.929   9.653  15.812  0.00  0.00    +0.000 C 
ATOM      8  C   UNL     1      -2.460  10.349  17.056  0.00  0.00    +0.000 A 
ATOM      9  C   UNL     1      -3.334  11.149  17.791  0.00  0.00    +0.000 A 
ATOM     10  C   UNL     1      -2.893  11.794  18.944  0.00  0.00    +0.000 A 
ATOM     11  C   UNL     1      -1.572  11.650  19.386  0.00  0.00    +0.000 A 
ATOM     12  C   UNL     1      -1.158  12.377  20.642  0.00  0.00    +0.000 C 
ATOM     13  C   UNL     1      -0.672  10.838  18.650  0.00  0.00    +0.000 A 
ATOM     14  C   UNL     1      -1.132  10.197  17.491  0.00  0.00    +0.000 A 
ENDBRANCH   6  13
ENDBRANCH   5   6
ENDBRANCH   1   5
BRANCH   3  15
ATOM     15  C   UNL     1       3.386   6.152  18.304  0.00  0.00    +0.000 C 
BRANCH  15  16
ATOM     16  C   UNL     1       3.986   4.840  18.883  0.00  0.00    +0.000 C 
BRANCH  16  17
ATOM     17  N   UNL     1       5.119   4.354  18.019  0.00  0.00    +0.000 NA
ATOM     18  C   UNL     1       4.724   4.279  16.590  0.00  0.00    +0.000 C 
ATOM     19  C   UNL     1       5.854   3.831  15.660  0.00  0.00    +0.000 C 
ATOM     20  C   UNL     1       7.093   4.684  15.859  0.00  0.00    +0.000 C 
ATOM     21  C   UNL     1       7.489   4.661  17.324  0.00  0.00    +0.000 C 
ATOM     22  C   UNL     1       6.341   5.156  18.205  0.00  0.00    +0.000 C 
ENDBRANCH  16  17
BRANCH  16  23
ATOM     23  C   UNL     1       2.896   3.799  19.122  0.00  0.00    +0.000 A 
ATOM     24  C   UNL     1       2.890   2.428  19.367  0.00  0.00    +0.000 A 
ATOM     25  C   UNL     1       1.540   2.033  19.480  0.00  0.00    +0.000 A 
ATOM     26  C   UNL     1       0.792   3.180  19.344  0.00  0.00    +0.000 A 
ATOM     27  O   UNL     1       1.603   4.255  19.135  0.00  0.00    +0.000 OA
ENDBRANCH  16  23
ENDBRANCH  15  16
ENDBRANCH   3  15
TORSDOF 7
ENDMDL
MODEL 5
REMARK VINA RESULT:      -7.7      5.859      8.080
REMARK  Name = 
REMARK  9 active torsions:
REMARK  status: ('A' for Active; 'I' for Inactive)
REMARK    1  A    between atoms: C_1  and  C_2
REMARK    2  A    between atoms: C_5  and  C_6
REMARK    3  A    between atoms: C_7  and  S_8
REMARK    4  A    between atoms: S_8  and  C_9
REMARK    5  A    between atoms: C_9  and  C_10
REMARK    6  A    between atoms: N_12  and  C_13
REMARK    7  A    between atoms: C_13  and  C_14
REMARK    8  A    between atoms: C_14  and  C_15
REMARK    9  A    between atoms: C_14  and  N_20
REMARK                            x       y       z     vdW  Elec       q    Type
REMARK                         _______ _______ _______ _____ _____    ______ ____
ROOT
ATOM      1  C   UNL     1       2.205   8.341  18.502  0.00  0.00    +0.000 C 
ATOM      2  O   UNL     1       2.013   7.925  19.659  0.00  0.00    +0.000 OA
ATOM      3  N   UNL     1       3.157   7.747  17.679  0.00  0.00    +0.000 N 
ATOM      4  H   UNL     1       3.576   8.356  16.969  0.00  0.00    +0.000 HD
ENDROOT
BRANCH   1   5
ATOM      5  C   UNL     1       1.415   9.498  17.902  0.00  0.00    +0.000 C 
BRANCH   5   6
ATOM      6  S   UNL     1       0.351  10.291  19.157  0.00  0.00    +0.000 S 
BRANCH   6  13
ATOM      7  C   UNL     1      -3.223   9.807  15.233  0.00  0.00    +0.000 C 
ATOM      8  C   UNL     1      -2.846  10.388  16.563  0.00  0.00    +0.000 A 
ATOM      9  C   UNL     1      -3.729  11.221  17.248  0.00  0.00    +0.000 A 
ATOM     10  C   UNL     1      -3.373  11.759  18.483  0.00  0.00    +0.000 A 
ATOM     11  C   UNL     1      -2.128  11.474  19.057  0.00  0.00    +0.000 A 
ATOM     12  C   UNL     1      -1.804  12.090  20.396  0.00  0.00    +0.000 C 
ATOM     13  C   UNL     1      -1.220  10.628  18.373  0.00  0.00    +0.000 A 
ATOM     14  C   UNL     1      -1.593  10.095  17.131  0.00  0.00    +0.000 A 
ENDBRANCH   6  13
ENDBRANCH   5   6
ENDBRANCH   1   5
BRANCH   3  15
ATOM     15  C   UNL     1       3.931   6.618  18.157  0.00  0.00    +0.000 C 
BRANCH  15  16
ATOM     16  C   UNL     1       3.811   5.291  17.357  0.00  0.00    +0.000 C 
BRANCH  16  17
ATOM     17  N   UNL     1       3.213   4.210  18.217  0.00  0.00    +0.000 NA
ATOM     18  C   UNL     1       1.890   4.611  18.758  0.00  0.00    +0.000 C 
ATOM     19  C   UNL     1       1.216   3.529  19.605  0.00  0.00    +0.000 C 
ATOM     20  C   UNL     1       1.142   2.215  18.851  0.00  0.00    +0.000 C 
ATOM     21  C   UNL     1       2.533   1.822  18.388  0.00  0.00    +0.000 C 
ATOM     22  C   UNL     1       3.143   2.917  17.513  0.00  0.00    +0.000 C 
ENDBRANCH  16  17
BRANCH  16  23
ATOM     23  C   UNL     1       5.146   4.912  16.722  0.00  0.00    +0.000 A 
ATOM     24  C   UNL     1       6.427   4.669  17.211  0.00  0.00    +0.000 A 
ATOM     25  C   UNL     1       7.248   4.381  16.099  0.00  0.00    +0.000 A 
ATOM     26  C   UNL     1       6.425   4.417  14.996  0.00  0.00    +0.000 A 
ATOM     27  O   UNL     1       5.150   4.731  15.364  0.00  0.00    +0.000 OA
ENDBRANCH  16  23
ENDBRANCH  15  16
ENDBRANCH   3  15
TORSDOF 7
ENDMDL
MODEL 6
REMARK VINA RESULT:      -7.6      5.835      8.357
REMARK  Name = 
REMARK  9 active torsions:
REMARK  status: ('A' for Active; 'I' for Inactive)
REMARK    1  A    between atoms: C_1  and  C_2
REMARK    2  A    between atoms: C_5  and  C_6
REMARK    3  A    between atoms: C_7  and  S_8
REMARK    4  A    between atoms: S_8  and  C_9
REMARK    5  A    between atoms: C_9  and  C_10
REMARK    6  A    between atoms: N_12  and  C_13
REMARK    7  A    between atoms: C_13  and  C_14
REMARK    8  A    between atoms: C_14  and  C_15
REMARK    9  A    between atoms: C_14  and  N_20
REMARK                            x       y       z     vdW  Elec       q    Type
REMARK                         _______ _______ _______ _____ _____    ______ ____
ROOT
ATOM      1  C   UNL     1       2.085   8.679  18.221  0.00  0.00    +0.000 C 
ATOM      2  O   UNL     1       2.478   8.828  17.050  0.00  0.00    +0.000 OA
ATOM      3  N   UNL     1       2.343   7.502  18.917  0.00  0.00    +0.000 N 
ATOM      4  H   UNL     1       1.664   7.254  19.643  0.00  0.00    +0.000 HD
ENDROOT
BRANCH   1   5
ATOM      5  C   UNL     1       1.319   9.760  18.975  0.00  0.00    +0.000 C 
BRANCH   5   6
ATOM      6  S   UNL     1       0.772   9.162  20.612  0.00  0.00    +0.000 S 
BRANCH   6  13
ATOM      7  C   UNL     1      -2.612  13.253  20.147  0.00  0.00    +0.000 C 
ATOM      8  C   UNL     1      -1.917  12.253  21.022  0.00  0.00    +0.000 A 
ATOM      9  C   UNL     1      -2.147  12.235  22.397  0.00  0.00    +0.000 A 
ATOM     10  C   UNL     1      -1.499  11.305  23.206  0.00  0.00    +0.000 A 
ATOM     11  C   UNL     1      -0.609  10.374  22.656  0.00  0.00    +0.000 A 
ATOM     12  C   UNL     1       0.062   9.394  23.588  0.00  0.00    +0.000 C 
ATOM     13  C   UNL     1      -0.366  10.378  21.260  0.00  0.00    +0.000 A 
ATOM     14  C   UNL     1      -1.026  11.321  20.460  0.00  0.00    +0.000 A 
ENDBRANCH   6  13
ENDBRANCH   5   6
ENDBRANCH   1   5
BRANCH   3  15
ATOM     15  C   UNL     1       3.095   6.434  18.287  0.00  0.00    +0.000 C 
BRANCH  15  16
ATOM     16  C   UNL     1       3.828   5.438  19.228  0.00  0.00    +0.000 C 
BRANCH  16  17
ATOM     17  N   UNL     1       4.951   4.753  18.497  0.00  0.00    +0.000 NA
ATOM     18  C   UNL     1       4.660   4.620  17.048  0.00  0.00    +0.000 C 
ATOM     19  C   UNL     1       5.790   3.969  16.248  0.00  0.00    +0.000 C 
ATOM     20  C   UNL     1       7.109   4.676  16.495  0.00  0.00    +0.000 C 
ATOM     21  C   UNL     1       7.387   4.716  17.987  0.00  0.00    +0.000 C 
ATOM     22  C   UNL     1       6.248   5.411  18.733  0.00  0.00    +0.000 C 
ENDBRANCH  16  17
BRANCH  16  23
ATOM     23  C   UNL     1       2.840   4.479  19.886  0.00  0.00    +0.000 A 
ATOM     24  C   UNL     1       2.922   3.543  20.914  0.00  0.00    +0.000 A 
ATOM     25  C   UNL     1       1.647   2.951  21.040  0.00  0.00    +0.000 A 
ATOM     26  C   UNL     1       0.839   3.582  20.119  0.00  0.00    +0.000 A 
ATOM     27  O   UNL     1       1.550   4.512  19.422  0.00  0.00    +0.000 OA
ENDBRANCH  16  23
ENDBRANCH  15  16
ENDBRANCH   3  15
TORSDOF 7
ENDMDL
MODEL 7
REMARK VINA RESULT:      -7.6      4.626      7.692
REMARK  Name = 
REMARK  9 active torsions:
REMARK  status: ('A' for Active; 'I' for Inactive)
REMARK    1  A    between atoms: C_1  and  C_2
REMARK    2  A    between atoms: C_5  and  C_6
REMARK    3  A    between atoms: C_7  and  S_8
REMARK    4  A    between atoms: S_8  and  C_9
REMARK    5  A    between atoms: C_9  and  C_10
REMARK    6  A    between atoms: N_12  and  C_13
REMARK    7  A    between atoms: C_13  and  C_14
REMARK    8  A    between atoms: C_14  and  C_15
REMARK    9  A    between atoms: C_14  and  N_20
REMARK                            x       y       z     vdW  Elec       q    Type
REMARK                         _______ _______ _______ _____ _____    ______ ____
ROOT
ATOM      1  C   UNL     1       4.112   3.135  17.690  0.00  0.00    +0.000 C 
ATOM      2  O   UNL     1       4.904   3.559  18.552  0.00  0.00    +0.000 OA
ATOM      3  N   UNL     1       4.081   3.692  16.415  0.00  0.00    +0.000 N 
ATOM      4  H   UNL     1       3.181   3.640  15.926  0.00  0.00    +0.000 HD
ENDROOT
BRANCH   1   5
ATOM      5  C   UNL     1       3.147   1.986  17.953  0.00  0.00    +0.000 C 
BRANCH   5   6
ATOM      6  S   UNL     1       1.488   2.606  18.398  0.00  0.00    +0.000 S 
BRANCH   6  13
ATOM      7  C   UNL     1       2.262   7.858  17.919  0.00  0.00    +0.000 C 
ATOM      8  C   UNL     1       2.055   6.664  18.804  0.00  0.00    +0.000 A 
ATOM      9  C   UNL     1       2.017   6.809  20.190  0.00  0.00    +0.000 A 
ATOM     10  C   UNL     1       1.826   5.698  21.007  0.00  0.00    +0.000 A 
ATOM     11  C   UNL     1       1.668   4.421  20.455  0.00  0.00    +0.000 A 
ATOM     12  C   UNL     1       1.467   3.258  21.397  0.00  0.00    +0.000 C 
ATOM     13  C   UNL     1       1.703   4.257  19.048  0.00  0.00    +0.000 A 
ATOM     14  C   UNL     1       1.897   5.386  18.240  0.00  0.00    +0.000 A 
ENDBRANCH   6  13
ENDBRANCH   5   6
ENDBRANCH   1   5
BRANCH   3  15
ATOM     15  C   UNL     1       4.989   4.767  16.067  0.00  0.00    +0.000 C 
BRANCH  15  16
ATOM     16  C   UNL     1       6.473   4.384  15.815  0.00  0.00    +0.000 C 
BRANCH  16  17
ATOM     17  N   UNL     1       7.384   5.202  16.690  0.00  0.00    +0.000 NA
ATOM     18  C   UNL     1       6.909   6.603  16.815  0.00  0.00    +0.000 C 
ATOM     19  C   UNL     1       7.775   7.470  17.731  0.00  0.00    +0.000 C 
ATOM     20  C   UNL     1       7.960   6.814  19.087  0.00  0.00    +0.000 C 
ATOM     21  C   UNL     1       8.516   5.414  18.897  0.00  0.00    +0.000 C 
ATOM     22  C   UNL     1       7.594   4.579  18.009  0.00  0.00    +0.000 C 
ENDBRANCH  16  17
BRANCH  16  23
ATOM     23  C   UNL     1       6.812   4.453  14.329  0.00  0.00    +0.000 A 
ATOM     24  C   UNL     1       6.350   3.802  13.188  0.00  0.00    +0.000 A 
ATOM     25  C   UNL     1       7.091   4.301  12.096  0.00  0.00    +0.000 A 
ATOM     26  C   UNL     1       7.935   5.259  12.611  0.00  0.00    +0.000 A 
ATOM     27  O   UNL     1       7.768   5.364  13.959  0.00  0.00    +0.000 OA
ENDBRANCH  16  23
ENDBRANCH  15  16
ENDBRANCH   3  15
TORSDOF 7
ENDMDL
MODEL 8
REMARK VINA RESULT:      -7.6      5.661      8.600
REMARK  Name = 
REMARK  9 active torsions:
REMARK  status: ('A' for Active; 'I' for Inactive)
REMARK    1  A    between atoms: C_1  and  C_2
REMARK    2  A    between atoms: C_5  and  C_6
REMARK    3  A    between atoms: C_7  and  S_8
REMARK    4  A    between atoms: S_8  and  C_9
REMARK    5  A    between atoms: C_9  and  C_10
REMARK    6  A    between atoms: N_12  and  C_13
REMARK    7  A    between atoms: C_13  and  C_14
REMARK    8  A    between atoms: C_14  and  C_15
REMARK    9  A    between atoms: C_14  and  N_20
REMARK                            x       y       z     vdW  Elec       q    Type
REMARK                         _______ _______ _______ _____ _____    ______ ____
ROOT
ATOM      1  C   UNL     1       1.594   8.844  18.907  0.00  0.00    +0.000 C 
ATOM      2  O   UNL     1       1.448   8.766  20.141  0.00  0.00    +0.000 OA
ATOM      3  N   UNL     1       2.431   7.961  18.231  0.00  0.00    +0.000 N 
ATOM      4  H   UNL     1       2.851   8.318  17.367  0.00  0.00    +0.000 HD
ENDROOT
BRANCH   1   5
ATOM      5  C   UNL     1       0.868   9.879  18.056  0.00  0.00    +0.000 C 
BRANCH   5   6
ATOM      6  S   UNL     1      -0.404  10.758  19.028  0.00  0.00    +0.000 S 
BRANCH   6  13
ATOM      7  C   UNL     1      -3.164   9.898  14.551  0.00  0.00    +0.000 C 
ATOM      8  C   UNL     1      -3.101  10.487  15.929  0.00  0.00    +0.000 A 
ATOM      9  C   UNL     1      -4.196  11.171  16.458  0.00  0.00    +0.000 A 
ATOM     10  C   UNL     1      -4.131  11.717  17.737  0.00  0.00    +0.000 A 
ATOM     11  C   UNL     1      -2.973  11.590  18.513  0.00  0.00    +0.000 A 
ATOM     12  C   UNL     1      -2.968  12.207  19.891  0.00  0.00    +0.000 C 
ATOM     13  C   UNL     1      -1.852  10.897  17.991  0.00  0.00    +0.000 A 
ATOM     14  C   UNL     1      -1.933  10.354  16.701  0.00  0.00    +0.000 A 
ENDBRANCH   6  13
ENDBRANCH   5   6
ENDBRANCH   1   5
BRANCH   3  15
ATOM     15  C   UNL     1       3.134   6.923  18.958  0.00  0.00    +0.000 C 
BRANCH  15  16
ATOM     16  C   UNL     1       3.543   5.655  18.158  0.00  0.00    +0.000 C 
BRANCH  16  17
ATOM     17  N   UNL     1       2.945   4.423  18.783  0.00  0.00    +0.000 NA
ATOM     18  C   UNL     1       2.451   4.692  20.157  0.00  0.00    +0.000 C 
ATOM     19  C   UNL     1       1.792   3.482  20.824  0.00  0.00    +0.000 C 
ATOM     20  C   UNL     1       0.709   2.895  19.939  0.00  0.00    +0.000 C 
ATOM     21  C   UNL     1       1.292   2.574  18.576  0.00  0.00    +0.000 C 
ATOM     22  C   UNL     1       1.899   3.823  17.937  0.00  0.00    +0.000 C 
ENDBRANCH  16  17
BRANCH  16  23
ATOM     23  C   UNL     1       5.056   5.586  17.975  0.00  0.00    +0.000 A 
ATOM     24  C   UNL     1       6.060   4.738  18.435  0.00  0.00    +0.000 A 
ATOM     25  C   UNL     1       7.282   5.225  17.924  0.00  0.00    +0.000 A 
ATOM     26  C   UNL     1       6.964   6.314  17.145  0.00  0.00    +0.000 A 
ATOM     27  O   UNL     1       5.620   6.536  17.163  0.00  0.00    +0.000 OA
ENDBRANCH  16  23
ENDBRANCH  15  16
ENDBRANCH   3  15
TORSDOF 7
ENDMDL
MODEL 9
REMARK VINA RESULT:      -7.5      5.595      8.072
REMARK  Name = 
REMARK  9 active torsions:
REMARK  status: ('A' for Active; 'I' for Inactive)
REMARK    1  A    between atoms: C_1  and  C_2
REMARK    2  A    between atoms: C_5  and  C_6
REMARK    3  A    between atoms: C_7  and  S_8
REMARK    4  A    between atoms: S_8  and  C_9
REMARK    5  A    between atoms: C_9  and  C_10
REMARK    6  A    between atoms: N_12  and  C_13
REMARK    7  A    between atoms: C_13  and  C_14
REMARK    8  A    between atoms: C_14  and  C_15
REMARK    9  A    between atoms: C_14  and  N_20
REMARK                            x       y       z     vdW  Elec       q    Type
REMARK                         _______ _______ _______ _____ _____    ______ ____
ROOT
ATOM      1  C   UNL     1       2.033   8.586  18.491  0.00  0.00    +0.000 C 
ATOM      2  O   UNL     1       2.188   9.317  17.495  0.00  0.00    +0.000 OA
ATOM      3  N   UNL     1       2.696   7.366  18.590  0.00  0.00    +0.000 N 
ATOM      4  H   UNL     1       2.226   6.647  19.148  0.00  0.00    +0.000 HD
ENDROOT
BRANCH   1   5
ATOM      5  C   UNL     1       1.136   8.969  19.661  0.00  0.00    +0.000 C 
BRANCH   5   6
ATOM      6  S   UNL     1       0.715  10.745  19.616  0.00  0.00    +0.000 S 
BRANCH   6  13
ATOM      7  C   UNL     1      -2.834   9.659  15.790  0.00  0.00    +0.000 C 
ATOM      8  C   UNL     1      -2.499  10.368  17.069  0.00  0.00    +0.000 A 
ATOM      9  C   UNL     1      -3.447  11.169  17.704  0.00  0.00    +0.000 A 
ATOM     10  C   UNL     1      -3.130  11.826  18.890  0.00  0.00    +0.000 A 
ATOM     11  C   UNL     1      -1.861  11.695  19.465  0.00  0.00    +0.000 A 
ATOM     12  C   UNL     1      -1.581  12.436  20.751  0.00  0.00    +0.000 C 
ATOM     13  C   UNL     1      -0.886  10.883  18.833  0.00  0.00    +0.000 A 
ATOM     14  C   UNL     1      -1.221  10.229  17.639  0.00  0.00    +0.000 A 
ENDBRANCH   6  13
ENDBRANCH   5   6
ENDBRANCH   1   5
BRANCH   3  15
ATOM     15  C   UNL     1       3.595   6.938  17.536  0.00  0.00    +0.000 C 
BRANCH  15  16
ATOM     16  C   UNL     1       4.015   5.442  17.532  0.00  0.00    +0.000 C 
BRANCH  16  17
ATOM     17  N   UNL     1       3.124   4.643  18.445  0.00  0.00    +0.000 NA
ATOM     18  C   UNL     1       1.983   4.043  17.709  0.00  0.00    +0.000 C 
ATOM     19  C   UNL     1       1.068   3.182  18.583  0.00  0.00    +0.000 C 
ATOM     20  C   UNL     1       1.865   2.135  19.338  0.00  0.00    +0.000 C 
ATOM     21  C   UNL     1       2.969   2.815  20.127  0.00  0.00    +0.000 C 
ATOM     22  C   UNL     1       3.876   3.627  19.203  0.00  0.00    +0.000 C 
ENDBRANCH  16  17
BRANCH  16  23
ATOM     23  C   UNL     1       5.504   5.290  17.828  0.00  0.00    +0.000 A 
ATOM     24  C   UNL     1       6.348   5.724  18.847  0.00  0.00    +0.000 A 
ATOM     25  C   UNL     1       7.647   5.270  18.532  0.00  0.00    +0.000 A 
ATOM     26  C   UNL     1       7.528   4.546  17.367  0.00  0.00    +0.000 A 
ATOM     27  O   UNL     1       6.234   4.546  16.938  0.00  0.00    +0.000 OA
ENDBRANCH  16  23
ENDBRANCH  15  16
ENDBRANCH   3  15
TORSDOF 7
ENDMDL
