MODEL 1
REMARK VINA RESULT:      -8.0      0.000      0.000
REMARK  Name = 
REMARK  14 active torsions:
REMARK  status: ('A' for Active; 'I' for Inactive)
REMARK    1  A    between atoms: C_1  and  O_2
REMARK    2  A    between atoms: O_2  and  C_3
REMARK    3  A    between atoms: C_5  and  N_6
REMARK    4  A    between atoms: N_12  and  C_13
REMARK    5  A    between atoms: C_18  and  C_19
REMARK    6  A    between atoms: N_21  and  C_22
REMARK    7  A    between atoms: C_22  and  C_23
REMARK    8  A    between atoms: C_23  and  N_24
REMARK    9  A    between atoms: N_24  and  C_25
REMARK   10  A    between atoms: N_24  and  C_26
REMARK   11  A    between atoms: C_29  and  O_30
REMARK   12  A    between atoms: O_30  and  C_31
REMARK   13  A    between atoms: C_32  and  O_33
REMARK   14  A    between atoms: O_33  and  C_34
REMARK                            x       y       z     vdW  Elec       q    Type
REMARK                         _______ _______ _______ _____ _____    ______ ____
ROOT
ATOM      1  N   UNL     1       2.062   8.049  18.601  0.00  0.00    +0.000 N 
ATOM      2  C   UNL     1       2.455   6.800  19.078  0.00  0.00    +0.000 A 
ATOM      3  N   UNL     1       1.945   6.264  20.175  0.00  0.00    +0.000 NA
ATOM      4  C   UNL     1       2.513   5.132  20.561  0.00  0.00    +0.000 A 
ATOM      5  N   UNL     1       3.531   4.524  19.964  0.00  0.00    +0.000 NA
ATOM      6  C   UNL     1       3.946   5.106  18.845  0.00  0.00    +0.000 A 
ATOM      7  N   UNL     1       4.984   4.464  18.172  0.00  0.00    +0.000 N 
ATOM      8  N   UNL     1       3.415   6.225  18.366  0.00  0.00    +0.000 NA
ATOM      9  H   UNL     1       2.644   8.284  17.809  0.00  0.00    +0.000 HD
ATOM     10  H   UNL     1       5.509   3.890  18.828  0.00  0.00    +0.000 HD
ENDROOT
BRANCH   1  13
ATOM     11  C   UNL     1      -0.060  11.078  18.920  0.00  0.00    +0.000 A 
ATOM     12  C   UNL     1       0.710  10.028  18.388  0.00  0.00    +0.000 A 
ATOM     13  C   UNL     1       1.373   9.107  19.203  0.00  0.00    +0.000 A 
ATOM     14  C   UNL     1       1.276   9.290  20.578  0.00  0.00    +0.000 A 
ATOM     15  C   UNL     1       0.583  10.373  21.144  0.00  0.00    +0.000 A 
ATOM     16  C   UNL     1      -0.095  11.290  20.315  0.00  0.00    +0.000 A 
BRANCH  11  18
ATOM     17  C   UNL     1      -2.018  11.478  17.642  0.00  0.00    +0.000 C 
ATOM     18  O   UNL     1      -0.737  11.931  18.083  0.00  0.00    +0.000 OA
ENDBRANCH  11  18
BRANCH  15  19
ATOM     19  O   UNL     1       0.671  10.345  22.514  0.00  0.00    +0.000 OA
ATOM     20  C   UNL     1      -0.236   9.555  23.261  0.00  0.00    +0.000 C 
ENDBRANCH  15  19
BRANCH  16  21
ATOM     21  O   UNL     1      -0.696  12.346  20.944  0.00  0.00    +0.000 OA
ATOM     22  C   UNL     1      -2.056  12.259  21.334  0.00  0.00    +0.000 C 
ENDBRANCH  16  21
ENDBRANCH   1  13
BRANCH   7  23
ATOM     23  C   UNL     1       5.525   4.610  16.880  0.00  0.00    +0.000 A 
ATOM     24  C   UNL     1       5.052   3.851  15.789  0.00  0.00    +0.000 A 
ATOM     25  C   UNL     1       5.614   3.939  14.510  0.00  0.00    +0.000 A 
ATOM     26  C   UNL     1       6.682   4.789  14.287  0.00  0.00    +0.000 A 
ATOM     27  C   UNL     1       7.193   5.530  15.342  0.00  0.00    +0.000 A 
ATOM     28  C   UNL     1       6.641   5.443  16.636  0.00  0.00    +0.000 A 
BRANCH  28  29
ATOM     29  C   UNL     1       7.320   6.270  17.677  0.00  0.00    +0.000 C 
ATOM     30  O   UNL     1       7.429   5.841  18.821  0.00  0.00    +0.000 OA
ATOM     31  N   UNL     1       7.745   7.531  17.312  0.00  0.00    +0.000 N 
ATOM     32  H   UNL     1       7.533   7.893  16.389  0.00  0.00    +0.000 HD
BRANCH  31  33
ATOM     33  C   UNL     1       8.315   8.445  18.289  0.00  0.00    +0.000 C 
BRANCH  33  34
ATOM     34  C   UNL     1       8.215   9.931  17.887  0.00  0.00    +0.000 C 
BRANCH  34  35
ATOM     35  N   UNL     1       9.343  10.792  18.317  0.00  0.00    +0.000 NA
ATOM     36  C   UNL     1       9.154  12.190  17.924  0.00  0.00    +0.000 C 
ATOM     37  C   UNL     1       9.471  10.720  19.778  0.00  0.00    +0.000 C 
ENDBRANCH  34  35
ENDBRANCH  33  34
ENDBRANCH  31  33
ENDBRANCH  28  29
ENDBRANCH   7  23
TORSDOF 9
ENDMDL
MODEL 2
REMARK VINA RESULT:      -7.9      1.630      1.885
REMARK  Name = 
REMARK  14 active torsions:
REMARK  status: ('A' for Active; 'I' for Inactive)
REMARK    1  A    between atoms: C_1  and  O_2
REMARK    2  A    between atoms: O_2  and  C_3
REMARK    3  A    between atoms: C_5  and  N_6
REMARK    4  A    between atoms: N_12  and  C_13
REMARK    5  A    between atoms: C_18  and  C_19
REMARK    6  A    between atoms: N_21  and  C_22
REMARK    7  A    between atoms: C_22  and  C_23
REMARK    8  A    between atoms: C_23  and  N_24
REMARK    9  A    between atoms: N_24  and  C_25
REMARK   10  A    between atoms: N_24  and  C_26
REMARK   11  A    between atoms: C_29  and  O_30
REMARK   12  A    between atoms: O_30  and  C_31
REMARK   13  A    between atoms: C_32  and  O_33
REMARK   14  A    between atoms: O_33  and  C_34
REMARK                            x       y       z     vdW  Elec       q    Type
REMARK                         _______ _______ _______ _____ _____    ______ ____
ROOT
ATOM      1  N   UNL     1       2.008   8.702  17.736  0.00  0.00    +0.000 N 
ATOM      2  C   UNL     1       2.341   7.570  18.477  0.00  0.00    +0.000 A 
ATOM      3  N   UNL     1       1.761   7.277  19.630  0.00  0.00    +0.000 NA
ATOM      4  C   UNL     1       2.277   6.237  20.268  0.00  0.00    +0.000 A 
ATOM      5  N   UNL     1       3.306   5.503  19.863  0.00  0.00    +0.000 NA
ATOM      6  C   UNL     1       3.793   5.838  18.675  0.00  0.00    +0.000 A 
ATOM      7  N   UNL     1       4.846   5.054  18.203  0.00  0.00    +0.000 N 
ATOM      8  N   UNL     1       3.319   6.845  17.950  0.00  0.00    +0.000 NA
ATOM      9  H   UNL     1       2.636   8.760  16.946  0.00  0.00    +0.000 HD
ATOM     10  H   UNL     1       5.320   4.617  18.990  0.00  0.00    +0.000 HD
ENDROOT
BRANCH   1  13
ATOM     11  C   UNL     1      -0.841  10.984  18.411  0.00  0.00    +0.000 A 
ATOM     12  C   UNL     1      -0.077   9.869  18.022  0.00  0.00    +0.000 A 
ATOM     13  C   UNL     1       1.320   9.873  18.073  0.00  0.00    +0.000 A 
ATOM     14  C   UNL     1       1.938  11.045  18.490  0.00  0.00    +0.000 A 
ATOM     15  C   UNL     1       1.210  12.205  18.810  0.00  0.00    +0.000 A 
ATOM     16  C   UNL     1      -0.199  12.188  18.769  0.00  0.00    +0.000 A 
BRANCH  11  18
ATOM     17  C   UNL     1      -2.823  11.022  17.106  0.00  0.00    +0.000 C 
ATOM     18  O   UNL     1      -2.213  10.921  18.394  0.00  0.00    +0.000 OA
ENDBRANCH  11  18
BRANCH  15  19
ATOM     19  O   UNL     1       2.055  13.230  19.154  0.00  0.00    +0.000 OA
ATOM     20  C   UNL     1       2.649  14.022  18.142  0.00  0.00    +0.000 C 
ENDBRANCH  15  19
BRANCH  16  21
ATOM     21  O   UNL     1      -0.826  13.374  19.039  0.00  0.00    +0.000 OA
ATOM     22  C   UNL     1      -1.243  13.671  20.362  0.00  0.00    +0.000 C 
ENDBRANCH  16  21
ENDBRANCH   1  13
BRANCH   7  23
ATOM     23  C   UNL     1       5.455   4.925  16.941  0.00  0.00    +0.000 A 
ATOM     24  C   UNL     1       4.900   4.112  15.931  0.00  0.00    +0.000 A 
ATOM     25  C   UNL     1       5.519   3.923  14.690  0.00  0.00    +0.000 A 
ATOM     26  C   UNL     1       6.728   4.542  14.425  0.00  0.00    +0.000 A 
ATOM     27  C   UNL     1       7.319   5.326  15.405  0.00  0.00    +0.000 A 
ATOM     28  C   UNL     1       6.709   5.515  16.661  0.00  0.00    +0.000 A 
BRANCH  28  29
ATOM     29  C   UNL     1       7.481   6.354  17.626  0.00  0.00    +0.000 C 
ATOM     30  O   UNL     1       7.840   5.875  18.697  0.00  0.00    +0.000 OA
ATOM     31  N   UNL     1       7.702   7.673  17.289  0.00  0.00    +0.000 N 
ATOM     32  H   UNL     1       7.290   8.060  16.448  0.00  0.00    +0.000 HD
BRANCH  31  33
ATOM     33  C   UNL     1       8.346   8.589  18.217  0.00  0.00    +0.000 C 
BRANCH  33  34
ATOM     34  C   UNL     1       8.236  10.072  17.809  0.00  0.00    +0.000 C 
BRANCH  34  35
ATOM     35  N   UNL     1       9.348  10.947  18.252  0.00  0.00    +0.000 NA
ATOM     36  C   UNL     1       9.093  12.358  17.959  0.00  0.00    +0.000 C 
ATOM     37  C   UNL     1       9.537  10.787  19.700  0.00  0.00    +0.000 C 
ENDBRANCH  34  35
ENDBRANCH  33  34
ENDBRANCH  31  33
ENDBRANCH  28  29
ENDBRANCH   7  23
TORSDOF 9
ENDMDL
MODEL 3
REMARK VINA RESULT:      -7.9      0.471      2.203
REMARK  Name = 
REMARK  14 active torsions:
REMARK  status: ('A' for Active; 'I' for Inactive)
REMARK    1  A    between atoms: C_1  and  O_2
REMARK    2  A    between atoms: O_2  and  C_3
REMARK    3  A    between atoms: C_5  and  N_6
REMARK    4  A    between atoms: N_12  and  C_13
REMARK    5  A    between atoms: C_18  and  C_19
REMARK    6  A    between atoms: N_21  and  C_22
REMARK    7  A    between atoms: C_22  and  C_23
REMARK    8  A    between atoms: C_23  and  N_24
REMARK    9  A    between atoms: N_24  and  C_25
REMARK   10  A    between atoms: N_24  and  C_26
REMARK   11  A    between atoms: C_29  and  O_30
REMARK   12  A    between atoms: O_30  and  C_31
REMARK   13  A    between atoms: C_32  and  O_33
REMARK   14  A    between atoms: O_33  and  C_34
REMARK                            x       y       z     vdW  Elec       q    Type
REMARK                         _______ _______ _______ _____ _____    ______ ____
ROOT
ATOM      1  N   UNL     1       2.075   7.967  18.492  0.00  0.00    +0.000 N 
ATOM      2  C   UNL     1       2.516   6.743  18.991  0.00  0.00    +0.000 A 
ATOM      3  N   UNL     1       2.015   6.200  20.089  0.00  0.00    +0.000 NA
ATOM      4  C   UNL     1       2.627   5.098  20.497  0.00  0.00    +0.000 A 
ATOM      5  N   UNL     1       3.677   4.527  19.921  0.00  0.00    +0.000 NA
ATOM      6  C   UNL     1       4.081   5.112  18.799  0.00  0.00    +0.000 A 
ATOM      7  N   UNL     1       5.154   4.506  18.147  0.00  0.00    +0.000 N 
ATOM      8  N   UNL     1       3.509   6.200  18.299  0.00  0.00    +0.000 NA
ATOM      9  H   UNL     1       2.657   8.216  17.704  0.00  0.00    +0.000 HD
ATOM     10  H   UNL     1       5.694   3.964  18.818  0.00  0.00    +0.000 HD
ENDROOT
BRANCH   1  13
ATOM     11  C   UNL     1       0.679  10.193  21.114  0.00  0.00    +0.000 A 
ATOM     12  C   UNL     1       1.343   9.138  20.462  0.00  0.00    +0.000 A 
ATOM     13  C   UNL     1       1.334   9.003  19.071  0.00  0.00    +0.000 A 
ATOM     14  C   UNL     1       0.605   9.937  18.346  0.00  0.00    +0.000 A 
ATOM     15  C   UNL     1      -0.136  10.957  18.968  0.00  0.00    +0.000 A 
ATOM     16  C   UNL     1      -0.111  11.095  20.370  0.00  0.00    +0.000 A 
BRANCH  11  18
ATOM     17  C   UNL     1      -0.170   9.529  23.228  0.00  0.00    +0.000 C 
ATOM     18  O   UNL     1       0.756  10.318  22.480  0.00  0.00    +0.000 OA
ENDBRANCH  11  18
BRANCH  15  19
ATOM     19  O   UNL     1      -0.794  11.719  18.034  0.00  0.00    +0.000 OA
ATOM     20  C   UNL     1      -2.097  11.351  17.618  0.00  0.00    +0.000 C 
ENDBRANCH  15  19
BRANCH  16  21
ATOM     21  O   UNL     1      -0.905  12.078  20.897  0.00  0.00    +0.000 OA
ATOM     22  C   UNL     1      -0.378  13.376  21.112  0.00  0.00    +0.000 C 
ENDBRANCH  16  21
ENDBRANCH   1  13
BRANCH   7  23
ATOM     23  C   UNL     1       5.705   4.658  16.860  0.00  0.00    +0.000 A 
ATOM     24  C   UNL     1       5.289   3.855  15.778  0.00  0.00    +0.000 A 
ATOM     25  C   UNL     1       5.863   3.950  14.505  0.00  0.00    +0.000 A 
ATOM     26  C   UNL     1       6.887   4.853  14.280  0.00  0.00    +0.000 A 
ATOM     27  C   UNL     1       7.342   5.640  15.328  0.00  0.00    +0.000 A 
ATOM     28  C   UNL     1       6.777   5.546  16.616  0.00  0.00    +0.000 A 
BRANCH  28  29
ATOM     29  C   UNL     1       7.396   6.427  17.650  0.00  0.00    +0.000 C 
ATOM     30  O   UNL     1       7.534   6.015  18.797  0.00  0.00    +0.000 OA
ATOM     31  N   UNL     1       7.731   7.712  17.275  0.00  0.00    +0.000 N 
ATOM     32  H   UNL     1       7.495   8.051  16.350  0.00  0.00    +0.000 HD
BRANCH  31  33
ATOM     33  C   UNL     1       8.235   8.671  18.245  0.00  0.00    +0.000 C 
BRANCH  33  34
ATOM     34  C   UNL     1       8.308  10.117  17.713  0.00  0.00    +0.000 C 
BRANCH  34  35
ATOM     35  N   UNL     1       9.095  11.067  18.535  0.00  0.00    +0.000 NA
ATOM     36  C   UNL     1       9.398  10.532  19.865  0.00  0.00    +0.000 C 
ATOM     37  C   UNL     1      10.356  11.368  17.845  0.00  0.00    +0.000 C 
ENDBRANCH  34  35
ENDBRANCH  33  34
ENDBRANCH  31  33
ENDBRANCH  28  29
ENDBRANCH   7  23
TORSDOF 9
ENDMDL
MODEL 4
REMARK VINA RESULT:      -7.8      1.545      2.109
REMARK  Name = 
REMARK  14 active torsions:
REMARK  status: ('A' for Active; 'I' for Inactive)
REMARK    1  A    between atoms: C_1  and  O_2
REMARK    2  A    between atoms: O_2  and  C_3
REMARK    3  A    between atoms: C_5  and  N_6
REMARK    4  A    between atoms: N_12  and  C_13
REMARK    5  A    between atoms: C_18  and  C_19
REMARK    6  A    between atoms: N_21  and  C_22
REMARK    7  A    between atoms: C_22  and  C_23
REMARK    8  A    between atoms: C_23  and  N_24
REMARK    9  A    between atoms: N_24  and  C_25
REMARK   10  A    between atoms: N_24  and  C_26
REMARK   11  A    between atoms: C_29  and  O_30
REMARK   12  A    between atoms: O_30  and  C_31
REMARK   13  A    between atoms: C_32  and  O_33
REMARK   14  A    between atoms: O_33  and  C_34
REMARK                            x       y       z     vdW  Elec       q    Type
REMARK                         _______ _______ _______ _____ _____    ______ ____
ROOT
ATOM      1  N   UNL     1       1.899   8.548  17.788  0.00  0.00    +0.000 N 
ATOM      2  C   UNL     1       2.292   7.440  18.538  0.00  0.00    +0.000 A 
ATOM      3  N   UNL     1       1.742   7.136  19.702  0.00  0.00    +0.000 NA
ATOM      4  C   UNL     1       2.312   6.127  20.345  0.00  0.00    +0.000 A 
ATOM      5  N   UNL     1       3.367   5.435  19.934  0.00  0.00    +0.000 NA
ATOM      6  C   UNL     1       3.822   5.777  18.735  0.00  0.00    +0.000 A 
ATOM      7  N   UNL     1       4.902   5.034  18.258  0.00  0.00    +0.000 N 
ATOM      8  N   UNL     1       3.294   6.753  18.006  0.00  0.00    +0.000 NA
ATOM      9  H   UNL     1       2.513   8.624  16.989  0.00  0.00    +0.000 HD
ATOM     10  H   UNL     1       5.405   4.628  19.043  0.00  0.00    +0.000 HD
ENDROOT
BRANCH   1  13
ATOM     11  C   UNL     1       1.189  12.032  18.853  0.00  0.00    +0.000 A 
ATOM     12  C   UNL     1       1.851  10.825  18.565  0.00  0.00    +0.000 A 
ATOM     13  C   UNL     1       1.165   9.691  18.122  0.00  0.00    +0.000 A 
ATOM     14  C   UNL     1      -0.217   9.786  18.011  0.00  0.00    +0.000 A 
ATOM     15  C   UNL     1      -0.920  10.950  18.367  0.00  0.00    +0.000 A 
ATOM     16  C   UNL     1      -0.219  12.094  18.800  0.00  0.00    +0.000 A 
BRANCH  11  18
ATOM     17  C   UNL     1       2.743  13.714  18.232  0.00  0.00    +0.000 C 
ATOM     18  O   UNL     1       1.908  13.138  19.237  0.00  0.00    +0.000 OA
ENDBRANCH  11  18
BRANCH  15  19
ATOM     19  O   UNL     1      -2.271  10.773  18.202  0.00  0.00    +0.000 OA
ATOM     20  C   UNL     1      -2.755  10.054  17.082  0.00  0.00    +0.000 C 
ENDBRANCH  15  19
BRANCH  16  21
ATOM     21  O   UNL     1      -0.983  13.164  19.180  0.00  0.00    +0.000 OA
ATOM     22  C   UNL     1      -1.415  13.285  20.525  0.00  0.00    +0.000 C 
ENDBRANCH  16  21
ENDBRANCH   1  13
BRANCH   7  23
ATOM     23  C   UNL     1       5.499   4.917  16.988  0.00  0.00    +0.000 A 
ATOM     24  C   UNL     1       4.952   4.088  15.987  0.00  0.00    +0.000 A 
ATOM     25  C   UNL     1       5.560   3.912  14.738  0.00  0.00    +0.000 A 
ATOM     26  C   UNL     1       6.751   4.558  14.458  0.00  0.00    +0.000 A 
ATOM     27  C   UNL     1       7.335   5.359  15.430  0.00  0.00    +0.000 A 
ATOM     28  C   UNL     1       6.735   5.536  16.693  0.00  0.00    +0.000 A 
BRANCH  28  29
ATOM     29  C   UNL     1       7.498   6.394  17.647  0.00  0.00    +0.000 C 
ATOM     30  O   UNL     1       7.848   5.938  18.730  0.00  0.00    +0.000 OA
ATOM     31  N   UNL     1       7.723   7.706  17.284  0.00  0.00    +0.000 N 
ATOM     32  H   UNL     1       7.318   8.076  16.432  0.00  0.00    +0.000 HD
BRANCH  31  33
ATOM     33  C   UNL     1       8.359   8.641  18.199  0.00  0.00    +0.000 C 
BRANCH  33  34
ATOM     34  C   UNL     1       8.157  10.122  17.820  0.00  0.00    +0.000 C 
BRANCH  34  35
ATOM     35  N   UNL     1       9.271  11.035  18.167  0.00  0.00    +0.000 NA
ATOM     36  C   UNL     1       8.917  12.442  17.973  0.00  0.00    +0.000 C 
ATOM     37  C   UNL     1       9.641  10.827  19.574  0.00  0.00    +0.000 C 
ENDBRANCH  34  35
ENDBRANCH  33  34
ENDBRANCH  31  33
ENDBRANCH  28  29
ENDBRANCH   7  23
TORSDOF 9
ENDMDL
MODEL 5
REMARK VINA RESULT:      -7.4      1.276      2.236
REMARK  Name = 
REMARK  14 active torsions:
REMARK  status: ('A' for Active; 'I' for Inactive)
REMARK    1  A    between atoms: C_1  and  O_2
REMARK    2  A    between atoms: O_2  and  C_3
REMARK    3  A    between atoms: C_5  and  N_6
REMARK    4  A    between atoms: N_12  and  C_13
REMARK    5  A    between atoms: C_18  and  C_19
REMARK    6  A    between atoms: N_21  and  C_22
REMARK    7  A    between atoms: C_22  and  C_23
REMARK    8  A    between atoms: C_23  and  N_24
REMARK    9  A    between atoms: N_24  and  C_25
REMARK   10  A    between atoms: N_24  and  C_26
REMARK   11  A    between atoms: C_29  and  O_30
REMARK   12  A    between atoms: O_30  and  C_31
REMARK   13  A    between atoms: C_32  and  O_33
REMARK   14  A    between atoms: O_33  and  C_34
REMARK                            x       y       z     vdW  Elec       q    Type
REMARK                         _______ _______ _______ _____ _____    ______ ____
ROOT
ATOM      1  N   UNL     1       2.403   8.647  18.030  0.00  0.00    +0.000 N 
ATOM      2  C   UNL     1       2.643   7.396  18.594  0.00  0.00    +0.000 A 
ATOM      3  N   UNL     1       2.021   6.974  19.682  0.00  0.00    +0.000 NA
ATOM      4  C   UNL     1       2.451   5.816  20.161  0.00  0.00    +0.000 A 
ATOM      5  N   UNL     1       3.437   5.081  19.659  0.00  0.00    +0.000 NA
ATOM      6  C   UNL     1       3.969   5.556  18.540  0.00  0.00    +0.000 A 
ATOM      7  N   UNL     1       4.975   4.780  17.966  0.00  0.00    +0.000 N 
ATOM      8  N   UNL     1       3.580   6.692  17.973  0.00  0.00    +0.000 NA
ATOM      9  H   UNL     1       3.049   8.779  17.264  0.00  0.00    +0.000 HD
ATOM     10  H   UNL     1       5.402   4.197  18.682  0.00  0.00    +0.000 HD
ENDROOT
BRANCH   1  13
ATOM     11  C   UNL     1       0.202  10.775  20.129  0.00  0.00    +0.000 A 
ATOM     12  C   UNL     1       0.814   9.662  19.526  0.00  0.00    +0.000 A 
ATOM     13  C   UNL     1       1.789   9.799  18.534  0.00  0.00    +0.000 A 
ATOM     14  C   UNL     1       2.110  11.090  18.132  0.00  0.00    +0.000 A 
ATOM     15  C   UNL     1       1.462  12.222  18.656  0.00  0.00    +0.000 A 
ATOM     16  C   UNL     1       0.489  12.076  19.666  0.00  0.00    +0.000 A 
BRANCH  11  18
ATOM     17  C   UNL     1      -0.172  10.281  22.420  0.00  0.00    +0.000 C 
ATOM     18  O   UNL     1      -0.715  10.596  21.137  0.00  0.00    +0.000 OA
ENDBRANCH  11  18
BRANCH  15  19
ATOM     19  O   UNL     1       1.933  13.369  18.067  0.00  0.00    +0.000 OA
ATOM     20  C   UNL     1       3.032  14.054  18.641  0.00  0.00    +0.000 C 
ENDBRANCH  15  19
BRANCH  16  21
ATOM     21  O   UNL     1      -0.132  13.223  20.078  0.00  0.00    +0.000 OA
ATOM     22  C   UNL     1      -1.504  13.430  19.787  0.00  0.00    +0.000 C 
ENDBRANCH  16  21
ENDBRANCH   1  13
BRANCH   7  23
ATOM     23  C   UNL     1       5.600   4.800  16.704  0.00  0.00    +0.000 A 
ATOM     24  C   UNL     1       5.141   3.999  15.638  0.00  0.00    +0.000 A 
ATOM     25  C   UNL     1       5.781   3.960  14.394  0.00  0.00    +0.000 A 
ATOM     26  C   UNL     1       6.917   4.721  14.183  0.00  0.00    +0.000 A 
ATOM     27  C   UNL     1       7.416   5.499  15.218  0.00  0.00    +0.000 A 
ATOM     28  C   UNL     1       6.784   5.539  16.477  0.00  0.00    +0.000 A 
BRANCH  28  29
ATOM     29  C   UNL     1       7.456   6.391  17.503  0.00  0.00    +0.000 C 
ATOM     30  O   UNL     1       7.721   5.922  18.605  0.00  0.00    +0.000 OA
ATOM     31  N   UNL     1       7.694   7.710  17.178  0.00  0.00    +0.000 N 
ATOM     32  H   UNL     1       7.357   8.089  16.301  0.00  0.00    +0.000 HD
BRANCH  31  33
ATOM     33  C   UNL     1       8.242   8.638  18.155  0.00  0.00    +0.000 C 
BRANCH  33  34
ATOM     34  C   UNL     1       8.309  10.097  17.661  0.00  0.00    +0.000 C 
BRANCH  34  35
ATOM     35  N   UNL     1       9.063  11.037  18.526  0.00  0.00    +0.000 NA
ATOM     36  C   UNL     1       9.410  10.444  19.819  0.00  0.00    +0.000 C 
ATOM     37  C   UNL     1      10.298  11.436  17.838  0.00  0.00    +0.000 C 
ENDBRANCH  34  35
ENDBRANCH  33  34
ENDBRANCH  31  33
ENDBRANCH  28  29
ENDBRANCH   7  23
TORSDOF 9
ENDMDL
MODEL 6
REMARK VINA RESULT:      -7.3      1.682      2.044
REMARK  Name = 
REMARK  14 active torsions:
REMARK  status: ('A' for Active; 'I' for Inactive)
REMARK    1  A    between atoms: C_1  and  O_2
REMARK    2  A    between atoms: O_2  and  C_3
REMARK    3  A    between atoms: C_5  and  N_6
REMARK    4  A    between atoms: N_12  and  C_13
REMARK    5  A    between atoms: C_18  and  C_19
REMARK    6  A    between atoms: N_21  and  C_22
REMARK    7  A    between atoms: C_22  and  C_23
REMARK    8  A    between atoms: C_23  and  N_24
REMARK    9  A    between atoms: N_24  and  C_25
REMARK   10  A    between atoms: N_24  and  C_26
REMARK   11  A    between atoms: C_29  and  O_30
REMARK   12  A    between atoms: O_30  and  C_31
REMARK   13  A    between atoms: C_32  and  O_33
REMARK   14  A    between atoms: O_33  and  C_34
REMARK                            x       y       z     vdW  Elec       q    Type
REMARK                         _______ _______ _______ _____ _____    ______ ____
ROOT
ATOM      1  N   UNL     1       2.417   9.152  17.909  0.00  0.00    +0.000 N 
ATOM      2  C   UNL     1       2.555   7.907  18.521  0.00  0.00    +0.000 A 
ATOM      3  N   UNL     1       1.882   7.570  19.609  0.00  0.00    +0.000 NA
ATOM      4  C   UNL     1       2.219   6.402  20.136  0.00  0.00    +0.000 A 
ATOM      5  N   UNL     1       3.158   5.581  19.682  0.00  0.00    +0.000 NA
ATOM      6  C   UNL     1       3.746   5.977  18.560  0.00  0.00    +0.000 A 
ATOM      7  N   UNL     1       4.705   5.111  18.035  0.00  0.00    +0.000 N 
ATOM      8  N   UNL     1       3.451   7.117  17.946  0.00  0.00    +0.000 NA
ATOM      9  H   UNL     1       3.087   9.210  17.154  0.00  0.00    +0.000 HD
ATOM     10  H   UNL     1       5.074   4.525  18.780  0.00  0.00    +0.000 HD
ENDROOT
BRANCH   1  13
ATOM     11  C   UNL     1       1.946  12.813  18.300  0.00  0.00    +0.000 A 
ATOM     12  C   UNL     1       2.471  11.558  17.945  0.00  0.00    +0.000 A 
ATOM     13  C   UNL     1       1.878  10.362  18.360  0.00  0.00    +0.000 A 
ATOM     14  C   UNL     1       0.759  10.458  19.178  0.00  0.00    +0.000 A 
ATOM     15  C   UNL     1       0.254  11.694  19.618  0.00  0.00    +0.000 A 
ATOM     16  C   UNL     1       0.850  12.895  19.184  0.00  0.00    +0.000 A 
BRANCH  11  18
ATOM     17  C   UNL     1       3.748  14.349  18.468  0.00  0.00    +0.000 C 
ATOM     18  O   UNL     1       2.531  13.964  17.828  0.00  0.00    +0.000 OA
ENDBRANCH  11  18
BRANCH  15  19
ATOM     19  O   UNL     1      -0.828  11.512  20.442  0.00  0.00    +0.000 OA
ATOM     20  C   UNL     1      -0.701  10.715  21.606  0.00  0.00    +0.000 C 
ENDBRANCH  15  19
BRANCH  16  21
ATOM     21  O   UNL     1       0.333  14.050  19.704  0.00  0.00    +0.000 OA
ATOM     22  C   UNL     1      -0.516  14.867  18.915  0.00  0.00    +0.000 C 
ENDBRANCH  16  21
ENDBRANCH   1  13
BRANCH   7  23
ATOM     23  C   UNL     1       5.356   5.042  16.788  0.00  0.00    +0.000 A 
ATOM     24  C   UNL     1       4.860   4.240  15.739  0.00  0.00    +0.000 A 
ATOM     25  C   UNL     1       5.521   4.112  14.512  0.00  0.00    +0.000 A 
ATOM     26  C   UNL     1       6.714   4.780  14.302  0.00  0.00    +0.000 A 
ATOM     27  C   UNL     1       7.248   5.555  15.322  0.00  0.00    +0.000 A 
ATOM     28  C   UNL     1       6.595   5.684  16.564  0.00  0.00    +0.000 A 
BRANCH  28  29
ATOM     29  C   UNL     1       7.307   6.520  17.576  0.00  0.00    +0.000 C 
ATOM     30  O   UNL     1       7.558   6.054  18.683  0.00  0.00    +0.000 OA
ATOM     31  N   UNL     1       7.599   7.824  17.234  0.00  0.00    +0.000 N 
ATOM     32  H   UNL     1       7.273   8.205  16.354  0.00  0.00    +0.000 HD
BRANCH  31  33
ATOM     33  C   UNL     1       8.190   8.739  18.197  0.00  0.00    +0.000 C 
BRANCH  33  34
ATOM     34  C   UNL     1       8.500  10.136  17.622  0.00  0.00    +0.000 C 
BRANCH  34  35
ATOM     35  N   UNL     1       9.129  11.096  18.561  0.00  0.00    +0.000 NA
ATOM     36  C   UNL     1       9.560  10.453  19.804  0.00  0.00    +0.000 C 
ATOM     37  C   UNL     1      10.297  11.707  17.911  0.00  0.00    +0.000 C 
ENDBRANCH  34  35
ENDBRANCH  33  34
ENDBRANCH  31  33
ENDBRANCH  28  29
ENDBRANCH   7  23
TORSDOF 9
ENDMDL
MODEL 7
REMARK VINA RESULT:      -7.1      2.606      4.491
REMARK  Name = 
REMARK  14 active torsions:
REMARK  status: ('A' for Active; 'I' for Inactive)
REMARK    1  A    between atoms: C_1  and  O_2
REMARK    2  A    between atoms: O_2  and  C_3
REMARK    3  A    between atoms: C_5  and  N_6
REMARK    4  A    between atoms: N_12  and  C_13
REMARK    5  A    between atoms: C_18  and  C_19
REMARK    6  A    between atoms: N_21  and  C_22
REMARK    7  A    between atoms: C_22  and  C_23
REMARK    8  A    between atoms: C_23  and  N_24
REMARK    9  A    between atoms: N_24  and  C_25
REMARK   10  A    between atoms: N_24  and  C_26
REMARK   11  A    between atoms: C_29  and  O_30
REMARK   12  A    between atoms: O_30  and  C_31
REMARK   13  A    between atoms: C_32  and  O_33
REMARK   14  A    between atoms: O_33  and  C_34
REMARK                            x       y       z     vdW  Elec       q    Type
REMARK                         _______ _______ _______ _____ _____    ______ ____
ROOT
ATOM      1  N   UNL     1       0.302   9.425  20.640  0.00  0.00    +0.000 N 
ATOM      2  C   UNL     1       1.199   9.091  19.627  0.00  0.00    +0.000 A 
ATOM      3  N   UNL     1       1.627   9.970  18.736  0.00  0.00    +0.000 NA
ATOM      4  C   UNL     1       2.376   9.466  17.767  0.00  0.00    +0.000 A 
ATOM      5  N   UNL     1       2.704   8.189  17.616  0.00  0.00    +0.000 NA
ATOM      6  C   UNL     1       2.272   7.387  18.582  0.00  0.00    +0.000 A 
ATOM      7  N   UNL     1       2.641   6.047  18.474  0.00  0.00    +0.000 N 
ATOM      8  N   UNL     1       1.542   7.810  19.608  0.00  0.00    +0.000 NA
ATOM      9  H   UNL     1       0.057   8.581  21.138  0.00  0.00    +0.000 HD
ATOM     10  H   UNL     1       2.838   5.829  17.500  0.00  0.00    +0.000 HD
ENDROOT
BRANCH   1  13
ATOM     11  C   UNL     1      -2.242  12.004  19.830  0.00  0.00    +0.000 A 
ATOM     12  C   UNL     1      -1.312  10.955  19.720  0.00  0.00    +0.000 A 
ATOM     13  C   UNL     1      -0.553  10.520  20.810  0.00  0.00    +0.000 A 
ATOM     14  C   UNL     1      -0.724  11.193  22.014  0.00  0.00    +0.000 A 
ATOM     15  C   UNL     1      -1.586  12.296  22.140  0.00  0.00    +0.000 A 
ATOM     16  C   UNL     1      -2.358  12.721  21.040  0.00  0.00    +0.000 A 
BRANCH  11  18
ATOM     17  C   UNL     1      -4.224  11.643  18.576  0.00  0.00    +0.000 C 
ATOM     18  O   UNL     1      -3.005  12.367  18.746  0.00  0.00    +0.000 OA
ENDBRANCH  11  18
BRANCH  15  19
ATOM     19  O   UNL     1      -1.544  12.802  23.416  0.00  0.00    +0.000 OA
ATOM     20  C   UNL     1      -1.118  14.136  23.631  0.00  0.00    +0.000 C 
ENDBRANCH  15  19
BRANCH  16  21
ATOM     21  O   UNL     1      -3.126  13.836  21.234  0.00  0.00    +0.000 OA
ATOM     22  C   UNL     1      -4.454  13.708  21.715  0.00  0.00    +0.000 C 
ENDBRANCH  16  21
ENDBRANCH   1  13
BRANCH   7  23
ATOM     23  C   UNL     1       2.600   4.964  19.374  0.00  0.00    +0.000 A 
ATOM     24  C   UNL     1       1.601   4.864  20.363  0.00  0.00    +0.000 A 
ATOM     25  C   UNL     1       1.574   3.828  21.304  0.00  0.00    +0.000 A 
ATOM     26  C   UNL     1       2.563   2.860  21.288  0.00  0.00    +0.000 A 
ATOM     27  C   UNL     1       3.579   2.943  20.346  0.00  0.00    +0.000 A 
ATOM     28  C   UNL     1       3.620   3.986  19.400  0.00  0.00    +0.000 A 
BRANCH  28  29
ATOM     29  C   UNL     1       4.793   3.965  18.477  0.00  0.00    +0.000 C 
ATOM     30  O   UNL     1       4.751   3.288  17.454  0.00  0.00    +0.000 OA
ATOM     31  N   UNL     1       5.916   4.670  18.857  0.00  0.00    +0.000 N 
ATOM     32  H   UNL     1       5.953   5.121  19.763  0.00  0.00    +0.000 HD
BRANCH  31  33
ATOM     33  C   UNL     1       7.140   4.613  18.074  0.00  0.00    +0.000 C 
BRANCH  33  34
ATOM     34  C   UNL     1       7.435   5.903  17.282  0.00  0.00    +0.000 C 
BRANCH  34  35
ATOM     35  N   UNL     1       6.958   5.922  15.878  0.00  0.00    +0.000 NA
ATOM     36  C   UNL     1       7.049   4.605  15.243  0.00  0.00    +0.000 C 
ATOM     37  C   UNL     1       5.558   6.366  15.854  0.00  0.00    +0.000 C 
ENDBRANCH  34  35
ENDBRANCH  33  34
ENDBRANCH  31  33
ENDBRANCH  28  29
ENDBRANCH   7  23
TORSDOF 9
ENDMDL
MODEL 8
REMARK VINA RESULT:      -7.0      3.092      5.221
REMARK  Name = 
REMARK  14 active torsions:
REMARK  status: ('A' for Active; 'I' for Inactive)
REMARK    1  A    between atoms: C_1  and  O_2
REMARK    2  A    between atoms: O_2  and  C_3
REMARK    3  A    between atoms: C_5  and  N_6
REMARK    4  A    between atoms: N_12  and  C_13
REMARK    5  A    between atoms: C_18  and  C_19
REMARK    6  A    between atoms: N_21  and  C_22
REMARK    7  A    between atoms: C_22  and  C_23
REMARK    8  A    between atoms: C_23  and  N_24
REMARK    9  A    between atoms: N_24  and  C_25
REMARK   10  A    between atoms: N_24  and  C_26
REMARK   11  A    between atoms: C_29  and  O_30
REMARK   12  A    between atoms: O_30  and  C_31
REMARK   13  A    between atoms: C_32  and  O_33
REMARK   14  A    between atoms: O_33  and  C_34
REMARK                            x       y       z     vdW  Elec       q    Type
REMARK                         _______ _______ _______ _____ _____    ______ ____
ROOT
ATOM      1  N   UNL     1       1.824  10.037  17.986  0.00  0.00    +0.000 N 
ATOM      2  C   UNL     1       1.891   8.876  18.756  0.00  0.00    +0.000 A 
ATOM      3  N   UNL     1       1.196   8.721  19.871  0.00  0.00    +0.000 NA
ATOM      4  C   UNL     1       1.465   7.615  20.549  0.00  0.00    +0.000 A 
ATOM      5  N   UNL     1       2.360   6.692  20.216  0.00  0.00    +0.000 NA
ATOM      6  C   UNL     1       2.973   6.906  19.059  0.00  0.00    +0.000 A 
ATOM      7  N   UNL     1       3.885   5.928  18.662  0.00  0.00    +0.000 N 
ATOM      8  N   UNL     1       2.744   7.970  18.298  0.00  0.00    +0.000 NA
ATOM      9  H   UNL     1       2.499   9.960  17.238  0.00  0.00    +0.000 HD
ATOM     10  H   UNL     1       4.218   5.425  19.481  0.00  0.00    +0.000 HD
ENDROOT
BRANCH   1  13
ATOM     11  C   UNL     1      -0.540  12.737  18.933  0.00  0.00    +0.000 A 
ATOM     12  C   UNL     1      -0.003  11.488  18.572  0.00  0.00    +0.000 A 
ATOM     13  C   UNL     1       1.351  11.322  18.270  0.00  0.00    +0.000 A 
ATOM     14  C   UNL     1       2.153  12.456  18.302  0.00  0.00    +0.000 A 
ATOM     15  C   UNL     1       1.636  13.734  18.581  0.00  0.00    +0.000 A 
ATOM     16  C   UNL     1       0.272  13.890  18.898  0.00  0.00    +0.000 A 
BRANCH  11  18
ATOM     17  C   UNL     1      -2.181  12.581  20.640  0.00  0.00    +0.000 C 
ATOM     18  O   UNL     1      -1.867  12.846  19.272  0.00  0.00    +0.000 OA
ENDBRANCH  11  18
BRANCH  15  19
ATOM     19  O   UNL     1       2.624  14.684  18.513  0.00  0.00    +0.000 OA
ATOM     20  C   UNL     1       3.552  14.812  19.576  0.00  0.00    +0.000 C 
ENDBRANCH  15  19
BRANCH  16  21
ATOM     21  O   UNL     1      -0.160  15.173  19.100  0.00  0.00    +0.000 OA
ATOM     22  C   UNL     1      -0.123  15.737  20.400  0.00  0.00    +0.000 C 
ENDBRANCH  16  21
ENDBRANCH   1  13
BRANCH   7  23
ATOM     23  C   UNL     1       4.536   5.662  17.442  0.00  0.00    +0.000 A 
ATOM     24  C   UNL     1       5.304   6.645  16.783  0.00  0.00    +0.000 A 
ATOM     25  C   UNL     1       5.911   6.420  15.542  0.00  0.00    +0.000 A 
ATOM     26  C   UNL     1       5.756   5.197  14.914  0.00  0.00    +0.000 A 
ATOM     27  C   UNL     1       4.983   4.216  15.518  0.00  0.00    +0.000 A 
ATOM     28  C   UNL     1       4.361   4.434  16.763  0.00  0.00    +0.000 A 
BRANCH  28  29
ATOM     29  C   UNL     1       3.531   3.301  17.270  0.00  0.00    +0.000 C 
ATOM     30  O   UNL     1       2.378   3.166  16.874  0.00  0.00    +0.000 OA
ATOM     31  N   UNL     1       4.090   2.481  18.228  0.00  0.00    +0.000 N 
ATOM     32  H   UNL     1       5.002   2.695  18.613  0.00  0.00    +0.000 HD
BRANCH  31  33
ATOM     33  C   UNL     1       3.315   1.423  18.857  0.00  0.00    +0.000 C 
BRANCH  33  34
ATOM     34  C   UNL     1       1.969   1.897  19.440  0.00  0.00    +0.000 C 
BRANCH  34  35
ATOM     35  N   UNL     1       2.029   3.097  20.309  0.00  0.00    +0.000 NA
ATOM     36  C   UNL     1       0.760   3.827  20.333  0.00  0.00    +0.000 C 
ATOM     37  C   UNL     1       2.366   2.682  21.677  0.00  0.00    +0.000 C 
ENDBRANCH  34  35
ENDBRANCH  33  34
ENDBRANCH  31  33
ENDBRANCH  28  29
ENDBRANCH   7  23
TORSDOF 9
ENDMDL
MODEL 9
REMARK VINA RESULT:      -6.9      3.041      5.270
REMARK  Name = 
REMARK  14 active torsions:
REMARK  status: ('A' for Active; 'I' for Inactive)
REMARK    1  A    between atoms: C_1  and  O_2
REMARK    2  A    between atoms: O_2  and  C_3
REMARK    3  A    between atoms: C_5  and  N_6
REMARK    4  A    between atoms: N_12  and  C_13
REMARK    5  A    between atoms: C_18  and  C_19
REMARK    6  A    between atoms: N_21  and  C_22
REMARK    7  A    between atoms: C_22  and  C_23
REMARK    8  A    between atoms: C_23  and  N_24
REMARK    9  A    between atoms: N_24  and  C_25
REMARK   10  A    between atoms: N_24  and  C_26
REMARK   11  A    between atoms: C_29  and  O_30
REMARK   12  A    between atoms: O_30  and  C_31
REMARK   13  A    between atoms: C_32  and  O_33
REMARK   14  A    between atoms: O_33  and  C_34
REMARK                            x       y       z     vdW  Elec       q    Type
REMARK                         _______ _______ _______ _____ _____    ______ ____
ROOT
ATOM      1  N   UNL     1       2.011  10.201  17.974  0.00  0.00    +0.000 N 
ATOM      2  C   UNL     1       1.965   9.017  18.708  0.00  0.00    +0.000 A 
ATOM      3  N   UNL     1       1.220   8.879  19.792  0.00  0.00    +0.000 NA
ATOM      4  C   UNL     1       1.383   7.737  20.444  0.00  0.00    +0.000 A 
ATOM      5  N   UNL     1       2.222   6.763  20.114  0.00  0.00    +0.000 NA
ATOM      6  C   UNL     1       2.893   6.965  18.987  0.00  0.00    +0.000 A 
ATOM      7  N   UNL     1       3.747   5.936  18.592  0.00  0.00    +0.000 N 
ATOM      8  N   UNL     1       2.769   8.065  18.253  0.00  0.00    +0.000 NA
ATOM      9  H   UNL     1       2.707  10.097  17.249  0.00  0.00    +0.000 HD
ATOM     10  H   UNL     1       4.012   5.387  19.405  0.00  0.00    +0.000 HD
ENDROOT
BRANCH   1  13
ATOM     11  C   UNL     1       2.191  13.894  18.301  0.00  0.00    +0.000 A 
ATOM     12  C   UNL     1       2.533  12.547  18.080  0.00  0.00    +0.000 A 
ATOM     13  C   UNL     1       1.620  11.508  18.282  0.00  0.00    +0.000 A 
ATOM     14  C   UNL     1       0.358  11.853  18.751  0.00  0.00    +0.000 A 
ATOM     15  C   UNL     1       0.008  13.179  19.059  0.00  0.00    +0.000 A 
ATOM     16  C   UNL     1       0.930  14.222  18.840  0.00  0.00    +0.000 A 
BRANCH  11  18
ATOM     17  C   UNL     1       4.472  14.549  18.265  0.00  0.00    +0.000 C 
ATOM     18  O   UNL     1       3.103  14.888  18.041  0.00  0.00    +0.000 OA
ENDBRANCH  11  18
BRANCH  15  19
ATOM     19  O   UNL     1      -1.277  13.244  19.538  0.00  0.00    +0.000 OA
ATOM     20  C   UNL     1      -1.529  13.002  20.911  0.00  0.00    +0.000 C 
ENDBRANCH  15  19
BRANCH  16  21
ATOM     21  O   UNL     1       0.528  15.474  19.219  0.00  0.00    +0.000 OA
ATOM     22  C   UNL     1       0.840  15.957  20.515  0.00  0.00    +0.000 C 
ENDBRANCH  16  21
ENDBRANCH   1  13
BRANCH   7  23
ATOM     23  C   UNL     1       4.423   5.659  17.388  0.00  0.00    +0.000 A 
ATOM     24  C   UNL     1       5.178   6.646  16.720  0.00  0.00    +0.000 A 
ATOM     25  C   UNL     1       5.810   6.409  15.493  0.00  0.00    +0.000 A 
ATOM     26  C   UNL     1       5.693   5.169  14.889  0.00  0.00    +0.000 A 
ATOM     27  C   UNL     1       4.933   4.183  15.502  0.00  0.00    +0.000 A 
ATOM     28  C   UNL     1       4.286   4.414  16.733  0.00  0.00    +0.000 A 
BRANCH  28  29
ATOM     29  C   UNL     1       3.475   3.273  17.251  0.00  0.00    +0.000 C 
ATOM     30  O   UNL     1       2.332   3.101  16.839  0.00  0.00    +0.000 OA
ATOM     31  N   UNL     1       4.036   2.488  18.237  0.00  0.00    +0.000 N 
ATOM     32  H   UNL     1       4.936   2.732  18.632  0.00  0.00    +0.000 HD
BRANCH  31  33
ATOM     33  C   UNL     1       3.276   1.426  18.876  0.00  0.00    +0.000 C 
BRANCH  33  34
ATOM     34  C   UNL     1       2.002   1.914  19.595  0.00  0.00    +0.000 C 
BRANCH  34  35
ATOM     35  N   UNL     1       2.100   3.240  20.250  0.00  0.00    +0.000 NA
ATOM     36  C   UNL     1       0.827   3.964  20.230  0.00  0.00    +0.000 C 
ATOM     37  C   UNL     1       2.521   3.056  21.645  0.00  0.00    +0.000 C 
ENDBRANCH  34  35
ENDBRANCH  33  34
ENDBRANCH  31  33
ENDBRANCH  28  29
ENDBRANCH   7  23
TORSDOF 9
ENDMDL
