MODEL 1
REMARK VINA RESULT:      -7.9      0.000      0.000
REMARK  Name = 
REMARK  8 active torsions:
REMARK  status: ('A' for Active; 'I' for Inactive)
REMARK    1  A    between atoms: C_1  and  O_2
REMARK    2  A    between atoms: O_2  and  C_3
REMARK    3  A    between atoms: C_6  and  C_7
REMARK    4  A    between atoms: C_7  and  N_8
REMARK    5  A    between atoms: C_10  and  N_11
REMARK    6  A    between atoms: C_12  and  C_14
REMARK    7  A    between atoms: C_20  and  C_21
REMARK    8  A    between atoms: C_21  and  O_22
REMARK                            x       y       z     vdW  Elec       q    Type
REMARK                         _______ _______ _______ _____ _____    ______ ____
ROOT
ATOM      1  N   UNL     1       2.303   3.040  18.181  0.00  0.00    +0.000 NA
ATOM      2  C   UNL     1       2.066   4.471  18.453  0.00  0.00    +0.000 C 
ATOM      3  C   UNL     1       1.985   4.595  19.982  0.00  0.00    +0.000 C 
ATOM      4  C   UNL     1       1.185   3.342  20.335  0.00  0.00    +0.000 C 
ATOM      5  C   UNL     1       1.617   2.318  19.274  0.00  0.00    +0.000 C 
ENDROOT
BRANCH   3   6
ATOM      6  N   UNL     1       1.371   5.841  20.422  0.00  0.00    +0.000 N 
ATOM      7  C   UNL     1       1.974   7.035  20.076  0.00  0.00    +0.000 C 
ATOM      8  O   UNL     1       2.979   7.101  19.372  0.00  0.00    +0.000 OA
ATOM      9  H   UNL     1       0.873   5.812  21.308  0.00  0.00    +0.000 HD
BRANCH   7  10
ATOM     10  C   UNL     1       1.388   8.279  20.607  0.00  0.00    +0.000 A 
ATOM     11  C   UNL     1       1.085   8.474  21.956  0.00  0.00    +0.000 A 
ATOM     12  C   UNL     1       0.472   9.666  22.346  0.00  0.00    +0.000 A 
ATOM     13  C   UNL     1       0.191  10.617  21.375  0.00  0.00    +0.000 A 
ATOM     14  N   UNL     1       0.467  10.456  20.065  0.00  0.00    +0.000 NA
ATOM     15  C   UNL     1       1.047   9.283  19.709  0.00  0.00    +0.000 A 
ENDBRANCH   7  10
ENDBRANCH   3   6
BRANCH   1  16
ATOM     16  C   UNL     1       3.746   2.729  18.158  0.00  0.00    +0.000 C 
BRANCH  16  20
ATOM     17  C   UNL     1       6.475   5.937  17.105  0.00  0.00    +0.000 A 
ATOM     18  C   UNL     1       6.345   5.536  18.432  0.00  0.00    +0.000 A 
ATOM     19  C   UNL     1       5.434   4.526  18.777  0.00  0.00    +0.000 A 
ATOM     20  C   UNL     1       4.640   3.904  17.800  0.00  0.00    +0.000 A 
ATOM     21  C   UNL     1       4.751   4.346  16.475  0.00  0.00    +0.000 A 
ATOM     22  C   UNL     1       5.657   5.357  16.134  0.00  0.00    +0.000 A 
BRANCH  17  24
ATOM     23  C   UNL     1       7.735   7.888  17.587  0.00  0.00    +0.000 C 
ATOM     24  O   UNL     1       7.335   6.899  16.644  0.00  0.00    +0.000 OA
ENDBRANCH  17  24
ENDBRANCH  16  20
ENDBRANCH   1  16
BRANCH   4  25
ATOM     25  C   UNL     1       1.418   2.852  21.758  0.00  0.00    +0.000 C 
BRANCH  25  26
ATOM     26  O   UNL     1       2.797   2.545  21.938  0.00  0.00    +0.000 OA
ATOM     27  H   UNL     1       3.097   2.074  21.139  0.00  0.00    +0.000 HD
ENDBRANCH  25  26
ENDBRANCH   4  25
TORSDOF 7
ENDMDL
MODEL 2
REMARK VINA RESULT:      -7.8      0.642      1.001
REMARK  Name = 
REMARK  8 active torsions:
REMARK  status: ('A' for Active; 'I' for Inactive)
REMARK    1  A    between atoms: C_1  and  O_2
REMARK    2  A    between atoms: O_2  and  C_3
REMARK    3  A    between atoms: C_6  and  C_7
REMARK    4  A    between atoms: C_7  and  N_8
REMARK    5  A    between atoms: C_10  and  N_11
REMARK    6  A    between atoms: C_12  and  C_14
REMARK    7  A    between atoms: C_20  and  C_21
REMARK    8  A    between atoms: C_21  and  O_22
REMARK                            x       y       z     vdW  Elec       q    Type
REMARK                         _______ _______ _______ _____ _____    ______ ____
ROOT
ATOM      1  N   UNL     1       2.367   3.141  18.058  0.00  0.00    +0.000 NA
ATOM      2  C   UNL     1       2.178   4.567  18.389  0.00  0.00    +0.000 C 
ATOM      3  C   UNL     1       2.030   4.622  19.918  0.00  0.00    +0.000 C 
ATOM      4  C   UNL     1       1.162   3.391  20.171  0.00  0.00    +0.000 C 
ATOM      5  C   UNL     1       1.600   2.399  19.082  0.00  0.00    +0.000 C 
ENDROOT
BRANCH   3   6
ATOM      6  N   UNL     1       1.449   5.872  20.391  0.00  0.00    +0.000 N 
ATOM      7  C   UNL     1       1.967   7.063  19.919  0.00  0.00    +0.000 C 
ATOM      8  O   UNL     1       2.863   7.121  19.080  0.00  0.00    +0.000 OA
ATOM      9  H   UNL     1       1.080   5.869  21.337  0.00  0.00    +0.000 HD
BRANCH   7  10
ATOM     10  C   UNL     1       1.427   8.315  20.478  0.00  0.00    +0.000 A 
ATOM     11  C   UNL     1       0.967   9.375  19.694  0.00  0.00    +0.000 A 
ATOM     12  C   UNL     1       0.534  10.544  20.322  0.00  0.00    +0.000 A 
ATOM     13  C   UNL     1       0.572  10.605  21.709  0.00  0.00    +0.000 A 
ATOM     14  N   UNL     1       1.014   9.601  22.493  0.00  0.00    +0.000 NA
ATOM     15  C   UNL     1       1.445   8.483  21.858  0.00  0.00    +0.000 A 
ENDBRANCH   7  10
ENDBRANCH   3   6
BRANCH   1  16
ATOM     16  C   UNL     1       3.795   2.768  18.085  0.00  0.00    +0.000 C 
BRANCH  16  20
ATOM     17  C   UNL     1       6.699   5.850  17.129  0.00  0.00    +0.000 A 
ATOM     18  C   UNL     1       6.459   5.501  18.454  0.00  0.00    +0.000 A 
ATOM     19  C   UNL     1       5.493   4.532  18.766  0.00  0.00    +0.000 A 
ATOM     20  C   UNL     1       4.751   3.901  17.754  0.00  0.00    +0.000 A 
ATOM     21  C   UNL     1       4.971   4.292  16.428  0.00  0.00    +0.000 A 
ATOM     22  C   UNL     1       5.933   5.261  16.120  0.00  0.00    +0.000 A 
BRANCH  17  24
ATOM     23  C   UNL     1       7.747   7.947  17.488  0.00  0.00    +0.000 C 
ATOM     24  O   UNL     1       7.621   6.768  16.700  0.00  0.00    +0.000 OA
ENDBRANCH  17  24
ENDBRANCH  16  20
ENDBRANCH   1  16
BRANCH   4  25
ATOM     25  C   UNL     1       1.306   2.823  21.578  0.00  0.00    +0.000 C 
BRANCH  25  26
ATOM     26  O   UNL     1       2.433   3.414  22.218  0.00  0.00    +0.000 OA
ATOM     27  H   UNL     1       3.202   3.280  21.634  0.00  0.00    +0.000 HD
ENDBRANCH  25  26
ENDBRANCH   4  25
TORSDOF 7
ENDMDL
MODEL 3
REMARK VINA RESULT:      -7.8      1.274      1.734
REMARK  Name = 
REMARK  8 active torsions:
REMARK  status: ('A' for Active; 'I' for Inactive)
REMARK    1  A    between atoms: C_1  and  O_2
REMARK    2  A    between atoms: O_2  and  C_3
REMARK    3  A    between atoms: C_6  and  C_7
REMARK    4  A    between atoms: C_7  and  N_8
REMARK    5  A    between atoms: C_10  and  N_11
REMARK    6  A    between atoms: C_12  and  C_14
REMARK    7  A    between atoms: C_20  and  C_21
REMARK    8  A    between atoms: C_21  and  O_22
REMARK                            x       y       z     vdW  Elec       q    Type
REMARK                         _______ _______ _______ _____ _____    ______ ____
ROOT
ATOM      1  N   UNL     1       2.842   3.747  18.474  0.00  0.00    +0.000 NA
ATOM      2  C   UNL     1       2.500   5.122  18.888  0.00  0.00    +0.000 C 
ATOM      3  C   UNL     1       2.178   5.037  20.388  0.00  0.00    +0.000 C 
ATOM      4  C   UNL     1       1.392   3.728  20.443  0.00  0.00    +0.000 C 
ATOM      5  C   UNL     1       2.029   2.867  19.341  0.00  0.00    +0.000 C 
ENDROOT
BRANCH   3   6
ATOM      6  N   UNL     1       1.446   6.196  20.882  0.00  0.00    +0.000 N 
ATOM      7  C   UNL     1       1.721   7.435  20.336  0.00  0.00    +0.000 C 
ATOM      8  O   UNL     1       2.519   7.602  19.417  0.00  0.00    +0.000 OA
ATOM      9  H   UNL     1       1.165   6.171  21.859  0.00  0.00    +0.000 HD
BRANCH   7  10
ATOM     10  C   UNL     1       1.036   8.606  20.912  0.00  0.00    +0.000 A 
ATOM     11  C   UNL     1       0.313   9.527  20.153  0.00  0.00    +0.000 A 
ATOM     12  C   UNL     1      -0.245  10.638  20.788  0.00  0.00    +0.000 A 
ATOM     13  C   UNL     1      -0.063  10.782  22.157  0.00  0.00    +0.000 A 
ATOM     14  N   UNL     1       0.634   9.912  22.916  0.00  0.00    +0.000 NA
ATOM     15  C   UNL     1       1.180   8.850  22.273  0.00  0.00    +0.000 A 
ENDBRANCH   7  10
ENDBRANCH   3   6
BRANCH   1  16
ATOM     16  C   UNL     1       4.285   3.480  18.641  0.00  0.00    +0.000 C 
BRANCH  16  20
ATOM     17  C   UNL     1       6.932   5.043  15.576  0.00  0.00    +0.000 A 
ATOM     18  C   UNL     1       7.264   5.174  16.922  0.00  0.00    +0.000 A 
ATOM     19  C   UNL     1       6.390   4.704  17.913  0.00  0.00    +0.000 A 
ATOM     20  C   UNL     1       5.170   4.097  17.573  0.00  0.00    +0.000 A 
ATOM     21  C   UNL     1       4.829   4.010  16.217  0.00  0.00    +0.000 A 
ATOM     22  C   UNL     1       5.700   4.483  15.230  0.00  0.00    +0.000 A 
BRANCH  17  24
ATOM     23  C   UNL     1       7.370   4.904  13.250  0.00  0.00    +0.000 C 
ATOM     24  O   UNL     1       7.705   5.450  14.521  0.00  0.00    +0.000 OA
ENDBRANCH  17  24
ENDBRANCH  16  20
ENDBRANCH   1  16
BRANCH   4  25
ATOM     25  C   UNL     1       1.425   3.055  21.810  0.00  0.00    +0.000 C 
BRANCH  25  26
ATOM     26  O   UNL     1       2.728   2.537  22.056  0.00  0.00    +0.000 OA
ATOM     27  H   UNL     1       3.344   3.291  22.064  0.00  0.00    +0.000 HD
ENDBRANCH  25  26
ENDBRANCH   4  25
TORSDOF 7
ENDMDL
MODEL 4
REMARK VINA RESULT:      -7.4      1.126      1.573
REMARK  Name = 
REMARK  8 active torsions:
REMARK  status: ('A' for Active; 'I' for Inactive)
REMARK    1  A    between atoms: C_1  and  O_2
REMARK    2  A    between atoms: O_2  and  C_3
REMARK    3  A    between atoms: C_6  and  C_7
REMARK    4  A    between atoms: C_7  and  N_8
REMARK    5  A    between atoms: C_10  and  N_11
REMARK    6  A    between atoms: C_12  and  C_14
REMARK    7  A    between atoms: C_20  and  C_21
REMARK    8  A    between atoms: C_21  and  O_22
REMARK                            x       y       z     vdW  Elec       q    Type
REMARK                         _______ _______ _______ _____ _____    ______ ____
ROOT
ATOM      1  N   UNL     1       2.257   2.838  17.599  0.00  0.00    +0.000 NA
ATOM      2  C   UNL     1       2.088   4.301  17.504  0.00  0.00    +0.000 C 
ATOM      3  C   UNL     1       2.148   4.820  18.949  0.00  0.00    +0.000 C 
ATOM      4  C   UNL     1       1.346   3.744  19.679  0.00  0.00    +0.000 C 
ATOM      5  C   UNL     1       1.650   2.459  18.893  0.00  0.00    +0.000 C 
ENDROOT
BRANCH   3   6
ATOM      6  N   UNL     1       1.613   6.168  19.094  0.00  0.00    +0.000 N 
ATOM      7  C   UNL     1       2.380   7.234  18.666  0.00  0.00    +0.000 C 
ATOM      8  O   UNL     1       3.474   7.100  18.122  0.00  0.00    +0.000 OA
ATOM      9  H   UNL     1       0.998   6.327  19.888  0.00  0.00    +0.000 HD
BRANCH   7  10
ATOM     10  C   UNL     1       1.860   8.592  18.905  0.00  0.00    +0.000 A 
ATOM     11  C   UNL     1       1.974   9.635  17.984  0.00  0.00    +0.000 A 
ATOM     12  C   UNL     1       1.505  10.903  18.334  0.00  0.00    +0.000 A 
ATOM     13  C   UNL     1       0.935  11.076  19.588  0.00  0.00    +0.000 A 
ATOM     14  N   UNL     1       0.815  10.090  20.501  0.00  0.00    +0.000 NA
ATOM     15  C   UNL     1       1.294   8.873  20.143  0.00  0.00    +0.000 A 
ENDBRANCH   7  10
ENDBRANCH   3   6
BRANCH   1  16
ATOM     16  C   UNL     1       3.682   2.457  17.544  0.00  0.00    +0.000 C 
BRANCH  16  20
ATOM     17  C   UNL     1       6.587   5.623  16.922  0.00  0.00    +0.000 A 
ATOM     18  C   UNL     1       6.405   5.078  18.190  0.00  0.00    +0.000 A 
ATOM     19  C   UNL     1       5.439   4.083  18.399  0.00  0.00    +0.000 A 
ATOM     20  C   UNL     1       4.640   3.619  17.341  0.00  0.00    +0.000 A 
ATOM     21  C   UNL     1       4.803   4.204  16.080  0.00  0.00    +0.000 A 
ATOM     22  C   UNL     1       5.765   5.200  15.875  0.00  0.00    +0.000 A 
BRANCH  17  24
ATOM     23  C   UNL     1       7.623   7.676  17.501  0.00  0.00    +0.000 C 
ATOM     24  O   UNL     1       7.503   6.587  16.592  0.00  0.00    +0.000 OA
ENDBRANCH  17  24
ENDBRANCH  16  20
ENDBRANCH   1  16
BRANCH   4  25
ATOM     25  C   UNL     1       1.691   3.626  21.158  0.00  0.00    +0.000 C 
BRANCH  25  26
ATOM     26  O   UNL     1       2.494   4.735  21.551  0.00  0.00    +0.000 OA
ATOM     27  H   UNL     1       2.866   4.528  22.427  0.00  0.00    +0.000 HD
ENDBRANCH  25  26
ENDBRANCH   4  25
TORSDOF 7
ENDMDL
MODEL 5
REMARK VINA RESULT:      -7.3      3.495      6.652
REMARK  Name = 
REMARK  8 active torsions:
REMARK  status: ('A' for Active; 'I' for Inactive)
REMARK    1  A    between atoms: C_1  and  O_2
REMARK    2  A    between atoms: O_2  and  C_3
REMARK    3  A    between atoms: C_6  and  C_7
REMARK    4  A    between atoms: C_7  and  N_8
REMARK    5  A    between atoms: C_10  and  N_11
REMARK    6  A    between atoms: C_12  and  C_14
REMARK    7  A    between atoms: C_20  and  C_21
REMARK    8  A    between atoms: C_21  and  O_22
REMARK                            x       y       z     vdW  Elec       q    Type
REMARK                         _______ _______ _______ _____ _____    ______ ____
ROOT
ATOM      1  N   UNL     1       7.242   7.976  17.216  0.00  0.00    +0.000 NA
ATOM      2  C   UNL     1       5.950   7.618  17.834  0.00  0.00    +0.000 C 
ATOM      3  C   UNL     1       5.949   6.085  17.935  0.00  0.00    +0.000 C 
ATOM      4  C   UNL     1       6.582   5.704  16.598  0.00  0.00    +0.000 C 
ATOM      5  C   UNL     1       7.568   6.848  16.317  0.00  0.00    +0.000 C 
ENDROOT
BRANCH   3   6
ATOM      6  N   UNL     1       4.619   5.528  18.148  0.00  0.00    +0.000 N 
ATOM      7  C   UNL     1       4.490   4.416  18.959  0.00  0.00    +0.000 C 
ATOM      8  O   UNL     1       5.436   3.901  19.550  0.00  0.00    +0.000 OA
ATOM      9  H   UNL     1       3.961   5.621  17.379  0.00  0.00    +0.000 HD
BRANCH   7  10
ATOM     10  C   UNL     1       3.150   3.814  19.088  0.00  0.00    +0.000 A 
ATOM     11  C   UNL     1       2.428   3.789  20.282  0.00  0.00    +0.000 A 
ATOM     12  C   UNL     1       1.194   3.137  20.314  0.00  0.00    +0.000 A 
ATOM     13  C   UNL     1       0.728   2.541  19.150  0.00  0.00    +0.000 A 
ATOM     14  N   UNL     1       1.404   2.545  17.982  0.00  0.00    +0.000 NA
ATOM     15  C   UNL     1       2.608   3.170  17.982  0.00  0.00    +0.000 A 
ENDBRANCH   7  10
ENDBRANCH   3   6
BRANCH   1  16
ATOM     16  C   UNL     1       8.291   8.167  18.238  0.00  0.00    +0.000 C 
BRANCH  16  20
ATOM     17  C   UNL     1       9.510  12.276  18.929  0.00  0.00    +0.000 A 
ATOM     18  C   UNL     1       9.804  11.290  19.867  0.00  0.00    +0.000 A 
ATOM     19  C   UNL     1       9.376   9.970  19.663  0.00  0.00    +0.000 A 
ATOM     20  C   UNL     1       8.646   9.617  18.516  0.00  0.00    +0.000 A 
ATOM     21  C   UNL     1       8.320  10.626  17.601  0.00  0.00    +0.000 A 
ATOM     22  C   UNL     1       8.745  11.943  17.809  0.00  0.00    +0.000 A 
BRANCH  17  24
ATOM     23  C   UNL     1      11.283  13.847  19.031  0.00  0.00    +0.000 C 
ATOM     24  O   UNL     1       9.883  13.591  19.011  0.00  0.00    +0.000 OA
ENDBRANCH  17  24
ENDBRANCH  16  20
ENDBRANCH   1  16
BRANCH   4  25
ATOM     25  C   UNL     1       7.254   4.336  16.611  0.00  0.00    +0.000 C 
BRANCH  25  26
ATOM     26  O   UNL     1       7.860   4.113  17.880  0.00  0.00    +0.000 OA
ATOM     27  H   UNL     1       8.657   4.671  17.923  0.00  0.00    +0.000 HD
ENDBRANCH  25  26
ENDBRANCH   4  25
TORSDOF 7
ENDMDL
MODEL 6
REMARK VINA RESULT:      -7.3      3.445      6.736
REMARK  Name = 
REMARK  8 active torsions:
REMARK  status: ('A' for Active; 'I' for Inactive)
REMARK    1  A    between atoms: C_1  and  O_2
REMARK    2  A    between atoms: O_2  and  C_3
REMARK    3  A    between atoms: C_6  and  C_7
REMARK    4  A    between atoms: C_7  and  N_8
REMARK    5  A    between atoms: C_10  and  N_11
REMARK    6  A    between atoms: C_12  and  C_14
REMARK    7  A    between atoms: C_20  and  C_21
REMARK    8  A    between atoms: C_21  and  O_22
REMARK                            x       y       z     vdW  Elec       q    Type
REMARK                         _______ _______ _______ _____ _____    ______ ____
ROOT
ATOM      1  N   UNL     1       7.246   7.986  17.226  0.00  0.00    +0.000 NA
ATOM      2  C   UNL     1       5.944   7.617  17.815  0.00  0.00    +0.000 C 
ATOM      3  C   UNL     1       5.949   6.083  17.908  0.00  0.00    +0.000 C 
ATOM      4  C   UNL     1       6.613   5.714  16.582  0.00  0.00    +0.000 C 
ATOM      5  C   UNL     1       7.597   6.866  16.327  0.00  0.00    +0.000 C 
ENDROOT
BRANCH   3   6
ATOM      6  N   UNL     1       4.620   5.517  18.091  0.00  0.00    +0.000 N 
ATOM      7  C   UNL     1       4.476   4.417  18.915  0.00  0.00    +0.000 C 
ATOM      8  O   UNL     1       5.409   3.922  19.543  0.00  0.00    +0.000 OA
ATOM      9  H   UNL     1       3.984   5.591  17.301  0.00  0.00    +0.000 HD
BRANCH   7  10
ATOM     10  C   UNL     1       3.139   3.805  19.015  0.00  0.00    +0.000 A 
ATOM     11  C   UNL     1       2.297   3.966  20.116  0.00  0.00    +0.000 A 
ATOM     12  C   UNL     1       1.075   3.291  20.139  0.00  0.00    +0.000 A 
ATOM     13  C   UNL     1       0.742   2.484  19.059  0.00  0.00    +0.000 A 
ATOM     14  N   UNL     1       1.536   2.305  17.984  0.00  0.00    +0.000 NA
ATOM     15  C   UNL     1       2.724   2.959  17.993  0.00  0.00    +0.000 A 
ENDBRANCH   7  10
ENDBRANCH   3   6
BRANCH   1  16
ATOM     16  C   UNL     1       8.272   8.178  18.270  0.00  0.00    +0.000 C 
BRANCH  16  20
ATOM     17  C   UNL     1       9.304  12.337  18.964  0.00  0.00    +0.000 A 
ATOM     18  C   UNL     1       8.628  11.967  17.805  0.00  0.00    +0.000 A 
ATOM     19  C   UNL     1       8.330  10.618  17.562  0.00  0.00    +0.000 A 
ATOM     20  C   UNL     1       8.704   9.619  18.476  0.00  0.00    +0.000 A 
ATOM     21  C   UNL     1       9.420  10.000  19.617  0.00  0.00    +0.000 A 
ATOM     22  C   UNL     1       9.720  11.345  19.856  0.00  0.00    +0.000 A 
BRANCH  17  24
ATOM     23  C   UNL     1       9.758  14.552  18.251  0.00  0.00    +0.000 C 
ATOM     24  O   UNL     1       9.639  13.618  19.318  0.00  0.00    +0.000 OA
ENDBRANCH  17  24
ENDBRANCH  16  20
ENDBRANCH   1  16
BRANCH   4  25
ATOM     25  C   UNL     1       7.292   4.350  16.600  0.00  0.00    +0.000 C 
BRANCH  25  26
ATOM     26  O   UNL     1       7.823   4.098  17.897  0.00  0.00    +0.000 OA
ATOM     27  H   UNL     1       7.109   3.704  18.431  0.00  0.00    +0.000 HD
ENDBRANCH  25  26
ENDBRANCH   4  25
TORSDOF 7
ENDMDL
MODEL 7
REMARK VINA RESULT:      -7.3      0.945      1.074
REMARK  Name = 
REMARK  8 active torsions:
REMARK  status: ('A' for Active; 'I' for Inactive)
REMARK    1  A    between atoms: C_1  and  O_2
REMARK    2  A    between atoms: O_2  and  C_3
REMARK    3  A    between atoms: C_6  and  C_7
REMARK    4  A    between atoms: C_7  and  N_8
REMARK    5  A    between atoms: C_10  and  N_11
REMARK    6  A    between atoms: C_12  and  C_14
REMARK    7  A    between atoms: C_20  and  C_21
REMARK    8  A    between atoms: C_21  and  O_22
REMARK                            x       y       z     vdW  Elec       q    Type
REMARK                         _______ _______ _______ _____ _____    ______ ____
ROOT
ATOM      1  N   UNL     1       2.601   3.001  18.030  0.00  0.00    +0.000 NA
ATOM      2  C   UNL     1       2.346   4.453  17.968  0.00  0.00    +0.000 C 
ATOM      3  C   UNL     1       2.397   4.946  19.423  0.00  0.00    +0.000 C 
ATOM      4  C   UNL     1       1.669   3.811  20.140  0.00  0.00    +0.000 C 
ATOM      5  C   UNL     1       2.035   2.562  19.324  0.00  0.00    +0.000 C 
ENDROOT
BRANCH   3   6
ATOM      6  N   UNL     1       1.788   6.257  19.603  0.00  0.00    +0.000 N 
ATOM      7  C   UNL     1       2.341   7.340  18.948  0.00  0.00    +0.000 C 
ATOM      8  O   UNL     1       3.294   7.245  18.178  0.00  0.00    +0.000 OA
ATOM      9  H   UNL     1       1.352   6.433  20.505  0.00  0.00    +0.000 HD
BRANCH   7  10
ATOM     10  C   UNL     1       1.766   8.670  19.215  0.00  0.00    +0.000 A 
ATOM     11  C   UNL     1       1.059   8.986  20.377  0.00  0.00    +0.000 A 
ATOM     12  C   UNL     1       0.499  10.258  20.505  0.00  0.00    +0.000 A 
ATOM     13  C   UNL     1       0.671  11.167  19.469  0.00  0.00    +0.000 A 
ATOM     14  N   UNL     1       1.345  10.891  18.333  0.00  0.00    +0.000 NA
ATOM     15  C   UNL     1       1.865   9.643  18.227  0.00  0.00    +0.000 A 
ENDBRANCH   7  10
ENDBRANCH   3   6
BRANCH   1  16
ATOM     16  C   UNL     1       4.045   2.705  17.948  0.00  0.00    +0.000 C 
BRANCH  16  20
ATOM     17  C   UNL     1       6.728   5.999  17.059  0.00  0.00    +0.000 A 
ATOM     18  C   UNL     1       6.585   5.546  18.367  0.00  0.00    +0.000 A 
ATOM     19  C   UNL     1       5.689   4.507  18.660  0.00  0.00    +0.000 A 
ATOM     20  C   UNL     1       4.922   3.908  17.648  0.00  0.00    +0.000 A 
ATOM     21  C   UNL     1       5.043   4.402  16.343  0.00  0.00    +0.000 A 
ATOM     22  C   UNL     1       5.935   5.440  16.054  0.00  0.00    +0.000 A 
BRANCH  17  24
ATOM     23  C   UNL     1       7.715   8.104  17.527  0.00  0.00    +0.000 C 
ATOM     24  O   UNL     1       7.577   6.993  16.647  0.00  0.00    +0.000 OA
ENDBRANCH  17  24
ENDBRANCH  16  20
ENDBRANCH   1  16
BRANCH   4  25
ATOM     25  C   UNL     1       2.041   3.683  21.612  0.00  0.00    +0.000 C 
BRANCH  25  26
ATOM     26  O   UNL     1       1.672   2.393  22.089  0.00  0.00    +0.000 OA
ATOM     27  H   UNL     1       0.717   2.416  22.280  0.00  0.00    +0.000 HD
ENDBRANCH  25  26
ENDBRANCH   4  25
TORSDOF 7
ENDMDL
MODEL 8
REMARK VINA RESULT:      -7.2      1.009      1.112
REMARK  Name = 
REMARK  8 active torsions:
REMARK  status: ('A' for Active; 'I' for Inactive)
REMARK    1  A    between atoms: C_1  and  O_2
REMARK    2  A    between atoms: O_2  and  C_3
REMARK    3  A    between atoms: C_6  and  C_7
REMARK    4  A    between atoms: C_7  and  N_8
REMARK    5  A    between atoms: C_10  and  N_11
REMARK    6  A    between atoms: C_12  and  C_14
REMARK    7  A    between atoms: C_20  and  C_21
REMARK    8  A    between atoms: C_21  and  O_22
REMARK                            x       y       z     vdW  Elec       q    Type
REMARK                         _______ _______ _______ _____ _____    ______ ____
ROOT
ATOM      1  N   UNL     1       2.913   4.140  18.490  0.00  0.00    +0.000 NA
ATOM      2  C   UNL     1       2.575   5.475  19.018  0.00  0.00    +0.000 C 
ATOM      3  C   UNL     1       2.222   5.259  20.498  0.00  0.00    +0.000 C 
ATOM      4  C   UNL     1       1.424   3.959  20.420  0.00  0.00    +0.000 C 
ATOM      5  C   UNL     1       2.076   3.194  19.259  0.00  0.00    +0.000 C 
ENDROOT
BRANCH   3   6
ATOM      6  N   UNL     1       1.491   6.377  21.080  0.00  0.00    +0.000 N 
ATOM      7  C   UNL     1       1.587   7.617  20.478  0.00  0.00    +0.000 C 
ATOM      8  O   UNL     1       2.221   7.814  19.444  0.00  0.00    +0.000 OA
ATOM      9  H   UNL     1       1.365   6.359  22.089  0.00  0.00    +0.000 HD
BRANCH   7  10
ATOM     10  C   UNL     1       0.913   8.752  21.133  0.00  0.00    +0.000 A 
ATOM     11  C   UNL     1       0.414   8.704  22.436  0.00  0.00    +0.000 A 
ATOM     12  C   UNL     1      -0.265   9.814  22.942  0.00  0.00    +0.000 A 
ATOM     13  C   UNL     1      -0.414  10.929  22.128  0.00  0.00    +0.000 A 
ATOM     14  N   UNL     1       0.053  11.004  20.865  0.00  0.00    +0.000 NA
ATOM     15  C   UNL     1       0.694   9.906  20.391  0.00  0.00    +0.000 A 
ENDBRANCH   7  10
ENDBRANCH   3   6
BRANCH   1  16
ATOM     16  C   UNL     1       4.350   3.843  18.660  0.00  0.00    +0.000 C 
BRANCH  16  20
ATOM     17  C   UNL     1       7.127   6.983  17.532  0.00  0.00    +0.000 A 
ATOM     18  C   UNL     1       7.374   6.200  18.656  0.00  0.00    +0.000 A 
ATOM     19  C   UNL     1       6.458   5.211  19.042  0.00  0.00    +0.000 A 
ATOM     20  C   UNL     1       5.279   4.993  18.311  0.00  0.00    +0.000 A 
ATOM     21  C   UNL     1       5.021   5.816  17.207  0.00  0.00    +0.000 A 
ATOM     22  C   UNL     1       5.936   6.804  16.825  0.00  0.00    +0.000 A 
BRANCH  17  24
ATOM     23  C   UNL     1       8.171   9.078  17.909  0.00  0.00    +0.000 C 
ATOM     24  O   UNL     1       7.950   7.967  17.049  0.00  0.00    +0.000 OA
ENDBRANCH  17  24
ENDBRANCH  16  20
ENDBRANCH   1  16
BRANCH   4  25
ATOM     25  C   UNL     1       1.424   3.166  21.722  0.00  0.00    +0.000 C 
BRANCH  25  26
ATOM     26  O   UNL     1       2.713   2.601  21.937  0.00  0.00    +0.000 OA
ATOM     27  H   UNL     1       2.805   2.445  22.894  0.00  0.00    +0.000 HD
ENDBRANCH  25  26
ENDBRANCH   4  25
TORSDOF 7
ENDMDL
MODEL 9
REMARK VINA RESULT:      -7.0      4.595      7.233
REMARK  Name = 
REMARK  8 active torsions:
REMARK  status: ('A' for Active; 'I' for Inactive)
REMARK    1  A    between atoms: C_1  and  O_2
REMARK    2  A    between atoms: O_2  and  C_3
REMARK    3  A    between atoms: C_6  and  C_7
REMARK    4  A    between atoms: C_7  and  N_8
REMARK    5  A    between atoms: C_10  and  N_11
REMARK    6  A    between atoms: C_12  and  C_14
REMARK    7  A    between atoms: C_20  and  C_21
REMARK    8  A    between atoms: C_21  and  O_22
REMARK                            x       y       z     vdW  Elec       q    Type
REMARK                         _______ _______ _______ _____ _____    ______ ____
ROOT
ATOM      1  N   UNL     1       0.941  10.147  19.593  0.00  0.00    +0.000 NA
ATOM      2  C   UNL     1      -0.527  10.022  19.684  0.00  0.00    +0.000 C 
ATOM      3  C   UNL     1      -1.094  11.263  18.977  0.00  0.00    +0.000 C 
ATOM      4  C   UNL     1      -0.129  12.342  19.464  0.00  0.00    +0.000 C 
ATOM      5  C   UNL     1       1.209  11.602  19.614  0.00  0.00    +0.000 C 
ENDROOT
BRANCH   3   6
ATOM      6  N   UNL     1      -2.491  11.517  19.303  0.00  0.00    +0.000 N 
ATOM      7  C   UNL     1      -3.410  11.585  18.274  0.00  0.00    +0.000 C 
ATOM      8  O   UNL     1      -3.116  11.391  17.097  0.00  0.00    +0.000 OA
ATOM      9  H   UNL     1      -2.666  12.096  20.121  0.00  0.00    +0.000 HD
BRANCH   7  10
ATOM     10  C   UNL     1      -4.800  11.933  18.617  0.00  0.00    +0.000 A 
ATOM     11  C   UNL     1      -5.194  12.381  19.879  0.00  0.00    +0.000 A 
ATOM     12  C   UNL     1      -6.548  12.623  20.120  0.00  0.00    +0.000 A 
ATOM     13  C   UNL     1      -7.454  12.413  19.089  0.00  0.00    +0.000 A 
ATOM     14  N   UNL     1      -7.105  11.977  17.861  0.00  0.00    +0.000 NA
ATOM     15  C   UNL     1      -5.786  11.733  17.658  0.00  0.00    +0.000 A 
ENDBRANCH   7  10
ENDBRANCH   3   6
BRANCH   1  16
ATOM     16  C   UNL     1       1.457   9.526  18.357  0.00  0.00    +0.000 C 
BRANCH  16  20
ATOM     17  C   UNL     1       3.537   5.750  18.876  0.00  0.00    +0.000 A 
ATOM     18  C   UNL     1       2.656   6.205  19.853  0.00  0.00    +0.000 A 
ATOM     19  C   UNL     1       2.014   7.443  19.704  0.00  0.00    +0.000 A 
ATOM     20  C   UNL     1       2.245   8.245  18.575  0.00  0.00    +0.000 A 
ATOM     21  C   UNL     1       3.166   7.797  17.620  0.00  0.00    +0.000 A 
ATOM     22  C   UNL     1       3.808   6.563  17.773  0.00  0.00    +0.000 A 
BRANCH  17  24
ATOM     23  C   UNL     1       5.484   4.542  18.265  0.00  0.00    +0.000 C 
ATOM     24  O   UNL     1       4.211   4.558  18.903  0.00  0.00    +0.000 OA
ENDBRANCH  17  24
ENDBRANCH  16  20
ENDBRANCH   1  16
BRANCH   4  25
ATOM     25  C   UNL     1      -0.037  13.543  18.530  0.00  0.00    +0.000 C 
BRANCH  25  26
ATOM     26  O   UNL     1      -0.743  13.266  17.325  0.00  0.00    +0.000 OA
ATOM     27  H   UNL     1      -1.033  14.119  16.956  0.00  0.00    +0.000 HD
ENDBRANCH  25  26
ENDBRANCH   4  25
TORSDOF 7
ENDMDL
