MODEL 1
REMARK VINA RESULT:      -7.6      0.000      0.000
REMARK  Name = 
REMARK  3 active torsions:
REMARK  status: ('A' for Active; 'I' for Inactive)
REMARK    1  A    between atoms: C_7  and  C_8
REMARK    2  A    between atoms: C_8  and  N_9
REMARK    3  A    between atoms: N_9  and  C_10
REMARK                            x       y       z     vdW  Elec       q    Type
REMARK                         _______ _______ _______ _____ _____    ______ ____
ROOT
ATOM      1  N   UNL     1       7.859   5.122  13.664  0.00  0.00    +0.000 N 
ATOM      2  C   UNL     1       7.149   5.069  14.848  0.00  0.00    +0.000 A 
ATOM      3  N   UNL     1       7.438   6.006  15.763  0.00  0.00    +0.000 NA
ATOM      4  C   UNL     1       6.773   6.016  16.937  0.00  0.00    +0.000 A 
ATOM      5  N   UNL     1       7.122   7.023  17.829  0.00  0.00    +0.000 N 
ATOM      6  C   UNL     1       5.801   5.034  17.177  0.00  0.00    +0.000 A 
ATOM      7  C   UNL     1       4.872   4.682  18.216  0.00  0.00    +0.000 A 
ATOM      8  C   UNL     1       4.183   3.563  17.769  0.00  0.00    +0.000 A 
ATOM      9  N   UNL     1       4.653   3.231  16.527  0.00  0.00    +0.000 N 
ATOM     10  C   UNL     1       5.626   4.114  16.154  0.00  0.00    +0.000 A 
ATOM     11  N   UNL     1       6.274   4.069  14.983  0.00  0.00    +0.000 NA
ATOM     12  H   UNL     1       8.728   5.616  13.808  0.00  0.00    +0.000 HD
ATOM     13  H   UNL     1       7.903   4.206  13.241  0.00  0.00    +0.000 HD
ATOM     14  H   UNL     1       7.965   7.483  17.503  0.00  0.00    +0.000 HD
ATOM     15  H   UNL     1       7.124   6.751  18.802  0.00  0.00    +0.000 HD
ATOM     16  H   UNL     1       4.339   2.464  15.949  0.00  0.00    +0.000 HD
ENDROOT
BRANCH   7  17
ATOM     17  C   UNL     1       4.669   5.356  19.543  0.00  0.00    +0.000 C 
BRANCH  17  18
ATOM     18  N   UNL     1       3.266   5.638  19.830  0.00  0.00    +0.000 N 
ATOM     19  H   UNL     1       2.974   5.247  20.719  0.00  0.00    +0.000 HD
BRANCH  18  20
ATOM     20  C   UNL     1       2.666   6.854  19.522  0.00  0.00    +0.000 A 
ATOM     21  C   UNL     1       2.677   7.432  18.248  0.00  0.00    +0.000 A 
ATOM     22  C   UNL     1       1.970   8.616  17.983  0.00  0.00    +0.000 A 
ATOM     23  C   UNL     1       1.229   9.236  18.989  0.00  0.00    +0.000 A 
ATOM     24 CL   UNL     1       0.383  10.690  18.598  0.00  0.00    +0.000 Cl
ATOM     25  C   UNL     1       1.185   8.661  20.259  0.00  0.00    +0.000 A 
ATOM     26 CL   UNL     1       0.285   9.352  21.563  0.00  0.00    +0.000 Cl
ATOM     27  C   UNL     1       1.886   7.474  20.508  0.00  0.00    +0.000 A 
ENDBRANCH  18  20
ENDBRANCH  17  18
ENDBRANCH   7  17
TORSDOF 3
ENDMDL
MODEL 2
REMARK VINA RESULT:      -7.6      1.743      3.353
REMARK  Name = 
REMARK  3 active torsions:
REMARK  status: ('A' for Active; 'I' for Inactive)
REMARK    1  A    between atoms: C_7  and  C_8
REMARK    2  A    between atoms: C_8  and  N_9
REMARK    3  A    between atoms: N_9  and  C_10
REMARK                            x       y       z     vdW  Elec       q    Type
REMARK                         _______ _______ _______ _____ _____    ______ ____
ROOT
ATOM      1  N   UNL     1       8.627   7.475  18.877  0.00  0.00    +0.000 N 
ATOM      2  C   UNL     1       7.694   6.593  18.367  0.00  0.00    +0.000 A 
ATOM      3  N   UNL     1       7.086   5.786  19.248  0.00  0.00    +0.000 NA
ATOM      4  C   UNL     1       6.158   4.908  18.816  0.00  0.00    +0.000 A 
ATOM      5  N   UNL     1       5.566   4.113  19.791  0.00  0.00    +0.000 N 
ATOM      6  C   UNL     1       5.858   4.853  17.447  0.00  0.00    +0.000 A 
ATOM      7  C   UNL     1       4.971   4.132  16.576  0.00  0.00    +0.000 A 
ATOM      8  C   UNL     1       5.205   4.605  15.292  0.00  0.00    +0.000 A 
ATOM      9  N   UNL     1       6.182   5.561  15.354  0.00  0.00    +0.000 N 
ATOM     10  C   UNL     1       6.582   5.726  16.649  0.00  0.00    +0.000 A 
ATOM     11  N   UNL     1       7.515   6.601  17.043  0.00  0.00    +0.000 NA
ATOM     12  H   UNL     1       8.973   7.132  19.761  0.00  0.00    +0.000 HD
ATOM     13  H   UNL     1       9.303   7.717  18.168  0.00  0.00    +0.000 HD
ATOM     14  H   UNL     1       6.078   4.212  20.661  0.00  0.00    +0.000 HD
ATOM     15  H   UNL     1       5.371   3.163  19.508  0.00  0.00    +0.000 HD
ATOM     16  H   UNL     1       6.560   6.088  14.578  0.00  0.00    +0.000 HD
ENDROOT
BRANCH   7  17
ATOM     17  C   UNL     1       3.983   3.060  16.942  0.00  0.00    +0.000 C 
BRANCH  17  18
ATOM     18  N   UNL     1       2.637   3.579  17.165  0.00  0.00    +0.000 N 
ATOM     19  H   UNL     1       1.934   2.849  17.104  0.00  0.00    +0.000 HD
BRANCH  18  20
ATOM     20  C   UNL     1       2.356   4.558  18.112  0.00  0.00    +0.000 A 
ATOM     21  C   UNL     1       2.105   4.291  19.462  0.00  0.00    +0.000 A 
ATOM     22  C   UNL     1       1.923   5.334  20.385  0.00  0.00    +0.000 A 
ATOM     23  C   UNL     1       2.001   6.665  19.971  0.00  0.00    +0.000 A 
ATOM     24 CL   UNL     1       1.766   7.899  21.156  0.00  0.00    +0.000 Cl
ATOM     25  C   UNL     1       2.275   6.950  18.634  0.00  0.00    +0.000 A 
ATOM     26 CL   UNL     1       2.401   8.566  18.034  0.00  0.00    +0.000 Cl
ATOM     27  C   UNL     1       2.466   5.901  17.725  0.00  0.00    +0.000 A 
ENDBRANCH  18  20
ENDBRANCH  17  18
ENDBRANCH   7  17
TORSDOF 3
ENDMDL
MODEL 3
REMARK VINA RESULT:      -7.6      2.862      4.460
REMARK  Name = 
REMARK  3 active torsions:
REMARK  status: ('A' for Active; 'I' for Inactive)
REMARK    1  A    between atoms: C_7  and  C_8
REMARK    2  A    between atoms: C_8  and  N_9
REMARK    3  A    between atoms: N_9  and  C_10
REMARK                            x       y       z     vdW  Elec       q    Type
REMARK                         _______ _______ _______ _____ _____    ______ ____
ROOT
ATOM      1  N   UNL     1       8.553   7.657  18.831  0.00  0.00    +0.000 N 
ATOM      2  C   UNL     1       7.744   6.743  18.183  0.00  0.00    +0.000 A 
ATOM      3  N   UNL     1       7.157   5.811  18.950  0.00  0.00    +0.000 NA
ATOM      4  C   UNL     1       6.347   4.895  18.382  0.00  0.00    +0.000 A 
ATOM      5  N   UNL     1       5.770   3.969  19.243  0.00  0.00    +0.000 N 
ATOM      6  C   UNL     1       6.146   4.932  16.994  0.00  0.00    +0.000 A 
ATOM      7  C   UNL     1       5.390   4.214  16.005  0.00  0.00    +0.000 A 
ATOM      8  C   UNL     1       5.664   4.815  14.784  0.00  0.00    +0.000 A 
ATOM      9  N   UNL     1       6.540   5.846  14.994  0.00  0.00    +0.000 N 
ATOM     10  C   UNL     1       6.835   5.932  16.324  0.00  0.00    +0.000 A 
ATOM     11  N   UNL     1       7.653   6.849  16.855  0.00  0.00    +0.000 NA
ATOM     12  H   UNL     1       8.871   7.270  19.708  0.00  0.00    +0.000 HD
ATOM     13  H   UNL     1       9.249   8.018  18.195  0.00  0.00    +0.000 HD
ATOM     14  H   UNL     1       6.212   4.038  20.154  0.00  0.00    +0.000 HD
ATOM     15  H   UNL     1       5.685   3.034  18.872  0.00  0.00    +0.000 HD
ATOM     16  H   UNL     1       6.916   6.468  14.293  0.00  0.00    +0.000 HD
ENDROOT
BRANCH   7  17
ATOM     17  C   UNL     1       4.487   3.031  16.209  0.00  0.00    +0.000 C 
BRANCH  17  18
ATOM     18  N   UNL     1       3.122   3.411  16.563  0.00  0.00    +0.000 N 
ATOM     19  H   UNL     1       2.468   3.224  15.811  0.00  0.00    +0.000 HD
BRANCH  18  20
ATOM     20  C   UNL     1       2.594   3.216  17.835  0.00  0.00    +0.000 A 
ATOM     21  C   UNL     1       2.451   1.962  18.439  0.00  0.00    +0.000 A 
ATOM     22  C   UNL     1       1.999   1.843  19.763  0.00  0.00    +0.000 A 
ATOM     23  C   UNL     1       1.691   2.981  20.509  0.00  0.00    +0.000 A 
ATOM     24 CL   UNL     1       1.138   2.765  22.131  0.00  0.00    +0.000 Cl
ATOM     25  C   UNL     1       1.850   4.240  19.932  0.00  0.00    +0.000 A 
ATOM     26 CL   UNL     1       1.504   5.705  20.783  0.00  0.00    +0.000 Cl
ATOM     27  C   UNL     1       2.313   4.347  18.614  0.00  0.00    +0.000 A 
ENDBRANCH  18  20
ENDBRANCH  17  18
ENDBRANCH   7  17
TORSDOF 3
ENDMDL
MODEL 4
REMARK VINA RESULT:      -7.5      1.676      1.994
REMARK  Name = 
REMARK  3 active torsions:
REMARK  status: ('A' for Active; 'I' for Inactive)
REMARK    1  A    between atoms: C_7  and  C_8
REMARK    2  A    between atoms: C_8  and  N_9
REMARK    3  A    between atoms: N_9  and  C_10
REMARK                            x       y       z     vdW  Elec       q    Type
REMARK                         _______ _______ _______ _____ _____    ______ ____
ROOT
ATOM      1  N   UNL     1       7.656   5.505  15.271  0.00  0.00    +0.000 N 
ATOM      2  C   UNL     1       6.612   5.443  16.174  0.00  0.00    +0.000 A 
ATOM      3  N   UNL     1       5.688   6.412  16.090  0.00  0.00    +0.000 NA
ATOM      4  C   UNL     1       4.637   6.404  16.934  0.00  0.00    +0.000 A 
ATOM      5  N   UNL     1       3.718   7.435  16.779  0.00  0.00    +0.000 N 
ATOM      6  C   UNL     1       4.542   5.384  17.893  0.00  0.00    +0.000 A 
ATOM      7  C   UNL     1       3.636   4.976  18.932  0.00  0.00    +0.000 A 
ATOM      8  C   UNL     1       4.176   3.830  19.501  0.00  0.00    +0.000 A 
ATOM      9  N   UNL     1       5.350   3.539  18.860  0.00  0.00    +0.000 N 
ATOM     10  C   UNL     1       5.581   4.465  17.883  0.00  0.00    +0.000 A 
ATOM     11  N   UNL     1       6.641   4.449  17.066  0.00  0.00    +0.000 NA
ATOM     12  H   UNL     1       7.764   6.451  14.938  0.00  0.00    +0.000 HD
ATOM     13  H   UNL     1       8.471   5.042  15.648  0.00  0.00    +0.000 HD
ATOM     14  H   UNL     1       4.102   8.135  16.152  0.00  0.00    +0.000 HD
ATOM     15  H   UNL     1       3.324   7.791  17.638  0.00  0.00    +0.000 HD
ATOM     16  H   UNL     1       5.964   2.761  19.051  0.00  0.00    +0.000 HD
ENDROOT
BRANCH   7  17
ATOM     17  C   UNL     1       2.358   5.641  19.360  0.00  0.00    +0.000 C 
BRANCH  17  18
ATOM     18  N   UNL     1       2.573   6.724  20.315  0.00  0.00    +0.000 N 
ATOM     19  H   UNL     1       3.559   6.882  20.495  0.00  0.00    +0.000 HD
BRANCH  18  20
ATOM     20  C   UNL     1       1.804   7.882  20.323  0.00  0.00    +0.000 A 
ATOM     21  C   UNL     1       1.549   8.660  19.189  0.00  0.00    +0.000 A 
ATOM     22  C   UNL     1       0.684   9.765  19.248  0.00  0.00    +0.000 A 
ATOM     23  C   UNL     1       0.051  10.104  20.444  0.00  0.00    +0.000 A 
ATOM     24 CL   UNL     1      -0.999  11.475  20.449  0.00  0.00    +0.000 Cl
ATOM     25  C   UNL     1       0.274   9.326  21.580  0.00  0.00    +0.000 A 
ATOM     26 CL   UNL     1      -0.475   9.663  23.101  0.00  0.00    +0.000 Cl
ATOM     27  C   UNL     1       1.130   8.219  21.506  0.00  0.00    +0.000 A 
ENDBRANCH  18  20
ENDBRANCH  17  18
ENDBRANCH   7  17
TORSDOF 3
ENDMDL
MODEL 5
REMARK VINA RESULT:      -7.4      3.024      4.774
REMARK  Name = 
REMARK  3 active torsions:
REMARK  status: ('A' for Active; 'I' for Inactive)
REMARK    1  A    between atoms: C_7  and  C_8
REMARK    2  A    between atoms: C_8  and  N_9
REMARK    3  A    between atoms: N_9  and  C_10
REMARK                            x       y       z     vdW  Elec       q    Type
REMARK                         _______ _______ _______ _____ _____    ______ ____
ROOT
ATOM      1  N   UNL     1       3.959   0.878  18.212  0.00  0.00    +0.000 N 
ATOM      2  C   UNL     1       3.472   2.089  18.666  0.00  0.00    +0.000 A 
ATOM      3  N   UNL     1       2.470   2.037  19.556  0.00  0.00    +0.000 NA
ATOM      4  C   UNL     1       1.956   3.183  20.046  0.00  0.00    +0.000 A 
ATOM      5  N   UNL     1       0.926   3.047  20.970  0.00  0.00    +0.000 N 
ATOM      6  C   UNL     1       2.477   4.408  19.602  0.00  0.00    +0.000 A 
ATOM      7  C   UNL     1       2.272   5.808  19.851  0.00  0.00    +0.000 A 
ATOM      8  C   UNL     1       3.174   6.490  19.044  0.00  0.00    +0.000 A 
ATOM      9  N   UNL     1       3.897   5.573  18.331  0.00  0.00    +0.000 N 
ATOM     10  C   UNL     1       3.492   4.311  18.662  0.00  0.00    +0.000 A 
ATOM     11  N   UNL     1       4.018   3.193  18.148  0.00  0.00    +0.000 NA
ATOM     12  H   UNL     1       3.258   0.162  18.331  0.00  0.00    +0.000 HD
ATOM     13  H   UNL     1       4.370   0.989  17.296  0.00  0.00    +0.000 HD
ATOM     14  H   UNL     1       0.613   2.082  20.983  0.00  0.00    +0.000 HD
ATOM     15  H   UNL     1       0.195   3.740  20.902  0.00  0.00    +0.000 HD
ATOM     16  H   UNL     1       4.631   5.770  17.665  0.00  0.00    +0.000 HD
ENDROOT
BRANCH   7  17
ATOM     17  C   UNL     1       1.278   6.449  20.777  0.00  0.00    +0.000 C 
BRANCH  17  18
ATOM     18  N   UNL     1       1.714   7.753  21.267  0.00  0.00    +0.000 N 
ATOM     19  H   UNL     1       2.626   8.010  20.902  0.00  0.00    +0.000 HD
BRANCH  18  20
ATOM     20  C   UNL     1       0.845   8.827  21.424  0.00  0.00    +0.000 A 
ATOM     21  C   UNL     1       0.324   9.239  22.655  0.00  0.00    +0.000 A 
ATOM     22  C   UNL     1      -0.473  10.390  22.755  0.00  0.00    +0.000 A 
ATOM     23  C   UNL     1      -0.755  11.156  21.623  0.00  0.00    +0.000 A 
ATOM     24 CL   UNL     1      -1.743  12.559  21.815  0.00  0.00    +0.000 Cl
ATOM     25  C   UNL     1      -0.224  10.775  20.391  0.00  0.00    +0.000 A 
ATOM     26 CL   UNL     1      -0.509  11.667  18.938  0.00  0.00    +0.000 Cl
ATOM     27  C   UNL     1       0.580   9.630  20.305  0.00  0.00    +0.000 A 
ENDBRANCH  18  20
ENDBRANCH  17  18
ENDBRANCH   7  17
TORSDOF 3
ENDMDL
MODEL 6
REMARK VINA RESULT:      -7.3      4.216      6.933
REMARK  Name = 
REMARK  3 active torsions:
REMARK  status: ('A' for Active; 'I' for Inactive)
REMARK    1  A    between atoms: C_7  and  C_8
REMARK    2  A    between atoms: C_8  and  N_9
REMARK    3  A    between atoms: N_9  and  C_10
REMARK                            x       y       z     vdW  Elec       q    Type
REMARK                         _______ _______ _______ _____ _____    ______ ____
ROOT
ATOM      1  N   UNL     1       1.560   8.195  21.259  0.00  0.00    +0.000 N 
ATOM      2  C   UNL     1       1.869   7.092  20.486  0.00  0.00    +0.000 A 
ATOM      3  N   UNL     1       2.536   7.325  19.346  0.00  0.00    +0.000 NA
ATOM      4  C   UNL     1       2.877   6.290  18.552  0.00  0.00    +0.000 A 
ATOM      5  N   UNL     1       3.575   6.612  17.393  0.00  0.00    +0.000 N 
ATOM      6  C   UNL     1       2.513   4.990  18.933  0.00  0.00    +0.000 A 
ATOM      7  C   UNL     1       2.673   3.649  18.441  0.00  0.00    +0.000 A 
ATOM      8  C   UNL     1       2.047   2.814  19.358  0.00  0.00    +0.000 A 
ATOM      9  N   UNL     1       1.525   3.585  20.361  0.00  0.00    +0.000 N 
ATOM     10  C   UNL     1       1.803   4.901  20.121  0.00  0.00    +0.000 A 
ATOM     11  N   UNL     1       1.441   5.906  20.927  0.00  0.00    +0.000 NA
ATOM     12  H   UNL     1       1.554   9.024  20.683  0.00  0.00    +0.000 HD
ATOM     13  H   UNL     1       0.745   8.008  21.824  0.00  0.00    +0.000 HD
ATOM     14  H   UNL     1       3.552   7.617  17.255  0.00  0.00    +0.000 HD
ATOM     15  H   UNL     1       3.338   6.057  16.582  0.00  0.00    +0.000 HD
ATOM     16  H   UNL     1       1.018   3.258  21.171  0.00  0.00    +0.000 HD
ENDROOT
BRANCH   7  17
ATOM     17  C   UNL     1       3.357   3.200  17.182  0.00  0.00    +0.000 C 
BRANCH  17  18
ATOM     18  N   UNL     1       4.810   3.329  17.246  0.00  0.00    +0.000 N 
ATOM     19  H   UNL     1       5.245   2.513  17.664  0.00  0.00    +0.000 HD
BRANCH  18  20
ATOM     20  C   UNL     1       5.558   3.913  16.230  0.00  0.00    +0.000 A 
ATOM     21  C   UNL     1       6.606   4.813  16.447  0.00  0.00    +0.000 A 
ATOM     22  C   UNL     1       7.384   5.291  15.381  0.00  0.00    +0.000 A 
ATOM     23  C   UNL     1       7.131   4.867  14.076  0.00  0.00    +0.000 A 
ATOM     24 CL   UNL     1       8.123   5.494  12.810  0.00  0.00    +0.000 Cl
ATOM     25  C   UNL     1       6.106   3.950  13.842  0.00  0.00    +0.000 A 
ATOM     26 CL   UNL     1       5.728   3.360  12.262  0.00  0.00    +0.000 Cl
ATOM     27  C   UNL     1       5.344   3.472  14.916  0.00  0.00    +0.000 A 
ENDBRANCH  18  20
ENDBRANCH  17  18
ENDBRANCH   7  17
TORSDOF 3
ENDMDL
MODEL 7
REMARK VINA RESULT:      -7.3      0.857      2.092
REMARK  Name = 
REMARK  3 active torsions:
REMARK  status: ('A' for Active; 'I' for Inactive)
REMARK    1  A    between atoms: C_7  and  C_8
REMARK    2  A    between atoms: C_8  and  N_9
REMARK    3  A    between atoms: N_9  and  C_10
REMARK                            x       y       z     vdW  Elec       q    Type
REMARK                         _______ _______ _______ _____ _____    ______ ____
ROOT
ATOM      1  N   UNL     1       6.934   4.302  13.049  0.00  0.00    +0.000 N 
ATOM      2  C   UNL     1       6.629   4.590  14.366  0.00  0.00    +0.000 A 
ATOM      3  N   UNL     1       5.599   3.920  14.904  0.00  0.00    +0.000 NA
ATOM      4  C   UNL     1       5.257   4.146  16.188  0.00  0.00    +0.000 A 
ATOM      5  N   UNL     1       4.185   3.407  16.676  0.00  0.00    +0.000 N 
ATOM      6  C   UNL     1       5.982   5.091  16.930  0.00  0.00    +0.000 A 
ATOM      7  C   UNL     1       5.993   5.619  18.267  0.00  0.00    +0.000 A 
ATOM      8  C   UNL     1       7.020   6.552  18.315  0.00  0.00    +0.000 A 
ATOM      9  N   UNL     1       7.614   6.608  17.084  0.00  0.00    +0.000 N 
ATOM     10  C   UNL     1       7.002   5.727  16.239  0.00  0.00    +0.000 A 
ATOM     11  N   UNL     1       7.362   5.534  14.964  0.00  0.00    +0.000 NA
ATOM     12  H   UNL     1       6.124   3.915  12.588  0.00  0.00    +0.000 HD
ATOM     13  H   UNL     1       7.390   5.092  12.616  0.00  0.00    +0.000 HD
ATOM     14  H   UNL     1       3.722   2.938  15.904  0.00  0.00    +0.000 HD
ATOM     15  H   UNL     1       3.576   3.903  17.312  0.00  0.00    +0.000 HD
ATOM     16  H   UNL     1       8.394   7.192  16.817  0.00  0.00    +0.000 HD
ENDROOT
BRANCH   7  17
ATOM     17  C   UNL     1       5.080   5.270  19.408  0.00  0.00    +0.000 C 
BRANCH  17  18
ATOM     18  N   UNL     1       3.666   5.410  19.069  0.00  0.00    +0.000 N 
ATOM     19  H   UNL     1       3.100   4.685  19.497  0.00  0.00    +0.000 HD
BRANCH  18  20
ATOM     20  C   UNL     1       3.034   6.645  18.980  0.00  0.00    +0.000 A 
ATOM     21  C   UNL     1       3.016   7.435  17.826  0.00  0.00    +0.000 A 
ATOM     22  C   UNL     1       2.277   8.627  17.775  0.00  0.00    +0.000 A 
ATOM     23  C   UNL     1       1.533   9.046  18.880  0.00  0.00    +0.000 A 
ATOM     24 CL   UNL     1       0.648  10.523  18.752  0.00  0.00    +0.000 Cl
ATOM     25  C   UNL     1       1.519   8.259  20.031  0.00  0.00    +0.000 A 
ATOM     26 CL   UNL     1       0.619   8.691  21.442  0.00  0.00    +0.000 Cl
ATOM     27  C   UNL     1       2.251   7.065  20.066  0.00  0.00    +0.000 A 
ENDBRANCH  18  20
ENDBRANCH  17  18
ENDBRANCH   7  17
TORSDOF 3
ENDMDL
MODEL 8
REMARK VINA RESULT:      -7.2      4.339      7.028
REMARK  Name = 
REMARK  3 active torsions:
REMARK  status: ('A' for Active; 'I' for Inactive)
REMARK    1  A    between atoms: C_7  and  C_8
REMARK    2  A    between atoms: C_8  and  N_9
REMARK    3  A    between atoms: N_9  and  C_10
REMARK                            x       y       z     vdW  Elec       q    Type
REMARK                         _______ _______ _______ _____ _____    ______ ____
ROOT
ATOM      1  N   UNL     1       0.562   3.550  20.439  0.00  0.00    +0.000 N 
ATOM      2  C   UNL     1       1.813   3.937  19.998  0.00  0.00    +0.000 A 
ATOM      3  N   UNL     1       2.807   3.050  20.157  0.00  0.00    +0.000 NA
ATOM      4  C   UNL     1       4.050   3.362  19.738  0.00  0.00    +0.000 A 
ATOM      5  N   UNL     1       5.023   2.388  19.930  0.00  0.00    +0.000 N 
ATOM      6  C   UNL     1       4.277   4.617  19.155  0.00  0.00    +0.000 A 
ATOM      7  C   UNL     1       5.372   5.340  18.570  0.00  0.00    +0.000 A 
ATOM      8  C   UNL     1       4.867   6.571  18.171  0.00  0.00    +0.000 A 
ATOM      9  N   UNL     1       3.537   6.617  18.489  0.00  0.00    +0.000 N 
ATOM     10  C   UNL     1       3.165   5.442  19.078  0.00  0.00    +0.000 A 
ATOM     11  N   UNL     1       1.922   5.169  19.492  0.00  0.00    +0.000 NA
ATOM     12  H   UNL     1       0.655   2.825  21.136  0.00  0.00    +0.000 HD
ATOM     13  H   UNL     1       0.008   4.361  20.673  0.00  0.00    +0.000 HD
ATOM     14  H   UNL     1       4.653   1.658  20.530  0.00  0.00    +0.000 HD
ATOM     15  H   UNL     1       5.936   2.738  20.185  0.00  0.00    +0.000 HD
ATOM     16  H   UNL     1       2.902   7.384  18.316  0.00  0.00    +0.000 HD
ENDROOT
BRANCH   7  17
ATOM     17  C   UNL     1       6.800   4.896  18.418  0.00  0.00    +0.000 C 
BRANCH  17  18
ATOM     18  N   UNL     1       7.382   5.280  17.135  0.00  0.00    +0.000 N 
ATOM     19  H   UNL     1       8.384   5.425  17.202  0.00  0.00    +0.000 HD
BRANCH  18  20
ATOM     20  C   UNL     1       6.968   4.730  15.927  0.00  0.00    +0.000 A 
ATOM     21  C   UNL     1       5.940   3.788  15.807  0.00  0.00    +0.000 A 
ATOM     22  C   UNL     1       5.507   3.346  14.547  0.00  0.00    +0.000 A 
ATOM     23  C   UNL     1       6.090   3.847  13.383  0.00  0.00    +0.000 A 
ATOM     24 CL   UNL     1       5.513   3.259  11.866  0.00  0.00    +0.000 Cl
ATOM     25  C   UNL     1       7.099   4.805  13.482  0.00  0.00    +0.000 A 
ATOM     26 CL   UNL     1       7.871   5.490  12.096  0.00  0.00    +0.000 Cl
ATOM     27  C   UNL     1       7.515   5.247  14.744  0.00  0.00    +0.000 A 
ENDBRANCH  18  20
ENDBRANCH  17  18
ENDBRANCH   7  17
TORSDOF 3
ENDMDL
MODEL 9
REMARK VINA RESULT:      -7.2      2.383      4.283
REMARK  Name = 
REMARK  3 active torsions:
REMARK  status: ('A' for Active; 'I' for Inactive)
REMARK    1  A    between atoms: C_7  and  C_8
REMARK    2  A    between atoms: C_8  and  N_9
REMARK    3  A    between atoms: N_9  and  C_10
REMARK                            x       y       z     vdW  Elec       q    Type
REMARK                         _______ _______ _______ _____ _____    ______ ____
ROOT
ATOM      1  N   UNL     1       5.072   1.779  20.329  0.00  0.00    +0.000 N 
ATOM      2  C   UNL     1       4.554   2.931  19.769  0.00  0.00    +0.000 A 
ATOM      3  N   UNL     1       3.234   3.127  19.912  0.00  0.00    +0.000 NA
ATOM      4  C   UNL     1       2.667   4.237  19.398  0.00  0.00    +0.000 A 
ATOM      5  N   UNL     1       1.297   4.372  19.596  0.00  0.00    +0.000 N 
ATOM      6  C   UNL     1       3.472   5.157  18.711  0.00  0.00    +0.000 A 
ATOM      7  C   UNL     1       3.320   6.424  18.050  0.00  0.00    +0.000 A 
ATOM      8  C   UNL     1       4.578   6.782  17.585  0.00  0.00    +0.000 A 
ATOM      9  N   UNL     1       5.464   5.798  17.930  0.00  0.00    +0.000 N 
ATOM     10  C   UNL     1       4.812   4.813  18.616  0.00  0.00    +0.000 A 
ATOM     11  N   UNL     1       5.405   3.718  19.105  0.00  0.00    +0.000 NA
ATOM     12  H   UNL     1       4.340   1.092  20.435  0.00  0.00    +0.000 HD
ATOM     13  H   UNL     1       5.912   1.502  19.842  0.00  0.00    +0.000 HD
ATOM     14  H   UNL     1       0.922   3.500  19.952  0.00  0.00    +0.000 HD
ATOM     15  H   UNL     1       0.791   4.780  18.823  0.00  0.00    +0.000 HD
ATOM     16  H   UNL     1       6.455   5.782  17.732  0.00  0.00    +0.000 HD
ENDROOT
BRANCH   7  17
ATOM     17  C   UNL     1       2.063   7.226  17.862  0.00  0.00    +0.000 C 
BRANCH  17  18
ATOM     18  N   UNL     1       2.137   8.551  18.470  0.00  0.00    +0.000 N 
ATOM     19  H   UNL     1       2.234   9.283  17.774  0.00  0.00    +0.000 HD
BRANCH  18  20
ATOM     20  C   UNL     1       1.372   8.917  19.572  0.00  0.00    +0.000 A 
ATOM     21  C   UNL     1       1.401   8.249  20.801  0.00  0.00    +0.000 A 
ATOM     22  C   UNL     1       0.675   8.728  21.903  0.00  0.00    +0.000 A 
ATOM     23  C   UNL     1      -0.086   9.893  21.796  0.00  0.00    +0.000 A 
ATOM     24 CL   UNL     1      -0.956  10.427  23.189  0.00  0.00    +0.000 Cl
ATOM     25  C   UNL     1      -0.107  10.586  20.586  0.00  0.00    +0.000 A 
ATOM     26 CL   UNL     1      -1.010  12.043  20.364  0.00  0.00    +0.000 Cl
ATOM     27  C   UNL     1       0.631  10.104  19.497  0.00  0.00    +0.000 A 
ENDBRANCH  18  20
ENDBRANCH  17  18
ENDBRANCH   7  17
TORSDOF 3
ENDMDL
