MODEL 1
REMARK VINA RESULT:      -7.5      0.000      0.000
REMARK  Name = 
REMARK  7 active torsions:
REMARK  status: ('A' for Active; 'I' for Inactive)
REMARK    1  A    between atoms: C_1  and  C_2
REMARK    2  A    between atoms: C_5  and  S_6
REMARK    3  A    between atoms: S_6  and  N_9
REMARK    4  A    between atoms: N_9  and  C_10
REMARK    5  A    between atoms: N_9  and  C_11
REMARK    6  A    between atoms: C_11  and  C_12
REMARK    7  A    between atoms: N_14  and  C_15
REMARK                            x       y       z     vdW  Elec       q    Type
REMARK                         _______ _______ _______ _____ _____    ______ ____
ROOT
ATOM      1  C   UNL     1       6.886   5.166  17.758  0.00  0.00    +0.000 C 
ATOM      2  C   UNL     1       7.525   3.905  17.183  0.00  0.00    +0.000 C 
ATOM      3  C   UNL     1       8.288   4.733  18.157  0.00  0.00    +0.000 C 
ENDROOT
BRANCH   1   4
ATOM      4  C   UNL     1       5.728   5.143  18.767  0.00  0.00    +0.000 C 
ATOM      5  O   UNL     1       5.713   5.968  19.682  0.00  0.00    +0.000 OA
ATOM      6  N   UNL     1       4.780   4.137  18.692  0.00  0.00    +0.000 N 
ATOM      7  H   UNL     1       4.760   3.533  17.883  0.00  0.00    +0.000 HD
BRANCH   6   8
ATOM      8  C   UNL     1       3.724   4.053  19.705  0.00  0.00    +0.000 C 
ATOM      9  C   UNL     1       2.437   4.792  19.259  0.00  0.00    +0.000 C 
ATOM     10  C   UNL     1       1.823   4.065  18.048  0.00  0.00    +0.000 C 
ATOM     11  C   UNL     1       1.481   2.609  18.420  0.00  0.00    +0.000 C 
ATOM     12  C   UNL     1       0.459   2.615  19.569  0.00  0.00    +0.000 C 
ATOM     13  C   UNL     1       1.052   3.336  20.793  0.00  0.00    +0.000 C 
ATOM     14  C   UNL     1       1.405   4.782  20.408  0.00  0.00    +0.000 C 
ATOM     15  C   UNL     1       2.334   2.614  21.238  0.00  0.00    +0.000 C 
ATOM     16  C   UNL     1       3.370   2.597  20.091  0.00  0.00    +0.000 C 
ATOM     17  C   UNL     1       2.748   1.871  18.886  0.00  0.00    +0.000 C 
ENDBRANCH   6   8
ENDBRANCH   1   4
BRANCH   1  18
ATOM     18  N   UNL     1       6.620   6.295  16.810  0.00  0.00    +0.000 NA
ATOM     19  C   UNL     1       6.919   7.643  17.322  0.00  0.00    +0.000 C 
BRANCH  18  20
ATOM     20  S   UNL     1       5.355   6.019  15.721  0.00  0.00    +0.000 S 
ATOM     21  O   UNL     1       4.941   7.286  15.219  0.00  0.00    +0.000 OA
ATOM     22  O   UNL     1       4.361   5.133  16.332  0.00  0.00    +0.000 OA
BRANCH  20  27
ATOM     23  C   UNL     1       7.519   2.937  10.979  0.00  0.00    +0.000 C 
ATOM     24  C   UNL     1       7.041   3.694  12.177  0.00  0.00    +0.000 A 
ATOM     25  C   UNL     1       7.839   4.677  12.781  0.00  0.00    +0.000 A 
ATOM     26  C   UNL     1       7.383   5.352  13.915  0.00  0.00    +0.000 A 
ATOM     27  C   UNL     1       6.085   5.116  14.381  0.00  0.00    +0.000 A 
ATOM     28  C   UNL     1       5.307   4.101  13.823  0.00  0.00    +0.000 A 
ATOM     29  C   UNL     1       5.795   3.403  12.732  0.00  0.00    +0.000 A 
ATOM     30  F   UNL     1       5.028   2.442  12.196  0.00  0.00    +0.000 F 
ENDBRANCH  20  27
ENDBRANCH  18  20
ENDBRANCH   1  18
TORSDOF 5
ENDMDL
MODEL 2
REMARK VINA RESULT:      -7.5      0.773      1.255
REMARK  Name = 
REMARK  7 active torsions:
REMARK  status: ('A' for Active; 'I' for Inactive)
REMARK    1  A    between atoms: C_1  and  C_2
REMARK    2  A    between atoms: C_5  and  S_6
REMARK    3  A    between atoms: S_6  and  N_9
REMARK    4  A    between atoms: N_9  and  C_10
REMARK    5  A    between atoms: N_9  and  C_11
REMARK    6  A    between atoms: C_11  and  C_12
REMARK    7  A    between atoms: N_14  and  C_15
REMARK                            x       y       z     vdW  Elec       q    Type
REMARK                         _______ _______ _______ _____ _____    ______ ____
ROOT
ATOM      1  C   UNL     1       6.537   6.060  17.896  0.00  0.00    +0.000 C 
ATOM      2  C   UNL     1       7.829   6.815  18.196  0.00  0.00    +0.000 C 
ATOM      3  C   UNL     1       6.658   7.557  17.653  0.00  0.00    +0.000 C 
ENDROOT
BRANCH   1   4
ATOM      4  C   UNL     1       5.610   5.502  18.987  0.00  0.00    +0.000 C 
ATOM      5  O   UNL     1       6.101   5.103  20.044  0.00  0.00    +0.000 OA
ATOM      6  N   UNL     1       4.258   5.361  18.725  0.00  0.00    +0.000 N 
ATOM      7  H   UNL     1       3.868   5.780  17.892  0.00  0.00    +0.000 HD
BRANCH   6   8
ATOM      8  C   UNL     1       3.382   4.745  19.725  0.00  0.00    +0.000 C 
ATOM      9  C   UNL     1       1.886   5.023  19.431  0.00  0.00    +0.000 C 
ATOM     10  C   UNL     1       1.481   4.317  18.124  0.00  0.00    +0.000 C 
ATOM     11  C   UNL     1       1.709   2.798  18.248  0.00  0.00    +0.000 C 
ATOM     12  C   UNL     1       0.844   2.256  19.398  0.00  0.00    +0.000 C 
ATOM     13  C   UNL     1       1.232   2.948  20.717  0.00  0.00    +0.000 C 
ATOM     14  C   UNL     1       1.016   4.464  20.577  0.00  0.00    +0.000 C 
ATOM     15  C   UNL     1       2.717   2.683  21.013  0.00  0.00    +0.000 C 
ATOM     16  C   UNL     1       3.600   3.220  19.864  0.00  0.00    +0.000 C 
ATOM     17  C   UNL     1       3.188   2.510  18.563  0.00  0.00    +0.000 C 
ENDBRANCH   6   8
ENDBRANCH   1   4
BRANCH   1  18
ATOM     18  N   UNL     1       6.573   5.049  16.790  0.00  0.00    +0.000 NA
ATOM     19  C   UNL     1       7.887   4.440  16.525  0.00  0.00    +0.000 C 
BRANCH  18  20
ATOM     20  S   UNL     1       5.452   5.319  15.551  0.00  0.00    +0.000 S 
ATOM     21  O   UNL     1       5.389   6.725  15.334  0.00  0.00    +0.000 OA
ATOM     22  O   UNL     1       4.218   4.582  15.832  0.00  0.00    +0.000 OA
BRANCH  20  27
ATOM     23  C   UNL     1       7.558   2.746  10.491  0.00  0.00    +0.000 C 
ATOM     24  C   UNL     1       7.098   3.385  11.762  0.00  0.00    +0.000 A 
ATOM     25  C   UNL     1       7.799   4.457  12.331  0.00  0.00    +0.000 A 
ATOM     26  C   UNL     1       7.365   5.021  13.534  0.00  0.00    +0.000 A 
ATOM     27  C   UNL     1       6.170   4.578  14.109  0.00  0.00    +0.000 A 
ATOM     28  C   UNL     1       5.496   3.476  13.581  0.00  0.00    +0.000 A 
ATOM     29  C   UNL     1       5.969   2.893  12.418  0.00  0.00    +0.000 A 
ATOM     30  F   UNL     1       5.301   1.845  11.914  0.00  0.00    +0.000 F 
ENDBRANCH  20  27
ENDBRANCH  18  20
ENDBRANCH   1  18
TORSDOF 5
ENDMDL
MODEL 3
REMARK VINA RESULT:      -7.4      3.981      5.717
REMARK  Name = 
REMARK  7 active torsions:
REMARK  status: ('A' for Active; 'I' for Inactive)
REMARK    1  A    between atoms: C_1  and  C_2
REMARK    2  A    between atoms: C_5  and  S_6
REMARK    3  A    between atoms: S_6  and  N_9
REMARK    4  A    between atoms: N_9  and  C_10
REMARK    5  A    between atoms: N_9  and  C_11
REMARK    6  A    between atoms: C_11  and  C_12
REMARK    7  A    between atoms: N_14  and  C_15
REMARK                            x       y       z     vdW  Elec       q    Type
REMARK                         _______ _______ _______ _____ _____    ______ ____
ROOT
ATOM      1  C   UNL     1       2.289   5.440  19.589  0.00  0.00    +0.000 C 
ATOM      2  C   UNL     1       1.038   4.789  20.173  0.00  0.00    +0.000 C 
ATOM      3  C   UNL     1       2.257   4.918  21.018  0.00  0.00    +0.000 C 
ENDROOT
BRANCH   1   4
ATOM      4  C   UNL     1       2.400   6.943  19.292  0.00  0.00    +0.000 C 
ATOM      5  O   UNL     1       3.255   7.335  18.496  0.00  0.00    +0.000 OA
ATOM      6  N   UNL     1       1.612   7.836  19.997  0.00  0.00    +0.000 N 
ATOM      7  H   UNL     1       0.858   7.486  20.571  0.00  0.00    +0.000 HD
BRANCH   6   8
ATOM      8  C   UNL     1       1.776   9.277  19.786  0.00  0.00    +0.000 C 
ATOM      9  C   UNL     1       1.534   9.675  18.308  0.00  0.00    +0.000 C 
ATOM     10  C   UNL     1       0.057   9.431  17.946  0.00  0.00    +0.000 C 
ATOM     11  C   UNL     1      -0.858  10.266  18.863  0.00  0.00    +0.000 C 
ATOM     12  C   UNL     1      -0.535  11.757  18.666  0.00  0.00    +0.000 C 
ATOM     13  C   UNL     1       0.937  12.025  19.022  0.00  0.00    +0.000 C 
ATOM     14  C   UNL     1       1.842  11.176  18.114  0.00  0.00    +0.000 C 
ATOM     15  C   UNL     1       1.188  11.626  20.486  0.00  0.00    +0.000 C 
ATOM     16  C   UNL     1       0.864  10.130  20.700  0.00  0.00    +0.000 C 
ATOM     17  C   UNL     1      -0.612   9.896  20.336  0.00  0.00    +0.000 C 
ENDBRANCH   6   8
ENDBRANCH   1   4
BRANCH   1  18
ATOM     18  N   UNL     1       2.982   4.719  18.474  0.00  0.00    +0.000 NA
ATOM     19  C   UNL     1       2.104   4.005  17.533  0.00  0.00    +0.000 C 
BRANCH  18  20
ATOM     20  S   UNL     1       4.527   4.144  18.858  0.00  0.00    +0.000 S 
ATOM     21  O   UNL     1       4.410   2.748  19.112  0.00  0.00    +0.000 OA
ATOM     22  O   UNL     1       5.138   5.008  19.872  0.00  0.00    +0.000 OA
BRANCH  20  27
ATOM     23  C   UNL     1       7.478   5.003  13.640  0.00  0.00    +0.000 C 
ATOM     24  C   UNL     1       6.801   4.763  14.953  0.00  0.00    +0.000 A 
ATOM     25  C   UNL     1       7.479   4.953  16.165  0.00  0.00    +0.000 A 
ATOM     26  C   UNL     1       6.834   4.696  17.378  0.00  0.00    +0.000 A 
ATOM     27  C   UNL     1       5.479   4.350  17.376  0.00  0.00    +0.000 A 
ATOM     28  C   UNL     1       4.812   4.103  16.175  0.00  0.00    +0.000 A 
ATOM     29  C   UNL     1       5.482   4.310  14.981  0.00  0.00    +0.000 A 
ATOM     30  F   UNL     1       4.823   4.085  13.834  0.00  0.00    +0.000 F 
ENDBRANCH  20  27
ENDBRANCH  18  20
ENDBRANCH   1  18
TORSDOF 5
ENDMDL
MODEL 4
REMARK VINA RESULT:      -7.3      7.766     10.696
REMARK  Name = 
REMARK  7 active torsions:
REMARK  status: ('A' for Active; 'I' for Inactive)
REMARK    1  A    between atoms: C_1  and  C_2
REMARK    2  A    between atoms: C_5  and  S_6
REMARK    3  A    between atoms: S_6  and  N_9
REMARK    4  A    between atoms: N_9  and  C_10
REMARK    5  A    between atoms: N_9  and  C_11
REMARK    6  A    between atoms: C_11  and  C_12
REMARK    7  A    between atoms: N_14  and  C_15
REMARK                            x       y       z     vdW  Elec       q    Type
REMARK                         _______ _______ _______ _____ _____    ______ ____
ROOT
ATOM      1  C   UNL     1      -1.074  12.234  19.838  0.00  0.00    +0.000 C 
ATOM      2  C   UNL     1      -2.552  12.467  20.137  0.00  0.00    +0.000 C 
ATOM      3  C   UNL     1      -1.553  12.623  21.229  0.00  0.00    +0.000 C 
ENDROOT
BRANCH   1   4
ATOM      4  C   UNL     1      -0.220  13.192  18.993  0.00  0.00    +0.000 C 
ATOM      5  O   UNL     1      -0.579  13.462  17.847  0.00  0.00    +0.000 OA
ATOM      6  N   UNL     1       0.986  13.651  19.494  0.00  0.00    +0.000 N 
ATOM      7  H   UNL     1       1.212  13.493  20.466  0.00  0.00    +0.000 HD
BRANCH   6   8
ATOM      8  C   UNL     1       1.850  14.490  18.660  0.00  0.00    +0.000 C 
ATOM      9  C   UNL     1       1.597  16.000  18.903  0.00  0.00    +0.000 C 
ATOM     10  C   UNL     1       2.026  16.367  20.336  0.00  0.00    +0.000 C 
ATOM     11  C   UNL     1       3.521  16.054  20.540  0.00  0.00    +0.000 C 
ATOM     12  C   UNL     1       4.345  16.887  19.543  0.00  0.00    +0.000 C 
ATOM     13  C   UNL     1       3.934  16.536  18.102  0.00  0.00    +0.000 C 
ATOM     14  C   UNL     1       2.438  16.837  17.914  0.00  0.00    +0.000 C 
ATOM     15  C   UNL     1       4.175  15.038  17.853  0.00  0.00    +0.000 C 
ATOM     16  C   UNL     1       3.355  14.188  18.851  0.00  0.00    +0.000 C 
ATOM     17  C   UNL     1       3.789  14.561  20.278  0.00  0.00    +0.000 C 
ENDBRANCH   6   8
ENDBRANCH   1   4
BRANCH   1  18
ATOM     18  N   UNL     1      -0.656  10.841  19.480  0.00  0.00    +0.000 NA
ATOM     19  C   UNL     1      -1.598  10.090  18.634  0.00  0.00    +0.000 C 
BRANCH  18  20
ATOM     20  S   UNL     1       0.301  10.070  20.644  0.00  0.00    +0.000 S 
ATOM     21  O   UNL     1      -0.567   9.294  21.463  0.00  0.00    +0.000 OA
ATOM     22  O   UNL     1       1.196  11.045  21.272  0.00  0.00    +0.000 OA
BRANCH  20  27
ATOM     23  C   UNL     1       3.611   5.973  17.655  0.00  0.00    +0.000 C 
ATOM     24  C   UNL     1       2.831   7.031  18.370  0.00  0.00    +0.000 A 
ATOM     25  C   UNL     1       2.527   8.252  17.753  0.00  0.00    +0.000 A 
ATOM     26  C   UNL     1       1.821   9.236  18.451  0.00  0.00    +0.000 A 
ATOM     27  C   UNL     1       1.330   8.952  19.729  0.00  0.00    +0.000 A 
ATOM     28  C   UNL     1       1.675   7.763  20.373  0.00  0.00    +0.000 A 
ATOM     29  C   UNL     1       2.422   6.821  19.687  0.00  0.00    +0.000 A 
ATOM     30  F   UNL     1       2.731   5.675  20.313  0.00  0.00    +0.000 F 
ENDBRANCH  20  27
ENDBRANCH  18  20
ENDBRANCH   1  18
TORSDOF 5
ENDMDL
MODEL 5
REMARK VINA RESULT:      -7.3      4.142      5.917
REMARK  Name = 
REMARK  7 active torsions:
REMARK  status: ('A' for Active; 'I' for Inactive)
REMARK    1  A    between atoms: C_1  and  C_2
REMARK    2  A    between atoms: C_5  and  S_6
REMARK    3  A    between atoms: S_6  and  N_9
REMARK    4  A    between atoms: N_9  and  C_10
REMARK    5  A    between atoms: N_9  and  C_11
REMARK    6  A    between atoms: C_11  and  C_12
REMARK    7  A    between atoms: N_14  and  C_15
REMARK                            x       y       z     vdW  Elec       q    Type
REMARK                         _______ _______ _______ _____ _____    ______ ____
ROOT
ATOM      1  C   UNL     1       2.169   5.368  19.678  0.00  0.00    +0.000 C 
ATOM      2  C   UNL     1       0.957   4.771  20.388  0.00  0.00    +0.000 C 
ATOM      3  C   UNL     1       2.271   4.803  21.086  0.00  0.00    +0.000 C 
ENDROOT
BRANCH   1   4
ATOM      4  C   UNL     1       2.336   6.872  19.408  0.00  0.00    +0.000 C 
ATOM      5  O   UNL     1       3.272   7.254  18.705  0.00  0.00    +0.000 OA
ATOM      6  N   UNL     1       1.498   7.774  20.041  0.00  0.00    +0.000 N 
ATOM      7  H   UNL     1       0.685   7.434  20.534  0.00  0.00    +0.000 HD
BRANCH   6   8
ATOM      8  C   UNL     1       1.708   9.213  19.862  0.00  0.00    +0.000 C 
ATOM      9  C   UNL     1       1.504   9.647  18.388  0.00  0.00    +0.000 C 
ATOM     10  C   UNL     1       0.028   9.454  17.998  0.00  0.00    +0.000 C 
ATOM     11  C   UNL     1      -0.879  10.298  18.915  0.00  0.00    +0.000 C 
ATOM     12  C   UNL     1      -0.509  11.782  18.754  0.00  0.00    +0.000 C 
ATOM     13  C   UNL     1       0.965  11.999  19.140  0.00  0.00    +0.000 C 
ATOM     14  C   UNL     1       1.860  11.142  18.230  0.00  0.00    +0.000 C 
ATOM     15  C   UNL     1       1.178  11.565  20.600  0.00  0.00    +0.000 C 
ATOM     16  C   UNL     1       0.807  10.075  20.778  0.00  0.00    +0.000 C 
ATOM     17  C   UNL     1      -0.669   9.892  20.384  0.00  0.00    +0.000 C 
ENDBRANCH   6   8
ENDBRANCH   1   4
BRANCH   1  18
ATOM     18  N   UNL     1       2.683   4.645  18.471  0.00  0.00    +0.000 NA
ATOM     19  C   UNL     1       1.656   4.075  17.583  0.00  0.00    +0.000 C 
BRANCH  18  20
ATOM     20  S   UNL     1       4.188   3.900  18.682  0.00  0.00    +0.000 S 
ATOM     21  O   UNL     1       3.967   2.494  18.697  0.00  0.00    +0.000 OA
ATOM     22  O   UNL     1       4.896   4.526  19.801  0.00  0.00    +0.000 OA
BRANCH  20  27
ATOM     23  C   UNL     1       7.629   5.279  13.894  0.00  0.00    +0.000 C 
ATOM     24  C   UNL     1       6.729   4.934  15.038  0.00  0.00    +0.000 A 
ATOM     25  C   UNL     1       5.753   3.934  14.918  0.00  0.00    +0.000 A 
ATOM     26  C   UNL     1       4.906   3.648  15.992  0.00  0.00    +0.000 A 
ATOM     27  C   UNL     1       5.107   4.292  17.217  0.00  0.00    +0.000 A 
ATOM     28  C   UNL     1       6.037   5.326  17.329  0.00  0.00    +0.000 A 
ATOM     29  C   UNL     1       6.832   5.635  16.239  0.00  0.00    +0.000 A 
ATOM     30  F   UNL     1       7.733   6.621  16.368  0.00  0.00    +0.000 F 
ENDBRANCH  20  27
ENDBRANCH  18  20
ENDBRANCH   1  18
TORSDOF 5
ENDMDL
MODEL 6
REMARK VINA RESULT:      -7.1      1.225      1.903
REMARK  Name = 
REMARK  7 active torsions:
REMARK  status: ('A' for Active; 'I' for Inactive)
REMARK    1  A    between atoms: C_1  and  C_2
REMARK    2  A    between atoms: C_5  and  S_6
REMARK    3  A    between atoms: S_6  and  N_9
REMARK    4  A    between atoms: N_9  and  C_10
REMARK    5  A    between atoms: N_9  and  C_11
REMARK    6  A    between atoms: C_11  and  C_12
REMARK    7  A    between atoms: N_14  and  C_15
REMARK                            x       y       z     vdW  Elec       q    Type
REMARK                         _______ _______ _______ _____ _____    ______ ____
ROOT
ATOM      1  C   UNL     1       6.696   6.141  17.949  0.00  0.00    +0.000 C 
ATOM      2  C   UNL     1       8.016   6.808  18.326  0.00  0.00    +0.000 C 
ATOM      3  C   UNL     1       6.878   7.649  17.863  0.00  0.00    +0.000 C 
ENDROOT
BRANCH   1   4
ATOM      4  C   UNL     1       5.743   5.511  18.975  0.00  0.00    +0.000 C 
ATOM      5  O   UNL     1       6.206   5.051  20.020  0.00  0.00    +0.000 OA
ATOM      6  N   UNL     1       4.400   5.378  18.666  0.00  0.00    +0.000 N 
ATOM      7  H   UNL     1       4.031   5.845  17.849  0.00  0.00    +0.000 HD
BRANCH   6   8
ATOM      8  C   UNL     1       3.500   4.696  19.600  0.00  0.00    +0.000 C 
ATOM      9  C   UNL     1       2.014   5.035  19.321  0.00  0.00    +0.000 C 
ATOM     10  C   UNL     1       1.605   4.459  17.953  0.00  0.00    +0.000 C 
ATOM     11  C   UNL     1       1.797   2.930  17.942  0.00  0.00    +0.000 C 
ATOM     12  C   UNL     1       0.908   2.308  19.032  0.00  0.00    +0.000 C 
ATOM     13  C   UNL     1       1.300   2.869  20.410  0.00  0.00    +0.000 C 
ATOM     14  C   UNL     1       1.120   4.396  20.406  0.00  0.00    +0.000 C 
ATOM     15  C   UNL     1       2.776   2.543  20.692  0.00  0.00    +0.000 C 
ATOM     16  C   UNL     1       3.681   3.159  19.602  0.00  0.00    +0.000 C 
ATOM     17  C   UNL     1       3.265   2.579  18.240  0.00  0.00    +0.000 C 
ENDBRANCH   6   8
ENDBRANCH   1   4
BRANCH   1  18
ATOM     18  N   UNL     1       6.696   5.250  16.744  0.00  0.00    +0.000 NA
ATOM     19  C   UNL     1       7.402   3.967  16.899  0.00  0.00    +0.000 C 
BRANCH  18  20
ATOM     20  S   UNL     1       6.652   6.067  15.263  0.00  0.00    +0.000 S 
ATOM     21  O   UNL     1       7.973   6.525  14.990  0.00  0.00    +0.000 OA
ATOM     22  O   UNL     1       5.547   7.029  15.261  0.00  0.00    +0.000 OA
BRANCH  20  27
ATOM     23  C   UNL     1       5.623   1.711  11.184  0.00  0.00    +0.000 C 
ATOM     24  C   UNL     1       5.818   2.806  12.184  0.00  0.00    +0.000 A 
ATOM     25  C   UNL     1       4.831   3.106  13.134  0.00  0.00    +0.000 A 
ATOM     26  C   UNL     1       5.023   4.152  14.041  0.00  0.00    +0.000 A 
ATOM     27  C   UNL     1       6.248   4.826  14.062  0.00  0.00    +0.000 A 
ATOM     28  C   UNL     1       7.213   4.574  13.086  0.00  0.00    +0.000 A 
ATOM     29  C   UNL     1       6.984   3.571  12.160  0.00  0.00    +0.000 A 
ATOM     30  F   UNL     1       7.928   3.328  11.238  0.00  0.00    +0.000 F 
ENDBRANCH  20  27
ENDBRANCH  18  20
ENDBRANCH   1  18
TORSDOF 5
ENDMDL
MODEL 7
REMARK VINA RESULT:      -7.1      6.659      9.698
REMARK  Name = 
REMARK  7 active torsions:
REMARK  status: ('A' for Active; 'I' for Inactive)
REMARK    1  A    between atoms: C_1  and  C_2
REMARK    2  A    between atoms: C_5  and  S_6
REMARK    3  A    between atoms: S_6  and  N_9
REMARK    4  A    between atoms: N_9  and  C_10
REMARK    5  A    between atoms: N_9  and  C_11
REMARK    6  A    between atoms: C_11  and  C_12
REMARK    7  A    between atoms: N_14  and  C_15
REMARK                            x       y       z     vdW  Elec       q    Type
REMARK                         _______ _______ _______ _____ _____    ______ ____
ROOT
ATOM      1  C   UNL     1       1.230   9.506  18.992  0.00  0.00    +0.000 C 
ATOM      2  C   UNL     1       1.046   9.673  17.486  0.00  0.00    +0.000 C 
ATOM      3  C   UNL     1       2.160  10.385  18.170  0.00  0.00    +0.000 C 
ENDROOT
BRANCH   1   4
ATOM      4  C   UNL     1       1.731   8.208  19.644  0.00  0.00    +0.000 C 
ATOM      5  O   UNL     1       1.697   8.102  20.871  0.00  0.00    +0.000 OA
ATOM      6  N   UNL     1       2.305   7.227  18.854  0.00  0.00    +0.000 N 
ATOM      7  H   UNL     1       2.236   7.296  17.849  0.00  0.00    +0.000 HD
BRANCH   6   8
ATOM      8  C   UNL     1       2.869   6.026  19.477  0.00  0.00    +0.000 C 
ATOM      9  C   UNL     1       1.863   4.846  19.471  0.00  0.00    +0.000 C 
ATOM     10  C   UNL     1       1.605   4.403  18.019  0.00  0.00    +0.000 C 
ATOM     11  C   UNL     1       2.924   3.961  17.356  0.00  0.00    +0.000 C 
ATOM     12  C   UNL     1       3.506   2.777  18.144  0.00  0.00    +0.000 C 
ATOM     13  C   UNL     1       3.775   3.197  19.600  0.00  0.00    +0.000 C 
ATOM     14  C   UNL     1       2.456   3.651  20.248  0.00  0.00    +0.000 C 
ATOM     15  C   UNL     1       4.766   4.373  19.616  0.00  0.00    +0.000 C 
ATOM     16  C   UNL     1       4.195   5.570  18.824  0.00  0.00    +0.000 C 
ATOM     17  C   UNL     1       3.939   5.117  17.377  0.00  0.00    +0.000 C 
ENDBRANCH   6   8
ENDBRANCH   1   4
BRANCH   1  18
ATOM     18  N   UNL     1       0.159  10.059  19.881  0.00  0.00    +0.000 NA
ATOM     19  C   UNL     1      -1.217   9.648  19.555  0.00  0.00    +0.000 C 
BRANCH  18  20
ATOM     20  S   UNL     1       0.500  11.584  20.531  0.00  0.00    +0.000 S 
ATOM     21  O   UNL     1       0.537  12.509  19.449  0.00  0.00    +0.000 OA
ATOM     22  O   UNL     1       1.651  11.491  21.433  0.00  0.00    +0.000 OA
BRANCH  20  27
ATOM     23  C   UNL     1      -4.496  12.957  23.665  0.00  0.00    +0.000 C 
ATOM     24  C   UNL     1      -3.229  12.618  22.945  0.00  0.00    +0.000 A 
ATOM     25  C   UNL     1      -2.324  11.684  23.468  0.00  0.00    +0.000 A 
ATOM     26  C   UNL     1      -1.135  11.404  22.792  0.00  0.00    +0.000 A 
ATOM     27  C   UNL     1      -0.903  11.982  21.539  0.00  0.00    +0.000 A 
ATOM     28  C   UNL     1      -1.770  12.954  21.037  0.00  0.00    +0.000 A 
ATOM     29  C   UNL     1      -2.918  13.261  21.746  0.00  0.00    +0.000 A 
ATOM     30  F   UNL     1      -3.749  14.185  21.242  0.00  0.00    +0.000 F 
ENDBRANCH  20  27
ENDBRANCH  18  20
ENDBRANCH   1  18
TORSDOF 5
ENDMDL
MODEL 8
REMARK VINA RESULT:      -7.1      1.411      1.720
REMARK  Name = 
REMARK  7 active torsions:
REMARK  status: ('A' for Active; 'I' for Inactive)
REMARK    1  A    between atoms: C_1  and  C_2
REMARK    2  A    between atoms: C_5  and  S_6
REMARK    3  A    between atoms: S_6  and  N_9
REMARK    4  A    between atoms: N_9  and  C_10
REMARK    5  A    between atoms: N_9  and  C_11
REMARK    6  A    between atoms: C_11  and  C_12
REMARK    7  A    between atoms: N_14  and  C_15
REMARK                            x       y       z     vdW  Elec       q    Type
REMARK                         _______ _______ _______ _____ _____    ______ ____
ROOT
ATOM      1  C   UNL     1       6.568   6.663  17.936  0.00  0.00    +0.000 C 
ATOM      2  C   UNL     1       8.030   7.047  18.150  0.00  0.00    +0.000 C 
ATOM      3  C   UNL     1       6.981   8.101  18.212  0.00  0.00    +0.000 C 
ENDROOT
BRANCH   1   4
ATOM      4  C   UNL     1       5.747   5.860  18.957  0.00  0.00    +0.000 C 
ATOM      5  O   UNL     1       6.334   5.233  19.839  0.00  0.00    +0.000 OA
ATOM      6  N   UNL     1       4.374   5.772  18.806  0.00  0.00    +0.000 N 
ATOM      7  H   UNL     1       3.909   6.369  18.136  0.00  0.00    +0.000 HD
BRANCH   6   8
ATOM      8  C   UNL     1       3.592   4.935  19.720  0.00  0.00    +0.000 C 
ATOM      9  C   UNL     1       2.071   5.197  19.586  0.00  0.00    +0.000 C 
ATOM     10  C   UNL     1       1.594   4.741  18.195  0.00  0.00    +0.000 C 
ATOM     11  C   UNL     1       1.878   3.239  18.002  0.00  0.00    +0.000 C 
ATOM     12  C   UNL     1       1.116   2.445  19.076  0.00  0.00    +0.000 C 
ATOM     13  C   UNL     1       1.578   2.884  20.477  0.00  0.00    +0.000 C 
ATOM     14  C   UNL     1       1.305   4.386  20.654  0.00  0.00    +0.000 C 
ATOM     15  C   UNL     1       3.089   2.633  20.618  0.00  0.00    +0.000 C 
ATOM     16  C   UNL     1       3.868   3.423  19.541  0.00  0.00    +0.000 C 
ATOM     17  C   UNL     1       3.384   2.962  18.156  0.00  0.00    +0.000 C 
ENDBRANCH   6   8
ENDBRANCH   1   4
BRANCH   1  18
ATOM     18  N   UNL     1       6.178   6.174  16.575  0.00  0.00    +0.000 NA
ATOM     19  C   UNL     1       4.942   6.750  16.020  0.00  0.00    +0.000 C 
BRANCH  18  20
ATOM     20  S   UNL     1       6.648   4.584  16.235  0.00  0.00    +0.000 S 
ATOM     21  O   UNL     1       5.534   3.742  16.515  0.00  0.00    +0.000 OA
ATOM     22  O   UNL     1       7.936   4.302  16.874  0.00  0.00    +0.000 OA
BRANCH  20  27
ATOM     23  C   UNL     1       7.248   4.417  10.212  0.00  0.00    +0.000 C 
ATOM     24  C   UNL     1       7.163   4.464  11.705  0.00  0.00    +0.000 A 
ATOM     25  C   UNL     1       7.942   5.361  12.449  0.00  0.00    +0.000 A 
ATOM     26  C   UNL     1       7.865   5.368  13.844  0.00  0.00    +0.000 A 
ATOM     27  C   UNL     1       6.931   4.549  14.485  0.00  0.00    +0.000 A 
ATOM     28  C   UNL     1       6.192   3.614  13.759  0.00  0.00    +0.000 A 
ATOM     29  C   UNL     1       6.319   3.582  12.381  0.00  0.00    +0.000 A 
ATOM     30  F   UNL     1       5.590   2.689  11.695  0.00  0.00    +0.000 F 
ENDBRANCH  20  27
ENDBRANCH  18  20
ENDBRANCH   1  18
TORSDOF 5
ENDMDL
MODEL 9
REMARK VINA RESULT:      -7.1      1.714      2.139
REMARK  Name = 
REMARK  7 active torsions:
REMARK  status: ('A' for Active; 'I' for Inactive)
REMARK    1  A    between atoms: C_1  and  C_2
REMARK    2  A    between atoms: C_5  and  S_6
REMARK    3  A    between atoms: S_6  and  N_9
REMARK    4  A    between atoms: N_9  and  C_10
REMARK    5  A    between atoms: N_9  and  C_11
REMARK    6  A    between atoms: C_11  and  C_12
REMARK    7  A    between atoms: N_14  and  C_15
REMARK                            x       y       z     vdW  Elec       q    Type
REMARK                         _______ _______ _______ _____ _____    ______ ____
ROOT
ATOM      1  C   UNL     1       6.618   6.510  18.000  0.00  0.00    +0.000 C 
ATOM      2  C   UNL     1       8.099   6.827  18.191  0.00  0.00    +0.000 C 
ATOM      3  C   UNL     1       7.098   7.924  18.291  0.00  0.00    +0.000 C 
ENDROOT
BRANCH   1   4
ATOM      4  C   UNL     1       5.781   5.727  19.023  0.00  0.00    +0.000 C 
ATOM      5  O   UNL     1       6.354   5.136  19.939  0.00  0.00    +0.000 OA
ATOM      6  N   UNL     1       4.414   5.614  18.839  0.00  0.00    +0.000 N 
ATOM      7  H   UNL     1       3.959   6.182  18.139  0.00  0.00    +0.000 HD
BRANCH   6   8
ATOM      8  C   UNL     1       3.621   4.793  19.758  0.00  0.00    +0.000 C 
ATOM      9  C   UNL     1       2.121   5.183  19.733  0.00  0.00    +0.000 C 
ATOM     10  C   UNL     1       1.527   4.844  18.353  0.00  0.00    +0.000 C 
ATOM     11  C   UNL     1       1.674   3.336  18.068  0.00  0.00    +0.000 C 
ATOM     12  C   UNL     1       0.912   2.548  19.148  0.00  0.00    +0.000 C 
ATOM     13  C   UNL     1       1.490   2.871  20.537  0.00  0.00    +0.000 C 
ATOM     14  C   UNL     1       1.354   4.379  20.805  0.00  0.00    +0.000 C 
ATOM     15  C   UNL     1       2.980   2.494  20.570  0.00  0.00    +0.000 C 
ATOM     16  C   UNL     1       3.758   3.276  19.487  0.00  0.00    +0.000 C 
ATOM     17  C   UNL     1       3.157   2.931  18.113  0.00  0.00    +0.000 C 
ENDBRANCH   6   8
ENDBRANCH   1   4
BRANCH   1  18
ATOM     18  N   UNL     1       6.182   6.062  16.639  0.00  0.00    +0.000 NA
ATOM     19  C   UNL     1       4.933   6.661  16.140  0.00  0.00    +0.000 C 
BRANCH  18  20
ATOM     20  S   UNL     1       6.630   4.480  16.240  0.00  0.00    +0.000 S 
ATOM     21  O   UNL     1       5.545   3.628  16.593  0.00  0.00    +0.000 OA
ATOM     22  O   UNL     1       7.966   4.195  16.772  0.00  0.00    +0.000 OA
BRANCH  20  27
ATOM     23  C   UNL     1       7.488   4.523  10.246  0.00  0.00    +0.000 C 
ATOM     24  C   UNL     1       7.214   4.502  11.716  0.00  0.00    +0.000 A 
ATOM     25  C   UNL     1       6.339   3.562  12.279  0.00  0.00    +0.000 A 
ATOM     26  C   UNL     1       6.078   3.579  13.651  0.00  0.00    +0.000 A 
ATOM     27  C   UNL     1       6.775   4.471  14.473  0.00  0.00    +0.000 A 
ATOM     28  C   UNL     1       7.605   5.445  13.916  0.00  0.00    +0.000 A 
ATOM     29  C   UNL     1       7.811   5.450  12.548  0.00  0.00    +0.000 A 
ATOM     30  F   UNL     1       8.624   6.382  12.029  0.00  0.00    +0.000 F 
ENDBRANCH  20  27
ENDBRANCH  18  20
ENDBRANCH   1  18
TORSDOF 5
ENDMDL
