MODEL 1
REMARK VINA RESULT:      -9.3      0.000      0.000
REMARK  Name = 
REMARK  2 active torsions:
REMARK  status: ('A' for Active; 'I' for Inactive)
REMARK    1  A    between atoms: C_13  and  C_14
REMARK    2  A    between atoms: C_19  and  O_20
REMARK                            x       y       z     vdW  Elec       q    Type
REMARK                         _______ _______ _______ _____ _____    ______ ____
ROOT
ATOM      1  O   UNL     1       4.311   7.031  16.883  0.00  0.00    +0.000 OA
ATOM      2  C   UNL     1       3.495   6.567  17.688  0.00  0.00    +0.000 C 
ATOM      3  N   UNL     1       3.308   5.209  17.722  0.00  0.00    +0.000 N 
ATOM      4  C   UNL     1       2.472   4.424  18.535  0.00  0.00    +0.000 A 
ATOM      5  C   UNL     1       2.080   3.183  18.017  0.00  0.00    +0.000 A 
ATOM      6  C   UNL     1       1.219   2.354  18.736  0.00  0.00    +0.000 A 
ATOM      7  C   UNL     1       0.786   2.732  20.001  0.00  0.00    +0.000 A 
ATOM      8  C   UNL     1       1.223   3.936  20.549  0.00  0.00    +0.000 A 
ATOM      9  C   UNL     1       2.066   4.796  19.824  0.00  0.00    +0.000 A 
ATOM     10  N   UNL     1       2.430   6.023  20.414  0.00  0.00    +0.000 N 
ATOM     11  C   UNL     1       2.190   7.241  19.748  0.00  0.00    +0.000 A 
ATOM     12  C   UNL     1       1.360   8.186  20.382  0.00  0.00    +0.000 A 
ATOM     13  C   UNL     1       0.979   9.398  19.782  0.00  0.00    +0.000 A 
ATOM     14  C   UNL     1       1.460   9.632  18.483  0.00  0.00    +0.000 A 
ATOM     15  C   UNL     1       2.277   8.701  17.830  0.00  0.00    +0.000 A 
ATOM     16  C   UNL     1       2.635   7.498  18.455  0.00  0.00    +0.000 A 
ATOM     17  H   UNL     1       3.785   4.746  16.960  0.00  0.00    +0.000 HD
ATOM     18  H   UNL     1       2.180   6.072  21.397  0.00  0.00    +0.000 HD
ENDROOT
BRANCH  13  19
ATOM     19  C   UNL     1       0.077  10.359  20.472  0.00  0.00    +0.000 A 
ATOM     20  C   UNL     1      -0.875  11.093  19.731  0.00  0.00    +0.000 A 
ATOM     21  C   UNL     1      -1.743  12.007  20.338  0.00  0.00    +0.000 A 
ATOM     22  C   UNL     1      -1.697  12.204  21.713  0.00  0.00    +0.000 A 
ATOM     23  C   UNL     1      -0.780  11.491  22.479  0.00  0.00    +0.000 A 
ATOM     24  C   UNL     1       0.097  10.590  21.865  0.00  0.00    +0.000 A 
BRANCH  24  25
ATOM     25  O   UNL     1       1.000   9.931  22.661  0.00  0.00    +0.000 OA
ATOM     26  H   UNL     1       1.554   9.358  22.108  0.00  0.00    +0.000 HD
ENDBRANCH  24  25
ENDBRANCH  13  19
TORSDOF 2
ENDMDL
MODEL 2
REMARK VINA RESULT:      -9.3      1.149      1.478
REMARK  Name = 
REMARK  2 active torsions:
REMARK  status: ('A' for Active; 'I' for Inactive)
REMARK    1  A    between atoms: C_13  and  C_14
REMARK    2  A    between atoms: C_19  and  O_20
REMARK                            x       y       z     vdW  Elec       q    Type
REMARK                         _______ _______ _______ _____ _____    ______ ____
ROOT
ATOM      1  O   UNL     1       4.554   6.872  16.903  0.00  0.00    +0.000 OA
ATOM      2  C   UNL     1       3.673   6.486  17.681  0.00  0.00    +0.000 C 
ATOM      3  N   UNL     1       3.443   5.139  17.795  0.00  0.00    +0.000 N 
ATOM      4  C   UNL     1       2.533   4.435  18.601  0.00  0.00    +0.000 A 
ATOM      5  C   UNL     1       2.137   3.171  18.144  0.00  0.00    +0.000 A 
ATOM      6  C   UNL     1       1.206   2.416  18.858  0.00  0.00    +0.000 A 
ATOM      7  C   UNL     1       0.704   2.893  20.063  0.00  0.00    +0.000 A 
ATOM      8  C   UNL     1       1.140   4.121  20.555  0.00  0.00    +0.000 A 
ATOM      9  C   UNL     1       2.054   4.907  19.832  0.00  0.00    +0.000 A 
ATOM     10  N   UNL     1       2.416   6.162  20.360  0.00  0.00    +0.000 N 
ATOM     11  C   UNL     1       2.258   7.335  19.599  0.00  0.00    +0.000 A 
ATOM     12  C   UNL     1       1.417   8.344  20.109  0.00  0.00    +0.000 A 
ATOM     13  C   UNL     1       1.113   9.521  19.404  0.00  0.00    +0.000 A 
ATOM     14  C   UNL     1       1.685   9.651  18.127  0.00  0.00    +0.000 A 
ATOM     15  C   UNL     1       2.514   8.655  17.596  0.00  0.00    +0.000 A 
ATOM     16  C   UNL     1       2.794   7.490  18.324  0.00  0.00    +0.000 A 
ATOM     17  H   UNL     1       3.955   4.611  17.100  0.00  0.00    +0.000 HD
ATOM     18  H   UNL     1       2.104   6.285  21.318  0.00  0.00    +0.000 HD
ENDROOT
BRANCH  13  19
ATOM     19  C   UNL     1       0.198  10.551  19.964  0.00  0.00    +0.000 A 
ATOM     20  C   UNL     1       0.586  11.304  21.093  0.00  0.00    +0.000 A 
ATOM     21  C   UNL     1      -0.243  12.282  21.653  0.00  0.00    +0.000 A 
ATOM     22  C   UNL     1      -1.484  12.551  21.087  0.00  0.00    +0.000 A 
ATOM     23  C   UNL     1      -1.897  11.837  19.966  0.00  0.00    +0.000 A 
ATOM     24  C   UNL     1      -1.071  10.849  19.420  0.00  0.00    +0.000 A 
BRANCH  24  25
ATOM     25  O   UNL     1      -1.536  10.155  18.330  0.00  0.00    +0.000 OA
ATOM     26  H   UNL     1      -2.048   9.389  18.635  0.00  0.00    +0.000 HD
ENDBRANCH  24  25
ENDBRANCH  13  19
TORSDOF 2
ENDMDL
MODEL 3
REMARK VINA RESULT:      -9.0      1.063      1.289
REMARK  Name = 
REMARK  2 active torsions:
REMARK  status: ('A' for Active; 'I' for Inactive)
REMARK    1  A    between atoms: C_13  and  C_14
REMARK    2  A    between atoms: C_19  and  O_20
REMARK                            x       y       z     vdW  Elec       q    Type
REMARK                         _______ _______ _______ _____ _____    ______ ____
ROOT
ATOM      1  O   UNL     1       3.927   7.226  16.878  0.00  0.00    +0.000 OA
ATOM      2  C   UNL     1       3.222   6.713  17.755  0.00  0.00    +0.000 C 
ATOM      3  N   UNL     1       3.020   5.357  17.724  0.00  0.00    +0.000 N 
ATOM      4  C   UNL     1       2.292   4.524  18.591  0.00  0.00    +0.000 A 
ATOM      5  C   UNL     1       1.812   3.324  18.050  0.00  0.00    +0.000 A 
ATOM      6  C   UNL     1       1.046   2.453  18.825  0.00  0.00    +0.000 A 
ATOM      7  C   UNL     1       0.797   2.747  20.161  0.00  0.00    +0.000 A 
ATOM      8  C   UNL     1       1.325   3.907  20.721  0.00  0.00    +0.000 A 
ATOM      9  C   UNL     1       2.073   4.810  19.946  0.00  0.00    +0.000 A 
ATOM     10  N   UNL     1       2.535   5.992  20.560  0.00  0.00    +0.000 N 
ATOM     11  C   UNL     1       2.225   7.253  20.017  0.00  0.00    +0.000 A 
ATOM     12  C   UNL     1       1.505   8.158  20.821  0.00  0.00    +0.000 A 
ATOM     13  C   UNL     1       1.064   9.411  20.362  0.00  0.00    +0.000 A 
ATOM     14  C   UNL     1       1.366   9.730  19.027  0.00  0.00    +0.000 A 
ATOM     15  C   UNL     1       2.070   8.840  18.207  0.00  0.00    +0.000 A 
ATOM     16  C   UNL     1       2.492   7.595  18.695  0.00  0.00    +0.000 A 
ATOM     17  H   UNL     1       3.381   4.944  16.874  0.00  0.00    +0.000 HD
ATOM     18  H   UNL     1       2.423   5.974  21.569  0.00  0.00    +0.000 HD
ENDROOT
BRANCH  13  19
ATOM     19  C   UNL     1       0.281  10.329  21.233  0.00  0.00    +0.000 A 
ATOM     20  C   UNL     1      -0.516   9.808  22.275  0.00  0.00    +0.000 A 
ATOM     21  C   UNL     1      -1.268  10.634  23.117  0.00  0.00    +0.000 A 
ATOM     22  C   UNL     1      -1.233  12.014  22.953  0.00  0.00    +0.000 A 
ATOM     23  C   UNL     1      -0.450  12.566  21.943  0.00  0.00    +0.000 A 
ATOM     24  C   UNL     1       0.288  11.734  21.094  0.00  0.00    +0.000 A 
BRANCH  24  25
ATOM     25  O   UNL     1       1.023  12.326  20.097  0.00  0.00    +0.000 OA
ATOM     26  H   UNL     1       0.776  11.935  19.244  0.00  0.00    +0.000 HD
ENDBRANCH  24  25
ENDBRANCH  13  19
TORSDOF 2
ENDMDL
MODEL 4
REMARK VINA RESULT:      -8.7      2.533      4.000
REMARK  Name = 
REMARK  2 active torsions:
REMARK  status: ('A' for Active; 'I' for Inactive)
REMARK    1  A    between atoms: C_13  and  C_14
REMARK    2  A    between atoms: C_19  and  O_20
REMARK                            x       y       z     vdW  Elec       q    Type
REMARK                         _______ _______ _______ _____ _____    ______ ____
ROOT
ATOM      1  O   UNL     1       2.195   4.761  20.830  0.00  0.00    +0.000 OA
ATOM      2  C   UNL     1       2.860   5.465  20.060  0.00  0.00    +0.000 C 
ATOM      3  N   UNL     1       4.117   5.044  19.710  0.00  0.00    +0.000 N 
ATOM      4  C   UNL     1       5.067   5.628  18.854  0.00  0.00    +0.000 A 
ATOM      5  C   UNL     1       6.409   5.300  19.090  0.00  0.00    +0.000 A 
ATOM      6  C   UNL     1       7.424   5.863  18.316  0.00  0.00    +0.000 A 
ATOM      7  C   UNL     1       7.105   6.714  17.265  0.00  0.00    +0.000 A 
ATOM      8  C   UNL     1       5.770   6.994  16.984  0.00  0.00    +0.000 A 
ATOM      9  C   UNL     1       4.737   6.459  17.774  0.00  0.00    +0.000 A 
ATOM     10  N   UNL     1       3.410   6.822  17.469  0.00  0.00    +0.000 N 
ATOM     11  C   UNL     1       2.578   7.395  18.450  0.00  0.00    +0.000 A 
ATOM     12  C   UNL     1       2.059   8.681  18.205  0.00  0.00    +0.000 A 
ATOM     13  C   UNL     1       1.288   9.391  19.141  0.00  0.00    +0.000 A 
ATOM     14  C   UNL     1       1.060   8.755  20.373  0.00  0.00    +0.000 A 
ATOM     15  C   UNL     1       1.577   7.482  20.643  0.00  0.00    +0.000 A 
ATOM     16  C   UNL     1       2.346   6.802  19.687  0.00  0.00    +0.000 A 
ATOM     17  H   UNL     1       4.409   4.242  20.252  0.00  0.00    +0.000 HD
ATOM     18  H   UNL     1       3.334   7.302  16.578  0.00  0.00    +0.000 HD
ENDROOT
BRANCH  13  19
ATOM     19  C   UNL     1       0.781  10.760  18.856  0.00  0.00    +0.000 A 
ATOM     20  C   UNL     1       1.672  11.854  18.831  0.00  0.00    +0.000 A 
ATOM     21  C   UNL     1       1.238  13.158  18.568  0.00  0.00    +0.000 A 
ATOM     22  C   UNL     1      -0.104  13.406  18.304  0.00  0.00    +0.000 A 
ATOM     23  C   UNL     1      -1.011  12.351  18.308  0.00  0.00    +0.000 A 
ATOM     24  C   UNL     1      -0.575  11.051  18.587  0.00  0.00    +0.000 A 
BRANCH  24  25
ATOM     25  O   UNL     1      -1.514  10.050  18.605  0.00  0.00    +0.000 OA
ATOM     26  H   UNL     1      -2.373  10.423  18.858  0.00  0.00    +0.000 HD
ENDBRANCH  24  25
ENDBRANCH  13  19
TORSDOF 2
ENDMDL
MODEL 5
REMARK VINA RESULT:      -8.6      5.179      8.394
REMARK  Name = 
REMARK  2 active torsions:
REMARK  status: ('A' for Active; 'I' for Inactive)
REMARK    1  A    between atoms: C_13  and  C_14
REMARK    2  A    between atoms: C_19  and  O_20
REMARK                            x       y       z     vdW  Elec       q    Type
REMARK                         _______ _______ _______ _____ _____    ______ ____
ROOT
ATOM      1  O   UNL     1       6.620   5.461  20.115  0.00  0.00    +0.000 OA
ATOM      2  C   UNL     1       5.649   5.049  19.468  0.00  0.00    +0.000 C 
ATOM      3  N   UNL     1       4.538   4.627  20.152  0.00  0.00    +0.000 N 
ATOM      4  C   UNL     1       3.309   4.136  19.679  0.00  0.00    +0.000 A 
ATOM      5  C   UNL     1       2.592   3.300  20.546  0.00  0.00    +0.000 A 
ATOM      6  C   UNL     1       1.381   2.735  20.147  0.00  0.00    +0.000 A 
ATOM      7  C   UNL     1       0.848   3.042  18.901  0.00  0.00    +0.000 A 
ATOM      8  C   UNL     1       1.524   3.922  18.059  0.00  0.00    +0.000 A 
ATOM      9  C   UNL     1       2.760   4.476  18.434  0.00  0.00    +0.000 A 
ATOM     10  N   UNL     1       3.418   5.319  17.516  0.00  0.00    +0.000 N 
ATOM     11  C   UNL     1       4.737   5.047  17.108  0.00  0.00    +0.000 A 
ATOM     12  C   UNL     1       4.972   4.830  15.736  0.00  0.00    +0.000 A 
ATOM     13  C   UNL     1       6.226   4.468  15.218  0.00  0.00    +0.000 A 
ATOM     14  C   UNL     1       7.267   4.312  16.150  0.00  0.00    +0.000 A 
ATOM     15  C   UNL     1       7.053   4.511  17.520  0.00  0.00    +0.000 A 
ATOM     16  C   UNL     1       5.786   4.868  18.005  0.00  0.00    +0.000 A 
ATOM     17  H   UNL     1       4.707   4.579  21.148  0.00  0.00    +0.000 HD
ATOM     18  H   UNL     1       2.825   5.581  16.735  0.00  0.00    +0.000 HD
ENDROOT
BRANCH  13  19
ATOM     19  C   UNL     1       6.429   4.220  13.765  0.00  0.00    +0.000 A 
ATOM     20  C   UNL     1       5.601   3.303  13.082  0.00  0.00    +0.000 A 
ATOM     21  C   UNL     1       5.756   3.039  11.717  0.00  0.00    +0.000 A 
ATOM     22  C   UNL     1       6.736   3.700  10.986  0.00  0.00    +0.000 A 
ATOM     23  C   UNL     1       7.564   4.621  11.622  0.00  0.00    +0.000 A 
ATOM     24  C   UNL     1       7.415   4.869  12.991  0.00  0.00    +0.000 A 
BRANCH  24  25
ATOM     25  O   UNL     1       8.274   5.766  13.576  0.00  0.00    +0.000 OA
ATOM     26  H   UNL     1       8.403   6.520  12.979  0.00  0.00    +0.000 HD
ENDBRANCH  24  25
ENDBRANCH  13  19
TORSDOF 2
ENDMDL
MODEL 6
REMARK VINA RESULT:      -8.5      2.349      7.203
REMARK  Name = 
REMARK  2 active torsions:
REMARK  status: ('A' for Active; 'I' for Inactive)
REMARK    1  A    between atoms: C_13  and  C_14
REMARK    2  A    between atoms: C_19  and  O_20
REMARK                            x       y       z     vdW  Elec       q    Type
REMARK                         _______ _______ _______ _____ _____    ______ ____
ROOT
ATOM      1  O   UNL     1       0.798  11.040  21.774  0.00  0.00    +0.000 OA
ATOM      2  C   UNL     1       0.322  10.677  20.691  0.00  0.00    +0.000 C 
ATOM      3  N   UNL     1      -0.846  11.254  20.264  0.00  0.00    +0.000 N 
ATOM      4  C   UNL     1      -1.587  11.049  19.087  0.00  0.00    +0.000 A 
ATOM      5  C   UNL     1      -2.956  11.342  19.149  0.00  0.00    +0.000 A 
ATOM      6  C   UNL     1      -3.777  11.131  18.041  0.00  0.00    +0.000 A 
ATOM      7  C   UNL     1      -3.230  10.678  16.847  0.00  0.00    +0.000 A 
ATOM      8  C   UNL     1      -1.860  10.446  16.760  0.00  0.00    +0.000 A 
ATOM      9  C   UNL     1      -1.023  10.624  17.876  0.00  0.00    +0.000 A 
ATOM     10  N   UNL     1       0.346  10.322  17.736  0.00  0.00    +0.000 N 
ATOM     11  C   UNL     1       0.973   9.406  18.603  0.00  0.00    +0.000 A 
ATOM     12  C   UNL     1       1.561   8.259  18.036  0.00  0.00    +0.000 A 
ATOM     13  C   UNL     1       2.140   7.234  18.803  0.00  0.00    +0.000 A 
ATOM     14  C   UNL     1       2.095   7.395  20.198  0.00  0.00    +0.000 A 
ATOM     15  C   UNL     1       1.505   8.522  20.783  0.00  0.00    +0.000 A 
ATOM     16  C   UNL     1       0.932   9.526  19.989  0.00  0.00    +0.000 A 
ATOM     17  H   UNL     1      -1.262  11.835  20.981  0.00  0.00    +0.000 HD
ATOM     18  H   UNL     1       0.615  10.175  16.768  0.00  0.00    +0.000 HD
ENDROOT
BRANCH  13  19
ATOM     19  C   UNL     1       2.726   6.022  18.169  0.00  0.00    +0.000 A 
ATOM     20  C   UNL     1       2.007   4.807  18.164  0.00  0.00    +0.000 A 
ATOM     21  C   UNL     1       2.521   3.645  17.580  0.00  0.00    +0.000 A 
ATOM     22  C   UNL     1       3.767   3.665  16.965  0.00  0.00    +0.000 A 
ATOM     23  C   UNL     1       4.501   4.847  16.939  0.00  0.00    +0.000 A 
ATOM     24  C   UNL     1       3.990   6.004  17.539  0.00  0.00    +0.000 A 
BRANCH  24  25
ATOM     25  O   UNL     1       4.764   7.137  17.509  0.00  0.00    +0.000 OA
ATOM     26  H   UNL     1       5.574   6.957  17.004  0.00  0.00    +0.000 HD
ENDBRANCH  24  25
ENDBRANCH  13  19
TORSDOF 2
ENDMDL
MODEL 7
REMARK VINA RESULT:      -8.2      2.456      3.982
REMARK  Name = 
REMARK  2 active torsions:
REMARK  status: ('A' for Active; 'I' for Inactive)
REMARK    1  A    between atoms: C_13  and  C_14
REMARK    2  A    between atoms: C_19  and  O_20
REMARK                            x       y       z     vdW  Elec       q    Type
REMARK                         _______ _______ _______ _____ _____    ______ ____
ROOT
ATOM      1  O   UNL     1       2.623   3.807  20.238  0.00  0.00    +0.000 OA
ATOM      2  C   UNL     1       3.230   4.739  19.697  0.00  0.00    +0.000 C 
ATOM      3  N   UNL     1       4.521   4.528  19.285  0.00  0.00    +0.000 N 
ATOM      4  C   UNL     1       5.422   5.390  18.636  0.00  0.00    +0.000 A 
ATOM      5  C   UNL     1       6.786   5.122  18.818  0.00  0.00    +0.000 A 
ATOM      6  C   UNL     1       7.754   5.948  18.245  0.00  0.00    +0.000 A 
ATOM      7  C   UNL     1       7.369   7.015  17.442  0.00  0.00    +0.000 A 
ATOM      8  C   UNL     1       6.017   7.249  17.206  0.00  0.00    +0.000 A 
ATOM      9  C   UNL     1       5.029   6.445  17.801  0.00  0.00    +0.000 A 
ATOM     10  N   UNL     1       3.677   6.766  17.563  0.00  0.00    +0.000 N 
ATOM     11  C   UNL     1       2.793   6.993  18.635  0.00  0.00    +0.000 A 
ATOM     12  C   UNL     1       2.167   8.252  18.717  0.00  0.00    +0.000 A 
ATOM     13  C   UNL     1       1.333   8.627  19.783  0.00  0.00    +0.000 A 
ATOM     14  C   UNL     1       1.153   7.676  20.802  0.00  0.00    +0.000 A 
ATOM     15  C   UNL     1       1.775   6.423  20.746  0.00  0.00    +0.000 A 
ATOM     16  C   UNL     1       2.606   6.081  19.669  0.00  0.00    +0.000 A 
ATOM     17  H   UNL     1       4.877   3.638  19.608  0.00  0.00    +0.000 HD
ATOM     18  H   UNL     1       3.565   7.454  16.825  0.00  0.00    +0.000 HD
ENDROOT
BRANCH  13  19
ATOM     19  C   UNL     1       0.711   9.978  19.849  0.00  0.00    +0.000 A 
ATOM     20  C   UNL     1       0.794  10.737  21.036  0.00  0.00    +0.000 A 
ATOM     21  C   UNL     1       0.224  12.010  21.143  0.00  0.00    +0.000 A 
ATOM     22  C   UNL     1      -0.434  12.573  20.055  0.00  0.00    +0.000 A 
ATOM     23  C   UNL     1      -0.526  11.860  18.864  0.00  0.00    +0.000 A 
ATOM     24  C   UNL     1       0.032  10.580  18.768  0.00  0.00    +0.000 A 
BRANCH  24  25
ATOM     25  O   UNL     1      -0.109   9.907  17.580  0.00  0.00    +0.000 OA
ATOM     26  H   UNL     1       0.417   9.092  17.610  0.00  0.00    +0.000 HD
ENDBRANCH  24  25
ENDBRANCH  13  19
TORSDOF 2
ENDMDL
MODEL 8
REMARK VINA RESULT:      -8.1      2.252      3.743
REMARK  Name = 
REMARK  2 active torsions:
REMARK  status: ('A' for Active; 'I' for Inactive)
REMARK    1  A    between atoms: C_13  and  C_14
REMARK    2  A    between atoms: C_19  and  O_20
REMARK                            x       y       z     vdW  Elec       q    Type
REMARK                         _______ _______ _______ _____ _____    ______ ____
ROOT
ATOM      1  O   UNL     1       2.737   3.493  20.219  0.00  0.00    +0.000 OA
ATOM      2  C   UNL     1       3.328   4.443  19.692  0.00  0.00    +0.000 C 
ATOM      3  N   UNL     1       4.624   4.262  19.283  0.00  0.00    +0.000 N 
ATOM      4  C   UNL     1       5.512   5.149  18.649  0.00  0.00    +0.000 A 
ATOM      5  C   UNL     1       6.879   4.905  18.833  0.00  0.00    +0.000 A 
ATOM      6  C   UNL     1       7.833   5.757  18.275  0.00  0.00    +0.000 A 
ATOM      7  C   UNL     1       7.432   6.826  17.484  0.00  0.00    +0.000 A 
ATOM      8  C   UNL     1       6.076   7.037  17.245  0.00  0.00    +0.000 A 
ATOM      9  C   UNL     1       5.102   6.207  17.825  0.00  0.00    +0.000 A 
ATOM     10  N   UNL     1       3.745   6.505  17.586  0.00  0.00    +0.000 N 
ATOM     11  C   UNL     1       2.852   6.702  18.657  0.00  0.00    +0.000 A 
ATOM     12  C   UNL     1       2.202   7.948  18.752  0.00  0.00    +0.000 A 
ATOM     13  C   UNL     1       1.356   8.293  19.819  0.00  0.00    +0.000 A 
ATOM     14  C   UNL     1       1.190   7.326  20.825  0.00  0.00    +0.000 A 
ATOM     15  C   UNL     1       1.837   6.086  20.756  0.00  0.00    +0.000 A 
ATOM     16  C   UNL     1       2.678   5.774  19.679  0.00  0.00    +0.000 A 
ATOM     17  H   UNL     1       4.996   3.376  19.597  0.00  0.00    +0.000 HD
ATOM     18  H   UNL     1       3.623   7.200  16.856  0.00  0.00    +0.000 HD
ENDROOT
BRANCH  13  19
ATOM     19  C   UNL     1       0.708   9.631  19.900  0.00  0.00    +0.000 A 
ATOM     20  C   UNL     1       0.030  10.157  18.779  0.00  0.00    +0.000 A 
ATOM     21  C   UNL     1      -0.592  11.409  18.810  0.00  0.00    +0.000 A 
ATOM     22  C   UNL     1      -0.571  12.170  19.974  0.00  0.00    +0.000 A 
ATOM     23  C   UNL     1       0.078  11.679  21.103  0.00  0.00    +0.000 A 
ATOM     24  C   UNL     1       0.713  10.433  21.062  0.00  0.00    +0.000 A 
BRANCH  24  25
ATOM     25  O   UNL     1       1.361  10.006  22.194  0.00  0.00    +0.000 OA
ATOM     26  H   UNL     1       1.372   9.036  22.209  0.00  0.00    +0.000 HD
ENDBRANCH  24  25
ENDBRANCH  13  19
TORSDOF 2
ENDMDL
MODEL 9
REMARK VINA RESULT:      -8.1      2.596      7.165
REMARK  Name = 
REMARK  2 active torsions:
REMARK  status: ('A' for Active; 'I' for Inactive)
REMARK    1  A    between atoms: C_13  and  C_14
REMARK    2  A    between atoms: C_19  and  O_20
REMARK                            x       y       z     vdW  Elec       q    Type
REMARK                         _______ _______ _______ _____ _____    ______ ____
ROOT
ATOM      1  O   UNL     1       0.359  11.046  21.900  0.00  0.00    +0.000 OA
ATOM      2  C   UNL     1      -0.015  10.695  20.775  0.00  0.00    +0.000 C 
ATOM      3  N   UNL     1      -1.199  11.192  20.294  0.00  0.00    +0.000 N 
ATOM      4  C   UNL     1      -1.844  10.980  19.063  0.00  0.00    +0.000 A 
ATOM      5  C   UNL     1      -3.234  11.154  19.045  0.00  0.00    +0.000 A 
ATOM      6  C   UNL     1      -3.963  10.927  17.877  0.00  0.00    +0.000 A 
ATOM      7  C   UNL     1      -3.304  10.577  16.704  0.00  0.00    +0.000 A 
ATOM      8  C   UNL     1      -1.916  10.464  16.700  0.00  0.00    +0.000 A 
ATOM      9  C   UNL     1      -1.170  10.660  17.875  0.00  0.00    +0.000 A 
ATOM     10  N   UNL     1       0.226  10.480  17.816  0.00  0.00    +0.000 N 
ATOM     11  C   UNL     1       0.873   9.581  18.684  0.00  0.00    +0.000 A 
ATOM     12  C   UNL     1       1.593   8.514  18.112  0.00  0.00    +0.000 A 
ATOM     13  C   UNL     1       2.208   7.506  18.873  0.00  0.00    +0.000 A 
ATOM     14  C   UNL     1       2.063   7.599  20.268  0.00  0.00    +0.000 A 
ATOM     15  C   UNL     1       1.341   8.644  20.857  0.00  0.00    +0.000 A 
ATOM     16  C   UNL     1       0.735   9.632  20.068  0.00  0.00    +0.000 A 
ATOM     17  H   UNL     1      -1.708  11.703  21.004  0.00  0.00    +0.000 HD
ATOM     18  H   UNL     1       0.567  10.401  16.863  0.00  0.00    +0.000 HD
ENDROOT
BRANCH  13  19
ATOM     19  C   UNL     1       2.936   6.379  18.231  0.00  0.00    +0.000 A 
ATOM     20  C   UNL     1       4.085   6.631  17.450  0.00  0.00    +0.000 A 
ATOM     21  C   UNL     1       4.799   5.602  16.828  0.00  0.00    +0.000 A 
ATOM     22  C   UNL     1       4.396   4.280  16.985  0.00  0.00    +0.000 A 
ATOM     23  C   UNL     1       3.276   3.990  17.757  0.00  0.00    +0.000 A 
ATOM     24  C   UNL     1       2.555   5.025  18.364  0.00  0.00    +0.000 A 
BRANCH  24  25
ATOM     25  O   UNL     1       1.442   4.689  19.094  0.00  0.00    +0.000 OA
ATOM     26  H   UNL     1       1.354   3.723  19.113  0.00  0.00    +0.000 HD
ENDBRANCH  24  25
ENDBRANCH  13  19
TORSDOF 2
ENDMDL
