MODEL 1
REMARK VINA RESULT:      -6.1      0.000      0.000
REMARK  Name = 
REMARK  3 active torsions:
REMARK  status: ('A' for Active; 'I' for Inactive)
REMARK    1  A    between atoms: C_2  and  C_3
REMARK    2  A    between atoms: C_6  and  C_7
REMARK    3  A    between atoms: C_16  and  N_17
REMARK                            x       y       z     vdW  Elec       q    Type
REMARK                         _______ _______ _______ _____ _____    ______ ____
ROOT
ATOM      1  C   UNL     1      10.128  14.265  18.188  0.00  0.00    +0.000 A 
ATOM      2  C   UNL     1      11.314  14.602  17.320  0.00  0.00    +0.000 A 
ATOM      3 CL   UNL     1      12.145  13.356  16.437  0.00  0.00    +0.000 Cl
ATOM      4  N   UNL     1      11.815  15.782  17.141  0.00  0.00    +0.000 NA
ATOM      5  C   UNL     1      11.207  16.796  17.805  0.00  0.00    +0.000 A 
ATOM      6  N   UNL     1      11.541  18.068  17.816  0.00  0.00    +0.000 NA
ATOM      7  C   UNL     1      10.614  18.630  18.626  0.00  0.00    +0.000 A 
ATOM      8  N   UNL     1       9.700  17.802  19.114  0.00  0.00    +0.000 NA
ATOM      9  N   UNL     1      10.083  16.594  18.626  0.00  0.00    +0.000 N 
ATOM     10  C   UNL     1       9.533  15.293  18.844  0.00  0.00    +0.000 A 
ENDROOT
BRANCH  10  11
ATOM     11  N   UNL     1       8.441  15.156  19.753  0.00  0.00    +0.000 N 
ATOM     12  C   UNL     1       7.054  15.172  19.269  0.00  0.00    +0.000 C 
ATOM     13  C   UNL     1       6.141  16.109  20.065  0.00  0.00    +0.000 C 
ATOM     14  C   UNL     1       6.712  17.507  20.288  0.00  0.00    +0.000 C 
ATOM     15  C   UNL     1       7.453  17.763  21.610  0.00  0.00    +0.000 C 
ATOM     16  C   UNL     1       8.612  16.865  22.065  0.00  0.00    +0.000 C 
ATOM     17  C   UNL     1       8.267  15.391  22.247  0.00  0.00    +0.000 C 
ATOM     18  C   UNL     1       8.647  14.504  21.059  0.00  0.00    +0.000 C 
ENDBRANCH  10  11
BRANCH   1  22
ATOM     19  C   UNL     1       8.895  10.177  18.395  0.00  0.00    +0.000 A 
ATOM     20  C   UNL     1       8.230  11.069  17.541  0.00  0.00    +0.000 A 
ATOM     21  C   UNL     1       8.615  12.412  17.488  0.00  0.00    +0.000 A 
ATOM     22  C   UNL     1       9.671  12.870  18.284  0.00  0.00    +0.000 A 
ATOM     23  C   UNL     1      10.328  11.966  19.127  0.00  0.00    +0.000 A 
ATOM     24  F   UNL     1      11.359  12.379  19.878  0.00  0.00    +0.000 F 
ATOM     25  C   UNL     1       9.948  10.630  19.190  0.00  0.00    +0.000 A 
BRANCH  19  27
ATOM     26  N   UNL     1       8.178   7.688  18.484  0.00  0.00    +0.000 NA
ATOM     27  C   UNL     1       8.500   8.802  18.443  0.00  0.00    +0.000 C 
ENDBRANCH  19  27
ENDBRANCH   1  22
TORSDOF 3
ENDMDL
MODEL 2
REMARK VINA RESULT:      -6.0      3.628      5.618
REMARK  Name = 
REMARK  3 active torsions:
REMARK  status: ('A' for Active; 'I' for Inactive)
REMARK    1  A    between atoms: C_2  and  C_3
REMARK    2  A    between atoms: C_6  and  C_7
REMARK    3  A    between atoms: C_16  and  N_17
REMARK                            x       y       z     vdW  Elec       q    Type
REMARK                         _______ _______ _______ _____ _____    ______ ____
ROOT
ATOM      1  C   UNL     1       9.439  14.449  22.317  0.00  0.00    +0.000 A 
ATOM      2  C   UNL     1       9.913  15.667  23.071  0.00  0.00    +0.000 A 
ATOM      3 CL   UNL     1       9.296  16.021  24.657  0.00  0.00    +0.000 Cl
ATOM      4  N   UNL     1      10.780  16.531  22.650  0.00  0.00    +0.000 NA
ATOM      5  C   UNL     1      11.298  16.307  21.417  0.00  0.00    +0.000 A 
ATOM      6  N   UNL     1      12.162  17.047  20.757  0.00  0.00    +0.000 NA
ATOM      7  C   UNL     1      12.333  16.372  19.596  0.00  0.00    +0.000 A 
ATOM      8  N   UNL     1      11.650  15.241  19.483  0.00  0.00    +0.000 NA
ATOM      9  N   UNL     1      10.937  15.191  20.638  0.00  0.00    +0.000 N 
ATOM     10  C   UNL     1       9.969  14.241  21.085  0.00  0.00    +0.000 A 
ENDROOT
BRANCH  10  11
ATOM     11  N   UNL     1       9.596  13.180  20.207  0.00  0.00    +0.000 N 
ATOM     12  C   UNL     1       9.920  11.785  20.535  0.00  0.00    +0.000 C 
ATOM     13  C   UNL     1      10.563  11.019  19.374  0.00  0.00    +0.000 C 
ATOM     14  C   UNL     1      11.713  11.755  18.693  0.00  0.00    +0.000 C 
ATOM     15  C   UNL     1      11.379  12.575  17.437  0.00  0.00    +0.000 C 
ATOM     16  C   UNL     1      10.275  13.641  17.447  0.00  0.00    +0.000 C 
ATOM     17  C   UNL     1       8.880  13.137  17.801  0.00  0.00    +0.000 C 
ATOM     18  C   UNL     1       8.480  13.364  19.261  0.00  0.00    +0.000 C 
ENDBRANCH  10  11
BRANCH   1  22
ATOM     19  C   UNL     1       6.534  11.936  24.194  0.00  0.00    +0.000 A 
ATOM     20  C   UNL     1       7.898  11.755  24.464  0.00  0.00    +0.000 A 
ATOM     21  C   UNL     1       8.853  12.560  23.834  0.00  0.00    +0.000 A 
ATOM     22  C   UNL     1       8.449  13.554  22.936  0.00  0.00    +0.000 A 
ATOM     23  C   UNL     1       7.083  13.725  22.681  0.00  0.00    +0.000 A 
ATOM     24  F   UNL     1       6.674  14.689  21.844  0.00  0.00    +0.000 F 
ATOM     25  C   UNL     1       6.127  12.926  23.298  0.00  0.00    +0.000 A 
BRANCH  19  27
ATOM     26  N   UNL     1       4.771  10.444  25.369  0.00  0.00    +0.000 NA
ATOM     27  C   UNL     1       5.560  11.113  24.844  0.00  0.00    +0.000 C 
ENDBRANCH  19  27
ENDBRANCH   1  22
TORSDOF 3
ENDMDL
MODEL 3
REMARK VINA RESULT:      -6.0     10.115     12.580
REMARK  Name = 
REMARK  3 active torsions:
REMARK  status: ('A' for Active; 'I' for Inactive)
REMARK    1  A    between atoms: C_2  and  C_3
REMARK    2  A    between atoms: C_6  and  C_7
REMARK    3  A    between atoms: C_16  and  N_17
REMARK                            x       y       z     vdW  Elec       q    Type
REMARK                         _______ _______ _______ _____ _____    ______ ____
ROOT
ATOM      1  C   UNL     1      -1.312  13.894  22.458  0.00  0.00    +0.000 A 
ATOM      2  C   UNL     1      -0.697  15.199  22.898  0.00  0.00    +0.000 A 
ATOM      3 CL   UNL     1      -1.631  16.359  23.795  0.00  0.00    +0.000 Cl
ATOM      4  N   UNL     1       0.520  15.579  22.675  0.00  0.00    +0.000 NA
ATOM      5  C   UNL     1       1.299  14.714  21.978  0.00  0.00    +0.000 A 
ATOM      6  N   UNL     1       2.547  14.877  21.598  0.00  0.00    +0.000 NA
ATOM      7  C   UNL     1       2.832  13.726  20.947  0.00  0.00    +0.000 A 
ATOM      8  N   UNL     1       1.852  12.832  20.905  0.00  0.00    +0.000 NA
ATOM      9  N   UNL     1       0.829  13.463  21.536  0.00  0.00    +0.000 N 
ATOM     10  C   UNL     1      -0.517  13.041  21.762  0.00  0.00    +0.000 A 
ENDROOT
BRANCH  10  11
ATOM     11  N   UNL     1      -0.944  11.794  21.215  0.00  0.00    +0.000 N 
ATOM     12  C   UNL     1      -0.908  10.568  22.023  0.00  0.00    +0.000 C 
ATOM     13  C   UNL     1      -0.255   9.383  21.306  0.00  0.00    +0.000 C 
ATOM     14  C   UNL     1       1.085   9.704  20.648  0.00  0.00    +0.000 C 
ATOM     15  C   UNL     1       1.066  10.078  19.157  0.00  0.00    +0.000 C 
ATOM     16  C   UNL     1       0.168  11.203  18.625  0.00  0.00    +0.000 C 
ATOM     17  C   UNL     1      -1.327  11.014  18.859  0.00  0.00    +0.000 C 
ATOM     18  C   UNL     1      -1.875  11.771  20.072  0.00  0.00    +0.000 C 
ENDBRANCH  10  11
BRANCH   1  22
ATOM     19  C   UNL     1      -5.396  13.161  23.483  0.00  0.00    +0.000 A 
ATOM     20  C   UNL     1      -4.368  12.668  24.300  0.00  0.00    +0.000 A 
ATOM     21  C   UNL     1      -3.031  12.886  23.955  0.00  0.00    +0.000 A 
ATOM     22  C   UNL     1      -2.714  13.602  22.795  0.00  0.00    +0.000 A 
ATOM     23  C   UNL     1      -3.752  14.091  21.993  0.00  0.00    +0.000 A 
ATOM     24  F   UNL     1      -3.470  14.802  20.892  0.00  0.00    +0.000 F 
ATOM     25  C   UNL     1      -5.084  13.875  22.325  0.00  0.00    +0.000 A 
BRANCH  19  27
ATOM     26  N   UNL     1      -7.873  12.760  24.133  0.00  0.00    +0.000 NA
ATOM     27  C   UNL     1      -6.764  12.939  23.841  0.00  0.00    +0.000 C 
ENDBRANCH  19  27
ENDBRANCH   1  22
TORSDOF 3
ENDMDL
MODEL 4
REMARK VINA RESULT:      -5.9     11.128     13.501
REMARK  Name = 
REMARK  3 active torsions:
REMARK  status: ('A' for Active; 'I' for Inactive)
REMARK    1  A    between atoms: C_2  and  C_3
REMARK    2  A    between atoms: C_6  and  C_7
REMARK    3  A    between atoms: C_16  and  N_17
REMARK                            x       y       z     vdW  Elec       q    Type
REMARK                         _______ _______ _______ _____ _____    ______ ____
ROOT
ATOM      1  C   UNL     1      -2.903  12.345  19.801  0.00  0.00    +0.000 A 
ATOM      2  C   UNL     1      -3.323  11.732  18.489  0.00  0.00    +0.000 A 
ATOM      3 CL   UNL     1      -2.157  11.451  17.230  0.00  0.00    +0.000 Cl
ATOM      4  N   UNL     1      -4.523  11.364  18.172  0.00  0.00    +0.000 NA
ATOM      5  C   UNL     1      -5.477  11.558  19.116  0.00  0.00    +0.000 A 
ATOM      6  N   UNL     1      -6.764  11.301  19.028  0.00  0.00    +0.000 NA
ATOM      7  C   UNL     1      -7.244  11.677  20.236  0.00  0.00    +0.000 A 
ATOM      8  N   UNL     1      -6.343  12.137  21.094  0.00  0.00    +0.000 NA
ATOM      9  N   UNL     1      -5.189  12.106  20.379  0.00  0.00    +0.000 N 
ATOM     10  C   UNL     1      -3.872  12.531  20.734  0.00  0.00    +0.000 A 
ENDROOT
BRANCH  10  11
ATOM     11  N   UNL     1      -3.672  13.150  22.003  0.00  0.00    +0.000 N 
ATOM     12  C   UNL     1      -3.284  12.354  23.175  0.00  0.00    +0.000 C 
ATOM     13  C   UNL     1      -4.129  12.647  24.419  0.00  0.00    +0.000 C 
ATOM     14  C   UNL     1      -5.634  12.652  24.172  0.00  0.00    +0.000 C 
ATOM     15  C   UNL     1      -6.299  14.011  23.895  0.00  0.00    +0.000 C 
ATOM     16  C   UNL     1      -5.787  14.941  22.787  0.00  0.00    +0.000 C 
ATOM     17  C   UNL     1      -4.336  15.390  22.925  0.00  0.00    +0.000 C 
ATOM     18  C   UNL     1      -3.346  14.587  22.079  0.00  0.00    +0.000 C 
ENDBRANCH  10  11
BRANCH   1  22
ATOM     19  C   UNL     1       1.169  13.415  20.540  0.00  0.00    +0.000 A 
ATOM     20  C   UNL     1       0.309  14.323  19.905  0.00  0.00    +0.000 A 
ATOM     21  C   UNL     1      -1.018  13.967  19.640  0.00  0.00    +0.000 A 
ATOM     22  C   UNL     1      -1.493  12.705  20.015  0.00  0.00    +0.000 A 
ATOM     23  C   UNL     1      -0.622  11.814  20.652  0.00  0.00    +0.000 A 
ATOM     24  F   UNL     1      -1.065  10.609  21.043  0.00  0.00    +0.000 F 
ATOM     25  C   UNL     1       0.699  12.156  20.914  0.00  0.00    +0.000 A 
BRANCH  19  27
ATOM     26  N   UNL     1       3.625  14.083  21.034  0.00  0.00    +0.000 NA
ATOM     27  C   UNL     1       2.525  13.785  20.812  0.00  0.00    +0.000 C 
ENDBRANCH  19  27
ENDBRANCH   1  22
TORSDOF 3
ENDMDL
MODEL 5
REMARK VINA RESULT:      -5.9      2.825      5.447
REMARK  Name = 
REMARK  3 active torsions:
REMARK  status: ('A' for Active; 'I' for Inactive)
REMARK    1  A    between atoms: C_2  and  C_3
REMARK    2  A    between atoms: C_6  and  C_7
REMARK    3  A    between atoms: C_16  and  N_17
REMARK                            x       y       z     vdW  Elec       q    Type
REMARK                         _______ _______ _______ _____ _____    ______ ____
ROOT
ATOM      1  C   UNL     1       8.580  15.728  20.306  0.00  0.00    +0.000 A 
ATOM      2  C   UNL     1       8.471  17.186  19.937  0.00  0.00    +0.000 A 
ATOM      3 CL   UNL     1       7.465  18.260  20.862  0.00  0.00    +0.000 Cl
ATOM      4  N   UNL     1       9.080  17.769  18.954  0.00  0.00    +0.000 NA
ATOM      5  C   UNL     1       9.881  16.980  18.196  0.00  0.00    +0.000 A 
ATOM      6  N   UNL     1      10.575  17.321  17.132  0.00  0.00    +0.000 NA
ATOM      7  C   UNL     1      11.187  16.168  16.772  0.00  0.00    +0.000 A 
ATOM      8  N   UNL     1      10.943  15.122  17.550  0.00  0.00    +0.000 NA
ATOM      9  N   UNL     1      10.066  15.611  18.464  0.00  0.00    +0.000 N 
ATOM     10  C   UNL     1       9.386  14.955  19.536  0.00  0.00    +0.000 A 
ENDROOT
BRANCH  10  11
ATOM     11  N   UNL     1       9.563  13.548  19.698  0.00  0.00    +0.000 N 
ATOM     12  C   UNL     1      10.279  13.009  20.862  0.00  0.00    +0.000 C 
ATOM     13  C   UNL     1      11.342  11.970  20.497  0.00  0.00    +0.000 C 
ATOM     14  C   UNL     1      12.275  12.392  19.365  0.00  0.00    +0.000 C 
ATOM     15  C   UNL     1      11.914  11.929  17.944  0.00  0.00    +0.000 C 
ATOM     16  C   UNL     1      10.529  12.204  17.341  0.00  0.00    +0.000 C 
ATOM     17  C   UNL     1       9.350  11.615  18.109  0.00  0.00    +0.000 C 
ATOM     18  C   UNL     1       8.641  12.609  19.032  0.00  0.00    +0.000 C 
ENDBRANCH  10  11
BRANCH   1  22
ATOM     19  C   UNL     1       6.461  14.132  23.658  0.00  0.00    +0.000 A 
ATOM     20  C   UNL     1       5.874  14.118  22.385  0.00  0.00    +0.000 A 
ATOM     21  C   UNL     1       6.554  14.660  21.290  0.00  0.00    +0.000 A 
ATOM     22  C   UNL     1       7.828  15.214  21.462  0.00  0.00    +0.000 A 
ATOM     23  C   UNL     1       8.401  15.217  22.738  0.00  0.00    +0.000 A 
ATOM     24  F   UNL     1       9.631  15.719  22.919  0.00  0.00    +0.000 F 
ATOM     25  C   UNL     1       7.730  14.685  23.833  0.00  0.00    +0.000 A 
BRANCH  19  27
ATOM     26  N   UNL     1       5.194  13.119  25.680  0.00  0.00    +0.000 NA
ATOM     27  C   UNL     1       5.762  13.573  24.776  0.00  0.00    +0.000 C 
ENDBRANCH  19  27
ENDBRANCH   1  22
TORSDOF 3
ENDMDL
MODEL 6
REMARK VINA RESULT:      -5.9      1.417      1.773
REMARK  Name = 
REMARK  3 active torsions:
REMARK  status: ('A' for Active; 'I' for Inactive)
REMARK    1  A    between atoms: C_2  and  C_3
REMARK    2  A    between atoms: C_6  and  C_7
REMARK    3  A    between atoms: C_16  and  N_17
REMARK                            x       y       z     vdW  Elec       q    Type
REMARK                         _______ _______ _______ _____ _____    ______ ____
ROOT
ATOM      1  C   UNL     1      10.116  13.857  18.690  0.00  0.00    +0.000 A 
ATOM      2  C   UNL     1      11.213  14.406  17.812  0.00  0.00    +0.000 A 
ATOM      3 CL   UNL     1      11.908  13.431  16.552  0.00  0.00    +0.000 Cl
ATOM      4  N   UNL     1      11.726  15.591  17.889  0.00  0.00    +0.000 NA
ATOM      5  C   UNL     1      11.222  16.399  18.854  0.00  0.00    +0.000 A 
ATOM      6  N   UNL     1      11.592  17.625  19.156  0.00  0.00    +0.000 NA
ATOM      7  C   UNL     1      10.774  17.959  20.181  0.00  0.00    +0.000 A 
ATOM      8  N   UNL     1       9.893  17.033  20.537  0.00  0.00    +0.000 NA
ATOM      9  N   UNL     1      10.186  15.992  19.715  0.00  0.00    +0.000 N 
ATOM     10  C   UNL     1       9.625  14.680  19.651  0.00  0.00    +0.000 A 
ENDROOT
BRANCH  10  11
ATOM     11  N   UNL     1       8.633  14.313  20.608  0.00  0.00    +0.000 N 
ATOM     12  C   UNL     1       7.207  14.541  20.339  0.00  0.00    +0.000 C 
ATOM     13  C   UNL     1       6.468  15.220  21.496  0.00  0.00    +0.000 C 
ATOM     14  C   UNL     1       7.174  16.451  22.059  0.00  0.00    +0.000 C 
ATOM     15  C   UNL     1       8.076  16.245  23.287  0.00  0.00    +0.000 C 
ATOM     16  C   UNL     1       9.199  15.199  23.289  0.00  0.00    +0.000 C 
ATOM     17  C   UNL     1       8.755  13.760  23.055  0.00  0.00    +0.000 C 
ATOM     18  C   UNL     1       8.928  13.275  21.613  0.00  0.00    +0.000 C 
ENDBRANCH  10  11
BRANCH   1  22
ATOM     19  C   UNL     1       8.619   9.890  18.142  0.00  0.00    +0.000 A 
ATOM     20  C   UNL     1       9.748  10.110  18.944  0.00  0.00    +0.000 A 
ATOM     21  C   UNL     1      10.255  11.403  19.107  0.00  0.00    +0.000 A 
ATOM     22  C   UNL     1       9.632  12.485  18.473  0.00  0.00    +0.000 A 
ATOM     23  C   UNL     1       8.503  12.249  17.680  0.00  0.00    +0.000 A 
ATOM     24  F   UNL     1       7.876  13.274  17.085  0.00  0.00    +0.000 F 
ATOM     25  C   UNL     1       7.996  10.966  17.508  0.00  0.00    +0.000 A 
BRANCH  19  27
ATOM     26  N   UNL     1       7.682   7.491  17.852  0.00  0.00    +0.000 NA
ATOM     27  C   UNL     1       8.102   8.565  17.980  0.00  0.00    +0.000 C 
ENDBRANCH  19  27
ENDBRANCH   1  22
TORSDOF 3
ENDMDL
MODEL 7
REMARK VINA RESULT:      -5.8      2.958      5.484
REMARK  Name = 
REMARK  3 active torsions:
REMARK  status: ('A' for Active; 'I' for Inactive)
REMARK    1  A    between atoms: C_2  and  C_3
REMARK    2  A    between atoms: C_6  and  C_7
REMARK    3  A    between atoms: C_16  and  N_17
REMARK                            x       y       z     vdW  Elec       q    Type
REMARK                         _______ _______ _______ _____ _____    ______ ____
ROOT
ATOM      1  C   UNL     1       8.077  15.864  19.958  0.00  0.00    +0.000 A 
ATOM      2  C   UNL     1       8.344  17.349  19.959  0.00  0.00    +0.000 A 
ATOM      3 CL   UNL     1       7.078  18.475  20.347  0.00  0.00    +0.000 Cl
ATOM      4  N   UNL     1       9.476  17.917  19.692  0.00  0.00    +0.000 NA
ATOM      5  C   UNL     1      10.503  17.088  19.382  0.00  0.00    +0.000 A 
ATOM      6  N   UNL     1      11.732  17.415  19.044  0.00  0.00    +0.000 NA
ATOM      7  C   UNL     1      12.333  16.219  18.845  0.00  0.00    +0.000 A 
ATOM      8  N   UNL     1      11.574  15.152  19.055  0.00  0.00    +0.000 NA
ATOM      9  N   UNL     1      10.365  15.687  19.369  0.00  0.00    +0.000 N 
ATOM     10  C   UNL     1       9.117  15.050  19.645  0.00  0.00    +0.000 A 
ENDROOT
BRANCH  10  11
ATOM     11  N   UNL     1       9.035  13.630  19.536  0.00  0.00    +0.000 N 
ATOM     12  C   UNL     1       9.026  12.782  20.736  0.00  0.00    +0.000 C 
ATOM     13  C   UNL     1      10.009  11.611  20.663  0.00  0.00    +0.000 C 
ATOM     14  C   UNL     1      11.416  11.995  20.214  0.00  0.00    +0.000 C 
ATOM     15  C   UNL     1      11.747  11.840  18.721  0.00  0.00    +0.000 C 
ATOM     16  C   UNL     1      10.874  12.487  17.637  0.00  0.00    +0.000 C 
ATOM     17  C   UNL     1       9.414  12.049  17.622  0.00  0.00    +0.000 C 
ATOM     18  C   UNL     1       8.459  13.016  18.324  0.00  0.00    +0.000 C 
ENDBRANCH  10  11
BRANCH   1  22
ATOM     19  C   UNL     1       4.128  14.541  20.921  0.00  0.00    +0.000 A 
ATOM     20  C   UNL     1       5.094  14.660  21.931  0.00  0.00    +0.000 A 
ATOM     21  C   UNL     1       6.394  15.070  21.616  0.00  0.00    +0.000 A 
ATOM     22  C   UNL     1       6.732  15.369  20.291  0.00  0.00    +0.000 A 
ATOM     23  C   UNL     1       5.755  15.250  19.297  0.00  0.00    +0.000 A 
ATOM     24  F   UNL     1       6.052  15.556  18.025  0.00  0.00    +0.000 F 
ATOM     25  C   UNL     1       4.462  14.838  19.599  0.00  0.00    +0.000 A 
BRANCH  19  27
ATOM     26  N   UNL     1       1.720  13.786  21.513  0.00  0.00    +0.000 NA
ATOM     27  C   UNL     1       2.798  14.125  21.249  0.00  0.00    +0.000 C 
ENDBRANCH  19  27
ENDBRANCH   1  22
TORSDOF 3
ENDMDL
MODEL 8
REMARK VINA RESULT:      -5.8      3.443      5.773
REMARK  Name = 
REMARK  3 active torsions:
REMARK  status: ('A' for Active; 'I' for Inactive)
REMARK    1  A    between atoms: C_2  and  C_3
REMARK    2  A    between atoms: C_6  and  C_7
REMARK    3  A    between atoms: C_16  and  N_17
REMARK                            x       y       z     vdW  Elec       q    Type
REMARK                         _______ _______ _______ _____ _____    ______ ____
ROOT
ATOM      1  C   UNL     1       7.841  14.434  21.328  0.00  0.00    +0.000 A 
ATOM      2  C   UNL     1       7.085  15.700  21.013  0.00  0.00    +0.000 A 
ATOM      3 CL   UNL     1       5.884  16.310  22.112  0.00  0.00    +0.000 Cl
ATOM      4  N   UNL     1       7.236  16.433  19.957  0.00  0.00    +0.000 NA
ATOM      5  C   UNL     1       8.162  16.008  19.062  0.00  0.00    +0.000 A 
ATOM      6  N   UNL     1       8.478  16.551  17.906  0.00  0.00    +0.000 NA
ATOM      7  C   UNL     1       9.446  15.735  17.428  0.00  0.00    +0.000 A 
ATOM      8  N   UNL     1       9.780  14.720  18.213  0.00  0.00    +0.000 NA
ATOM      9  N   UNL     1       8.934  14.849  19.267  0.00  0.00    +0.000 N 
ATOM     10  C   UNL     1       8.763  14.024  20.421  0.00  0.00    +0.000 A 
ENDROOT
BRANCH  10  11
ATOM     11  N   UNL     1       9.527  12.823  20.522  0.00  0.00    +0.000 N 
ATOM     12  C   UNL     1      10.916  12.853  20.999  0.00  0.00    +0.000 C 
ATOM     13  C   UNL     1      11.884  12.069  20.108  0.00  0.00    +0.000 C 
ATOM     14  C   UNL     1      11.757  12.373  18.618  0.00  0.00    +0.000 C 
ATOM     15  C   UNL     1      10.868  11.440  17.781  0.00  0.00    +0.000 C 
ATOM     16  C   UNL     1       9.412  11.154  18.177  0.00  0.00    +0.000 C 
ATOM     17  C   UNL     1       9.218  10.527  19.553  0.00  0.00    +0.000 C 
ATOM     18  C   UNL     1       8.842  11.523  20.652  0.00  0.00    +0.000 C 
ENDBRANCH  10  11
BRANCH   1  22
ATOM     19  C   UNL     1       7.110  12.258  24.935  0.00  0.00    +0.000 A 
ATOM     20  C   UNL     1       6.255  12.102  23.834  0.00  0.00    +0.000 A 
ATOM     21  C   UNL     1       6.477  12.829  22.661  0.00  0.00    +0.000 A 
ATOM     22  C   UNL     1       7.559  13.713  22.579  0.00  0.00    +0.000 A 
ATOM     23  C   UNL     1       8.406  13.854  23.685  0.00  0.00    +0.000 A 
ATOM     24  F   UNL     1       9.463  14.676  23.618  0.00  0.00    +0.000 F 
ATOM     25  C   UNL     1       8.189  13.139  24.857  0.00  0.00    +0.000 A 
BRANCH  19  27
ATOM     26  N   UNL     1       6.694  10.903  27.105  0.00  0.00    +0.000 NA
ATOM     27  C   UNL     1       6.880  11.509  26.132  0.00  0.00    +0.000 C 
ENDBRANCH  19  27
ENDBRANCH   1  22
TORSDOF 3
ENDMDL
MODEL 9
REMARK VINA RESULT:      -5.8     10.303     13.194
REMARK  Name = 
REMARK  3 active torsions:
REMARK  status: ('A' for Active; 'I' for Inactive)
REMARK    1  A    between atoms: C_2  and  C_3
REMARK    2  A    between atoms: C_6  and  C_7
REMARK    3  A    between atoms: C_16  and  N_17
REMARK                            x       y       z     vdW  Elec       q    Type
REMARK                         _______ _______ _______ _____ _____    ______ ____
ROOT
ATOM      1  C   UNL     1      -2.881  12.727  20.324  0.00  0.00    +0.000 A 
ATOM      2  C   UNL     1      -4.280  12.628  19.767  0.00  0.00    +0.000 A 
ATOM      3 CL   UNL     1      -5.585  13.520  20.492  0.00  0.00    +0.000 Cl
ATOM      4  N   UNL     1      -4.644  11.917  18.749  0.00  0.00    +0.000 NA
ATOM      5  C   UNL     1      -3.667  11.199  18.141  0.00  0.00    +0.000 A 
ATOM      6  N   UNL     1      -3.784  10.381  17.118  0.00  0.00    +0.000 NA
ATOM      7  C   UNL     1      -2.520   9.939  16.921  0.00  0.00    +0.000 A 
ATOM      8  N   UNL     1      -1.603  10.438  17.740  0.00  0.00    +0.000 NA
ATOM      9  N   UNL     1      -2.327  11.234  18.570  0.00  0.00    +0.000 N 
ATOM     10  C   UNL     1      -1.917  12.002  19.702  0.00  0.00    +0.000 A 
ENDROOT
BRANCH  10  11
ATOM     11  N   UNL     1      -0.556  11.924  20.125  0.00  0.00    +0.000 N 
ATOM     12  C   UNL     1       0.456  12.832  19.568  0.00  0.00    +0.000 C 
ATOM     13  C   UNL     1       1.728  12.116  19.105  0.00  0.00    +0.000 C 
ATOM     14  C   UNL     1       1.480  10.889  18.231  0.00  0.00    +0.000 C 
ATOM     15  C   UNL     1       1.448   9.521  18.931  0.00  0.00    +0.000 C 
ATOM     16  C   UNL     1       0.526   9.256  20.129  0.00  0.00    +0.000 C 
ATOM     17  C   UNL     1       0.748  10.156  21.339  0.00  0.00    +0.000 C 
ATOM     18  C   UNL     1      -0.224  11.334  21.434  0.00  0.00    +0.000 C 
ENDBRANCH  10  11
BRANCH   1  22
ATOM     19  C   UNL     1      -2.252  15.251  23.716  0.00  0.00    +0.000 A 
ATOM     20  C   UNL     1      -1.987  15.731  22.425  0.00  0.00    +0.000 A 
ATOM     21  C   UNL     1      -2.169  14.900  21.314  0.00  0.00    +0.000 A 
ATOM     22  C   UNL     1      -2.623  13.588  21.488  0.00  0.00    +0.000 A 
ATOM     23  C   UNL     1      -2.887  13.127  22.783  0.00  0.00    +0.000 A 
ATOM     24  F   UNL     1      -3.348  11.881  22.969  0.00  0.00    +0.000 F 
ATOM     25  C   UNL     1      -2.704  13.943  23.893  0.00  0.00    +0.000 A 
BRANCH  19  27
ATOM     26  N   UNL     1      -1.916  16.798  25.769  0.00  0.00    +0.000 NA
ATOM     27  C   UNL     1      -2.067  16.106  24.849  0.00  0.00    +0.000 C 
ENDBRANCH  19  27
ENDBRANCH   1  22
TORSDOF 3
ENDMDL
