MODEL 1
REMARK VINA RESULT:      -5.9      0.000      0.000
REMARK  Name = 
REMARK  4 active torsions:
REMARK  status: ('A' for Active; 'I' for Inactive)
REMARK    1  A    between atoms: C_1  and  N_2
REMARK    2  A    between atoms: N_2  and  C_3
REMARK    3  A    between atoms: C_3  and  C_4
REMARK    4  A    between atoms: C_5  and  C_6
REMARK                            x       y       z     vdW  Elec       q    Type
REMARK                         _______ _______ _______ _____ _____    ______ ____
ROOT
ATOM      1  C   UNL     1       4.959   4.014  17.055  0.00  0.00    +0.000 C 
ATOM      2  C   UNL     1       3.932   4.817  17.381  0.00  0.00    +0.000 C 
ENDROOT
BRANCH   2   3
ATOM      3  C   UNL     1       2.883   4.376  18.295  0.00  0.00    +0.000 A 
ATOM      4  C   UNL     1       1.967   3.391  17.931  0.00  0.00    +0.000 A 
ATOM      5  C   UNL     1       0.994   2.988  18.845  0.00  0.00    +0.000 A 
ATOM      6  C   UNL     1       0.977   3.588  20.096  0.00  0.00    +0.000 A 
ATOM      7  N   UNL     1       1.849   4.543  20.484  0.00  0.00    +0.000 NA
ATOM      8  C   UNL     1       2.781   4.913  19.576  0.00  0.00    +0.000 A 
ENDBRANCH   2   3
BRANCH   1   9
ATOM      9  C   UNL     1       6.118   4.378  16.220  0.00  0.00    +0.000 C 
ATOM     10  C   UNL     1       5.932   5.340  15.074  0.00  0.00    +0.000 C 
ATOM     11  C   UNL     1       6.074   3.875  14.793  0.00  0.00    +0.000 C 
BRANCH   9  13
ATOM     12  C   UNL     1       7.524   5.233  18.042  0.00  0.00    +0.000 C 
ATOM     13  N   UNL     1       7.425   4.340  16.895  0.00  0.00    +0.000 NA
ATOM     14  H   UNL     1       7.645   3.390  17.187  0.00  0.00    +0.000 HD
ENDBRANCH   9  13
ENDBRANCH   1   9
TORSDOF 3
ENDMDL
MODEL 2
REMARK VINA RESULT:      -5.8      0.971      1.374
REMARK  Name = 
REMARK  4 active torsions:
REMARK  status: ('A' for Active; 'I' for Inactive)
REMARK    1  A    between atoms: C_1  and  N_2
REMARK    2  A    between atoms: N_2  and  C_3
REMARK    3  A    between atoms: C_3  and  C_4
REMARK    4  A    between atoms: C_5  and  C_6
REMARK                            x       y       z     vdW  Elec       q    Type
REMARK                         _______ _______ _______ _____ _____    ______ ____
ROOT
ATOM      1  C   UNL     1       4.885   3.829  17.000  0.00  0.00    +0.000 C 
ATOM      2  C   UNL     1       3.773   4.519  17.304  0.00  0.00    +0.000 C 
ENDROOT
BRANCH   2   3
ATOM      3  C   UNL     1       2.744   3.957  18.172  0.00  0.00    +0.000 A 
ATOM      4  C   UNL     1       2.169   4.704  19.199  0.00  0.00    +0.000 A 
ATOM      5  C   UNL     1       1.175   4.131  19.990  0.00  0.00    +0.000 A 
ATOM      6  C   UNL     1       0.789   2.826  19.721  0.00  0.00    +0.000 A 
ATOM      7  N   UNL     1       1.321   2.073  18.735  0.00  0.00    +0.000 NA
ATOM      8  C   UNL     1       2.284   2.656  17.984  0.00  0.00    +0.000 A 
ENDBRANCH   2   3
BRANCH   1   9
ATOM      9  C   UNL     1       6.030   4.324  16.213  0.00  0.00    +0.000 C 
ATOM     10  C   UNL     1       5.801   5.372  15.154  0.00  0.00    +0.000 C 
ATOM     11  C   UNL     1       6.022   3.946  14.747  0.00  0.00    +0.000 C 
BRANCH   9  13
ATOM     12  C   UNL     1       7.406   5.163  18.065  0.00  0.00    +0.000 C 
ATOM     13  N   UNL     1       7.332   4.294  16.897  0.00  0.00    +0.000 NA
ATOM     14  H   UNL     1       7.568   3.342  17.169  0.00  0.00    +0.000 HD
ENDBRANCH   9  13
ENDBRANCH   1   9
TORSDOF 3
ENDMDL
MODEL 3
REMARK VINA RESULT:      -5.8      1.564      2.465
REMARK  Name = 
REMARK  4 active torsions:
REMARK  status: ('A' for Active; 'I' for Inactive)
REMARK    1  A    between atoms: C_1  and  N_2
REMARK    2  A    between atoms: N_2  and  C_3
REMARK    3  A    between atoms: C_3  and  C_4
REMARK    4  A    between atoms: C_5  and  C_6
REMARK                            x       y       z     vdW  Elec       q    Type
REMARK                         _______ _______ _______ _____ _____    ______ ____
ROOT
ATOM      1  C   UNL     1       5.507   5.289  17.197  0.00  0.00    +0.000 C 
ATOM      2  C   UNL     1       5.142   4.544  18.254  0.00  0.00    +0.000 C 
ENDROOT
BRANCH   2   3
ATOM      3  C   UNL     1       3.826   3.917  18.324  0.00  0.00    +0.000 A 
ATOM      4  C   UNL     1       2.678   4.584  17.902  0.00  0.00    +0.000 A 
ATOM      5  C   UNL     1       1.445   3.937  17.969  0.00  0.00    +0.000 A 
ATOM      6  C   UNL     1       1.408   2.639  18.456  0.00  0.00    +0.000 A 
ATOM      7  N   UNL     1       2.499   1.961  18.871  0.00  0.00    +0.000 NA
ATOM      8  C   UNL     1       3.681   2.614  18.794  0.00  0.00    +0.000 A 
ENDBRANCH   2   3
BRANCH   1   9
ATOM      9  C   UNL     1       6.833   5.894  16.973  0.00  0.00    +0.000 C 
ATOM     10  C   UNL     1       7.669   6.302  18.159  0.00  0.00    +0.000 C 
ATOM     11  C   UNL     1       6.956   7.352  17.362  0.00  0.00    +0.000 C 
BRANCH   9  13
ATOM     12  C   UNL     1       6.770   4.522  14.939  0.00  0.00    +0.000 C 
ATOM     13  N   UNL     1       7.522   5.477  15.743  0.00  0.00    +0.000 NA
ATOM     14  H   UNL     1       7.753   6.290  15.173  0.00  0.00    +0.000 HD
ENDBRANCH   9  13
ENDBRANCH   1   9
TORSDOF 3
ENDMDL
MODEL 4
REMARK VINA RESULT:      -5.7      1.303      5.585
REMARK  Name = 
REMARK  4 active torsions:
REMARK  status: ('A' for Active; 'I' for Inactive)
REMARK    1  A    between atoms: C_1  and  N_2
REMARK    2  A    between atoms: N_2  and  C_3
REMARK    3  A    between atoms: C_3  and  C_4
REMARK    4  A    between atoms: C_5  and  C_6
REMARK                            x       y       z     vdW  Elec       q    Type
REMARK                         _______ _______ _______ _____ _____    ______ ____
ROOT
ATOM      1  C   UNL     1       3.198   4.790  19.165  0.00  0.00    +0.000 C 
ATOM      2  C   UNL     1       4.539   4.708  19.192  0.00  0.00    +0.000 C 
ENDROOT
BRANCH   2   3
ATOM      3  C   UNL     1       5.322   4.642  17.962  0.00  0.00    +0.000 A 
ATOM      4  C   UNL     1       4.710   4.586  16.712  0.00  0.00    +0.000 A 
ATOM      5  C   UNL     1       5.499   4.544  15.564  0.00  0.00    +0.000 A 
ATOM      6  C   UNL     1       6.878   4.562  15.711  0.00  0.00    +0.000 A 
ATOM      7  N   UNL     1       7.506   4.618  16.905  0.00  0.00    +0.000 NA
ATOM      8  C   UNL     1       6.713   4.659  18.001  0.00  0.00    +0.000 A 
ENDBRANCH   2   3
BRANCH   1   9
ATOM      9  C   UNL     1       2.311   4.953  20.331  0.00  0.00    +0.000 C 
ATOM     10  C   UNL     1       2.202   3.838  21.340  0.00  0.00    +0.000 C 
ATOM     11  C   UNL     1       1.094   4.051  20.353  0.00  0.00    +0.000 C 
BRANCH   9  13
ATOM     12  C   UNL     1       2.199   7.331  19.733  0.00  0.00    +0.000 C 
ATOM     13  N   UNL     1       2.117   6.336  20.794  0.00  0.00    +0.000 NA
ATOM     14  H   UNL     1       1.224   6.427  21.274  0.00  0.00    +0.000 HD
ENDBRANCH   9  13
ENDBRANCH   1   9
TORSDOF 3
ENDMDL
MODEL 5
REMARK VINA RESULT:      -5.7      1.386      2.575
REMARK  Name = 
REMARK  4 active torsions:
REMARK  status: ('A' for Active; 'I' for Inactive)
REMARK    1  A    between atoms: C_1  and  N_2
REMARK    2  A    between atoms: N_2  and  C_3
REMARK    3  A    between atoms: C_3  and  C_4
REMARK    4  A    between atoms: C_5  and  C_6
REMARK                            x       y       z     vdW  Elec       q    Type
REMARK                         _______ _______ _______ _____ _____    ______ ____
ROOT
ATOM      1  C   UNL     1       5.663   5.051  18.105  0.00  0.00    +0.000 C 
ATOM      2  C   UNL     1       5.120   4.185  18.977  0.00  0.00    +0.000 C 
ENDROOT
BRANCH   2   3
ATOM      3  C   UNL     1       3.686   3.917  18.989  0.00  0.00    +0.000 A 
ATOM      4  C   UNL     1       2.916   4.127  20.132  0.00  0.00    +0.000 A 
ATOM      5  C   UNL     1       1.545   3.876  20.090  0.00  0.00    +0.000 A 
ATOM      6  C   UNL     1       0.994   3.424  18.901  0.00  0.00    +0.000 A 
ATOM      7  N   UNL     1       1.708   3.211  17.775  0.00  0.00    +0.000 NA
ATOM      8  C   UNL     1       3.035   3.464  17.845  0.00  0.00    +0.000 A 
ENDBRANCH   2   3
BRANCH   1   9
ATOM      9  C   UNL     1       7.101   5.333  17.937  0.00  0.00    +0.000 C 
ATOM     10  C   UNL     1       7.902   5.818  19.118  0.00  0.00    +0.000 C 
ATOM     11  C   UNL     1       7.494   6.791  18.052  0.00  0.00    +0.000 C 
BRANCH   9  13
ATOM     12  C   UNL     1       6.998   4.335  15.696  0.00  0.00    +0.000 C 
ATOM     13  N   UNL     1       7.787   4.542  16.904  0.00  0.00    +0.000 NA
ATOM     14  H   UNL     1       8.675   4.976  16.657  0.00  0.00    +0.000 HD
ENDBRANCH   9  13
ENDBRANCH   1   9
TORSDOF 3
ENDMDL
MODEL 6
REMARK VINA RESULT:      -5.7      2.148      5.548
REMARK  Name = 
REMARK  4 active torsions:
REMARK  status: ('A' for Active; 'I' for Inactive)
REMARK    1  A    between atoms: C_1  and  N_2
REMARK    2  A    between atoms: N_2  and  C_3
REMARK    3  A    between atoms: C_3  and  C_4
REMARK    4  A    between atoms: C_5  and  C_6
REMARK                            x       y       z     vdW  Elec       q    Type
REMARK                         _______ _______ _______ _____ _____    ______ ____
ROOT
ATOM      1  C   UNL     1       3.600   3.929  19.400  0.00  0.00    +0.000 C 
ATOM      2  C   UNL     1       3.717   4.985  18.577  0.00  0.00    +0.000 C 
ENDROOT
BRANCH   2   3
ATOM      3  C   UNL     1       5.012   5.600  18.308  0.00  0.00    +0.000 A 
ATOM      4  C   UNL     1       6.133   5.305  19.083  0.00  0.00    +0.000 A 
ATOM      5  C   UNL     1       7.354   5.903  18.776  0.00  0.00    +0.000 A 
ATOM      6  C   UNL     1       7.409   6.775  17.699  0.00  0.00    +0.000 A 
ATOM      7  N   UNL     1       6.346   7.083  16.926  0.00  0.00    +0.000 NA
ATOM      8  C   UNL     1       5.174   6.487  17.248  0.00  0.00    +0.000 A 
ENDBRANCH   2   3
BRANCH   1   9
ATOM      9  C   UNL     1       2.366   3.170  19.676  0.00  0.00    +0.000 C 
ATOM     10  C   UNL     1       1.110   3.914  20.051  0.00  0.00    +0.000 C 
ATOM     11  C   UNL     1       1.891   3.202  21.113  0.00  0.00    +0.000 C 
BRANCH   9  13
ATOM     12  C   UNL     1       3.482   1.402  18.390  0.00  0.00    +0.000 C 
ATOM     13  N   UNL     1       2.235   1.890  18.964  0.00  0.00    +0.000 NA
ATOM     14  H   UNL     1       1.847   1.179  19.581  0.00  0.00    +0.000 HD
ENDBRANCH   9  13
ENDBRANCH   1   9
TORSDOF 3
ENDMDL
MODEL 7
REMARK VINA RESULT:      -5.6      1.548      5.613
REMARK  Name = 
REMARK  4 active torsions:
REMARK  status: ('A' for Active; 'I' for Inactive)
REMARK    1  A    between atoms: C_1  and  N_2
REMARK    2  A    between atoms: N_2  and  C_3
REMARK    3  A    between atoms: C_3  and  C_4
REMARK    4  A    between atoms: C_5  and  C_6
REMARK                            x       y       z     vdW  Elec       q    Type
REMARK                         _______ _______ _______ _____ _____    ______ ____
ROOT
ATOM      1  C   UNL     1       3.898   3.752  17.081  0.00  0.00    +0.000 C 
ATOM      2  C   UNL     1       5.189   4.123  17.090  0.00  0.00    +0.000 C 
ENDROOT
BRANCH   2   3
ATOM      3  C   UNL     1       5.923   4.353  15.850  0.00  0.00    +0.000 A 
ATOM      4  C   UNL     1       5.566   3.714  14.663  0.00  0.00    +0.000 A 
ATOM      5  C   UNL     1       6.285   3.980  13.499  0.00  0.00    +0.000 A 
ATOM      6  C   UNL     1       7.336   4.882  13.565  0.00  0.00    +0.000 A 
ATOM      7  N   UNL     1       7.709   5.521  14.694  0.00  0.00    +0.000 NA
ATOM      8  C   UNL     1       6.993   5.242  15.808  0.00  0.00    +0.000 A 
ENDBRANCH   2   3
BRANCH   1   9
ATOM      9  C   UNL     1       3.032   3.580  18.262  0.00  0.00    +0.000 C 
ATOM     10  C   UNL     1       1.794   2.727  18.154  0.00  0.00    +0.000 C 
ATOM     11  C   UNL     1       1.664   4.220  18.163  0.00  0.00    +0.000 C 
BRANCH   9  13
ATOM     12  C   UNL     1       4.113   2.376  20.108  0.00  0.00    +0.000 C 
ATOM     13  N   UNL     1       3.710   3.667  19.565  0.00  0.00    +0.000 NA
ATOM     14  H   UNL     1       4.524   4.275  19.502  0.00  0.00    +0.000 HD
ENDBRANCH   9  13
ENDBRANCH   1   9
TORSDOF 3
ENDMDL
MODEL 8
REMARK VINA RESULT:      -5.6      2.112      5.931
REMARK  Name = 
REMARK  4 active torsions:
REMARK  status: ('A' for Active; 'I' for Inactive)
REMARK    1  A    between atoms: C_1  and  N_2
REMARK    2  A    between atoms: N_2  and  C_3
REMARK    3  A    between atoms: C_3  and  C_4
REMARK    4  A    between atoms: C_5  and  C_6
REMARK                            x       y       z     vdW  Elec       q    Type
REMARK                         _______ _______ _______ _____ _____    ______ ____
ROOT
ATOM      1  C   UNL     1       5.161   4.488  16.927  0.00  0.00    +0.000 C 
ATOM      2  C   UNL     1       5.156   3.817  15.764  0.00  0.00    +0.000 C 
ENDROOT
BRANCH   2   3
ATOM      3  C   UNL     1       6.043   4.190  14.667  0.00  0.00    +0.000 A 
ATOM      4  C   UNL     1       5.878   3.665  13.386  0.00  0.00    +0.000 A 
ATOM      5  C   UNL     1       6.738   4.067  12.365  0.00  0.00    +0.000 A 
ATOM      6  C   UNL     1       7.733   4.986  12.664  0.00  0.00    +0.000 A 
ATOM      7  N   UNL     1       7.921   5.517  13.891  0.00  0.00    +0.000 NA
ATOM      8  C   UNL     1       7.072   5.108  14.862  0.00  0.00    +0.000 A 
ENDBRANCH   2   3
BRANCH   1   9
ATOM      9  C   UNL     1       4.381   4.150  18.132  0.00  0.00    +0.000 C 
ATOM     10  C   UNL     1       3.056   4.826  18.370  0.00  0.00    +0.000 C 
ATOM     11  C   UNL     1       4.256   5.258  19.157  0.00  0.00    +0.000 C 
BRANCH   9  13
ATOM     12  C   UNL     1       3.472   1.880  18.355  0.00  0.00    +0.000 C 
ATOM     13  N   UNL     1       4.574   2.787  18.652  0.00  0.00    +0.000 NA
ATOM     14  H   UNL     1       5.442   2.391  18.296  0.00  0.00    +0.000 HD
ENDBRANCH   9  13
ENDBRANCH   1   9
TORSDOF 3
ENDMDL
MODEL 9
REMARK VINA RESULT:      -5.5      2.135      5.499
REMARK  Name = 
REMARK  4 active torsions:
REMARK  status: ('A' for Active; 'I' for Inactive)
REMARK    1  A    between atoms: C_1  and  N_2
REMARK    2  A    between atoms: N_2  and  C_3
REMARK    3  A    between atoms: C_3  and  C_4
REMARK    4  A    between atoms: C_5  and  C_6
REMARK                            x       y       z     vdW  Elec       q    Type
REMARK                         _______ _______ _______ _____ _____    ______ ____
ROOT
ATOM      1  C   UNL     1       3.520   3.900  19.515  0.00  0.00    +0.000 C 
ATOM      2  C   UNL     1       3.697   4.861  18.593  0.00  0.00    +0.000 C 
ENDROOT
BRANCH   2   3
ATOM      3  C   UNL     1       4.998   5.490  18.390  0.00  0.00    +0.000 A 
ATOM      4  C   UNL     1       5.213   6.402  17.358  0.00  0.00    +0.000 A 
ATOM      5  C   UNL     1       6.468   6.992  17.217  0.00  0.00    +0.000 A 
ATOM      6  C   UNL     1       7.464   6.649  18.119  0.00  0.00    +0.000 A 
ATOM      7  N   UNL     1       7.291   5.772  19.131  0.00  0.00    +0.000 NA
ATOM      8  C   UNL     1       6.063   5.216  19.244  0.00  0.00    +0.000 A 
ENDBRANCH   2   3
BRANCH   1   9
ATOM      9  C   UNL     1       2.283   3.131  19.746  0.00  0.00    +0.000 C 
ATOM     10  C   UNL     1       1.015   3.862  20.109  0.00  0.00    +0.000 C 
ATOM     11  C   UNL     1       1.776   3.130  21.173  0.00  0.00    +0.000 C 
BRANCH   9  13
ATOM     12  C   UNL     1       3.426   1.417  18.412  0.00  0.00    +0.000 C 
ATOM     13  N   UNL     1       2.173   1.866  19.004  0.00  0.00    +0.000 NA
ATOM     14  H   UNL     1       1.803   1.133  19.607  0.00  0.00    +0.000 HD
ENDBRANCH   9  13
ENDBRANCH   1   9
TORSDOF 3
ENDMDL
