MODEL 1
REMARK VINA RESULT:      -6.9      0.000      0.000
REMARK  Name = 
REMARK  9 active torsions:
REMARK  status: ('A' for Active; 'I' for Inactive)
REMARK    1  A    between atoms: C_1  and  O_2
REMARK    2  A    between atoms: O_2  and  C_3
REMARK    3  A    between atoms: C_3  and  C_5
REMARK    4  A    between atoms: C_9  and  C_10
REMARK    5  A    between atoms: C_10  and  O_11
REMARK    6  A    between atoms: O_11  and  C_12
REMARK    7  A    between atoms: C_12  and  C_14
REMARK    8  A    between atoms: C_14  and  N_15
REMARK    9  A    between atoms: C_16  and  C_18
REMARK                            x       y       z     vdW  Elec       q    Type
REMARK                         _______ _______ _______ _____ _____    ______ ____
ROOT
ATOM      1  O   UNL     1       2.968   3.602  20.617  0.00  0.00    +0.000 OA
ENDROOT
BRANCH   1   2
ATOM      2  C   UNL     1       2.761   2.552  19.777  0.00  0.00    +0.000 C 
ATOM      3  O   UNL     1       1.687   1.992  19.587  0.00  0.00    +0.000 OA
BRANCH   2   4
ATOM      4  C   UNL     1       4.078   2.078  19.190  0.00  0.00    +0.000 C 
BRANCH   4   5
ATOM      5  N   UNL     1       5.034   3.161  19.130  0.00  0.00    +0.000 N 
ATOM      6  C   UNL     1       5.195   3.921  17.989  0.00  0.00    +0.000 C 
ATOM      7  O   UNL     1       4.561   3.697  16.958  0.00  0.00    +0.000 OA
ATOM      8  H   UNL     1       5.478   3.495  19.979  0.00  0.00    +0.000 HD
BRANCH   6   9
ATOM      9  C   UNL     1       6.167   4.983  18.116  0.00  0.00    +0.000 A 
ATOM     10  C   UNL     1       6.428   6.077  17.313  0.00  0.00    +0.000 A 
ATOM     11  C   UNL     1       7.517   6.764  17.900  0.00  0.00    +0.000 A 
ATOM     12  C   UNL     1       7.853   6.055  19.028  0.00  0.00    +0.000 A 
ATOM     13  O   UNL     1       7.039   4.977  19.175  0.00  0.00    +0.000 OA
ENDBRANCH   6   9
ENDBRANCH   4   5
ENDBRANCH   2   4
ENDBRANCH   1   2
BRANCH   1  14
ATOM     14  C   UNL     1       1.801   4.355  20.956  0.00  0.00    +0.000 C 
BRANCH  14  19
ATOM     15  C   UNL     1       1.447   8.123  20.468  0.00  0.00    +0.000 A 
ATOM     16  C   UNL     1       2.030   8.285  19.203  0.00  0.00    +0.000 A 
ATOM     17  C   UNL     1       2.539   7.182  18.518  0.00  0.00    +0.000 A 
ATOM     18  C   UNL     1       2.464   5.912  19.089  0.00  0.00    +0.000 A 
ATOM     19  C   UNL     1       1.883   5.731  20.349  0.00  0.00    +0.000 A 
ATOM     20  C   UNL     1       1.385   6.846  21.042  0.00  0.00    +0.000 A 
BRANCH  15  21
ATOM     21  C   UNL     1       0.898   9.330  21.143  0.00  0.00    +0.000 C 
ATOM     22  O   UNL     1       0.920  10.445  20.651  0.00  0.00    +0.000 OA
BRANCH  21  24
ATOM     23  C   UNL     1      -0.451  10.031  22.916  0.00  0.00    +0.000 C 
ATOM     24  O   UNL     1       0.358   9.003  22.344  0.00  0.00    +0.000 OA
ENDBRANCH  21  24
ENDBRANCH  15  21
ENDBRANCH  14  19
ENDBRANCH   1  14
TORSDOF 8
ENDMDL
MODEL 2
REMARK VINA RESULT:      -6.9      1.105      1.386
REMARK  Name = 
REMARK  9 active torsions:
REMARK  status: ('A' for Active; 'I' for Inactive)
REMARK    1  A    between atoms: C_1  and  O_2
REMARK    2  A    between atoms: O_2  and  C_3
REMARK    3  A    between atoms: C_3  and  C_5
REMARK    4  A    between atoms: C_9  and  C_10
REMARK    5  A    between atoms: C_10  and  O_11
REMARK    6  A    between atoms: O_11  and  C_12
REMARK    7  A    between atoms: C_12  and  C_14
REMARK    8  A    between atoms: C_14  and  N_15
REMARK    9  A    between atoms: C_16  and  C_18
REMARK                            x       y       z     vdW  Elec       q    Type
REMARK                         _______ _______ _______ _____ _____    ______ ____
ROOT
ATOM      1  O   UNL     1       2.448   3.823  20.214  0.00  0.00    +0.000 OA
ENDROOT
BRANCH   1   2
ATOM      2  C   UNL     1       3.106   2.761  20.754  0.00  0.00    +0.000 C 
ATOM      3  O   UNL     1       2.959   2.336  21.894  0.00  0.00    +0.000 OA
BRANCH   2   4
ATOM      4  C   UNL     1       4.151   2.240  19.784  0.00  0.00    +0.000 C 
BRANCH   4   5
ATOM      5  N   UNL     1       5.126   3.263  19.479  0.00  0.00    +0.000 N 
ATOM      6  C   UNL     1       5.113   3.938  18.276  0.00  0.00    +0.000 C 
ATOM      7  O   UNL     1       4.296   3.682  17.390  0.00  0.00    +0.000 OA
ATOM      8  H   UNL     1       5.727   3.626  20.211  0.00  0.00    +0.000 HD
BRANCH   6   9
ATOM      9  C   UNL     1       6.136   4.951  18.153  0.00  0.00    +0.000 A 
ATOM     10  C   UNL     1       6.928   5.563  19.107  0.00  0.00    +0.000 A 
ATOM     11  C   UNL     1       7.731   6.507  18.425  0.00  0.00    +0.000 A 
ATOM     12  C   UNL     1       7.389   6.413  17.097  0.00  0.00    +0.000 A 
ATOM     13  O   UNL     1       6.429   5.469  16.917  0.00  0.00    +0.000 OA
ENDBRANCH   6   9
ENDBRANCH   4   5
ENDBRANCH   2   4
ENDBRANCH   1   2
BRANCH   1  14
ATOM     14  C   UNL     1       2.249   4.932  21.094  0.00  0.00    +0.000 C 
BRANCH  14  19
ATOM     15  C   UNL     1       1.370   8.508  20.094  0.00  0.00    +0.000 A 
ATOM     16  C   UNL     1       1.908   8.563  18.800  0.00  0.00    +0.000 A 
ATOM     17  C   UNL     1       2.556   7.453  18.260  0.00  0.00    +0.000 A 
ATOM     18  C   UNL     1       2.666   6.279  19.006  0.00  0.00    +0.000 A 
ATOM     19  C   UNL     1       2.132   6.204  20.298  0.00  0.00    +0.000 A 
ATOM     20  C   UNL     1       1.493   7.330  20.843  0.00  0.00    +0.000 A 
BRANCH  15  21
ATOM     21  C   UNL     1       0.668   9.714  20.610  0.00  0.00    +0.000 C 
ATOM     22  O   UNL     1       1.050  10.352  21.576  0.00  0.00    +0.000 OA
BRANCH  21  24
ATOM     23  C   UNL     1      -1.009  11.268  20.137  0.00  0.00    +0.000 C 
ATOM     24  O   UNL     1      -0.413  10.004  19.844  0.00  0.00    +0.000 OA
ENDBRANCH  21  24
ENDBRANCH  15  21
ENDBRANCH  14  19
ENDBRANCH   1  14
TORSDOF 8
ENDMDL
MODEL 3
REMARK VINA RESULT:      -6.8      3.384      5.597
REMARK  Name = 
REMARK  9 active torsions:
REMARK  status: ('A' for Active; 'I' for Inactive)
REMARK    1  A    between atoms: C_1  and  O_2
REMARK    2  A    between atoms: O_2  and  C_3
REMARK    3  A    between atoms: C_3  and  C_5
REMARK    4  A    between atoms: C_9  and  C_10
REMARK    5  A    between atoms: C_10  and  O_11
REMARK    6  A    between atoms: O_11  and  C_12
REMARK    7  A    between atoms: C_12  and  C_14
REMARK    8  A    between atoms: C_14  and  N_15
REMARK    9  A    between atoms: C_16  and  C_18
REMARK                            x       y       z     vdW  Elec       q    Type
REMARK                         _______ _______ _______ _____ _____    ______ ____
ROOT
ATOM      1  O   UNL     1       5.172   4.428  17.195  0.00  0.00    +0.000 OA
ENDROOT
BRANCH   1   2
ATOM      2  C   UNL     1       6.493   4.527  17.502  0.00  0.00    +0.000 C 
ATOM      3  O   UNL     1       6.957   4.635  18.631  0.00  0.00    +0.000 OA
BRANCH   2   4
ATOM      4  C   UNL     1       7.325   4.610  16.235  0.00  0.00    +0.000 C 
BRANCH   4   5
ATOM      5  N   UNL     1       6.627   4.007  15.121  0.00  0.00    +0.000 N 
ATOM      6  C   UNL     1       6.819   4.445  13.827  0.00  0.00    +0.000 C 
ATOM      7  O   UNL     1       7.563   5.388  13.557  0.00  0.00    +0.000 OA
ATOM      8  H   UNL     1       6.120   3.138  15.249  0.00  0.00    +0.000 HD
BRANCH   6   9
ATOM      9  C   UNL     1       6.070   3.707  12.834  0.00  0.00    +0.000 A 
ATOM     10  C   UNL     1       4.757   3.823  12.416  0.00  0.00    +0.000 A 
ATOM     11  C   UNL     1       4.549   2.817  11.444  0.00  0.00    +0.000 A 
ATOM     12  C   UNL     1       5.744   2.151  11.320  0.00  0.00    +0.000 A 
ATOM     13  O   UNL     1       6.677   2.685  12.151  0.00  0.00    +0.000 OA
ENDBRANCH   6   9
ENDBRANCH   4   5
ENDBRANCH   2   4
ENDBRANCH   1   2
BRANCH   1  14
ATOM     14  C   UNL     1       4.434   5.651  17.260  0.00  0.00    +0.000 C 
BRANCH  14  19
ATOM     15  C   UNL     1       2.369   4.403  20.217  0.00  0.00    +0.000 A 
ATOM     16  C   UNL     1       1.775   5.596  20.650  0.00  0.00    +0.000 A 
ATOM     17  C   UNL     1       2.047   6.796  19.993  0.00  0.00    +0.000 A 
ATOM     18  C   UNL     1       2.909   6.811  18.897  0.00  0.00    +0.000 A 
ATOM     19  C   UNL     1       3.509   5.629  18.448  0.00  0.00    +0.000 A 
ATOM     20  C   UNL     1       3.244   4.426  19.122  0.00  0.00    +0.000 A 
BRANCH  15  21
ATOM     21  C   UNL     1       2.025   3.149  20.939  0.00  0.00    +0.000 C 
ATOM     22  O   UNL     1       1.948   3.070  22.153  0.00  0.00    +0.000 OA
BRANCH  21  24
ATOM     23  C   UNL     1       0.661   2.367  19.212  0.00  0.00    +0.000 C 
ATOM     24  O   UNL     1       1.786   2.141  20.062  0.00  0.00    +0.000 OA
ENDBRANCH  21  24
ENDBRANCH  15  21
ENDBRANCH  14  19
ENDBRANCH   1  14
TORSDOF 8
ENDMDL
MODEL 4
REMARK VINA RESULT:      -6.8      3.997      8.364
REMARK  Name = 
REMARK  9 active torsions:
REMARK  status: ('A' for Active; 'I' for Inactive)
REMARK    1  A    between atoms: C_1  and  O_2
REMARK    2  A    between atoms: O_2  and  C_3
REMARK    3  A    between atoms: C_3  and  C_5
REMARK    4  A    between atoms: C_9  and  C_10
REMARK    5  A    between atoms: C_10  and  O_11
REMARK    6  A    between atoms: O_11  and  C_12
REMARK    7  A    between atoms: C_12  and  C_14
REMARK    8  A    between atoms: C_14  and  N_15
REMARK    9  A    between atoms: C_16  and  C_18
REMARK                            x       y       z     vdW  Elec       q    Type
REMARK                         _______ _______ _______ _____ _____    ______ ____
ROOT
ATOM      1  O   UNL     1       4.883   5.602  16.123  0.00  0.00    +0.000 OA
ENDROOT
BRANCH   1   2
ATOM      2  C   UNL     1       5.128   6.755  16.802  0.00  0.00    +0.000 C 
ATOM      3  O   UNL     1       6.210   7.326  16.872  0.00  0.00    +0.000 OA
BRANCH   2   4
ATOM      4  C   UNL     1       3.895   7.184  17.576  0.00  0.00    +0.000 C 
BRANCH   4   5
ATOM      5  N   UNL     1       3.066   6.043  17.897  0.00  0.00    +0.000 N 
ATOM      6  C   UNL     1       3.329   5.243  18.990  0.00  0.00    +0.000 C 
ATOM      7  O   UNL     1       4.297   5.437  19.726  0.00  0.00    +0.000 OA
ATOM      8  H   UNL     1       2.176   5.914  17.428  0.00  0.00    +0.000 HD
BRANCH   6   9
ATOM      9  C   UNL     1       2.380   4.170  19.181  0.00  0.00    +0.000 A 
ATOM     10  C   UNL     1       1.449   3.616  18.322  0.00  0.00    +0.000 A 
ATOM     11  C   UNL     1       0.765   2.617  19.052  0.00  0.00    +0.000 A 
ATOM     12  C   UNL     1       1.319   2.613  20.309  0.00  0.00    +0.000 A 
ATOM     13  O   UNL     1       2.304   3.544  20.400  0.00  0.00    +0.000 OA
ENDBRANCH   6   9
ENDBRANCH   4   5
ENDBRANCH   2   4
ENDBRANCH   1   2
BRANCH   1  14
ATOM     14  C   UNL     1       5.990   4.703  16.023  0.00  0.00    +0.000 C 
BRANCH  14  19
ATOM     15  C   UNL     1       5.981   3.394  12.438  0.00  0.00    +0.000 A 
ATOM     16  C   UNL     1       7.050   4.114  11.888  0.00  0.00    +0.000 A 
ATOM     17  C   UNL     1       7.763   5.022  12.671  0.00  0.00    +0.000 A 
ATOM     18  C   UNL     1       7.417   5.211  14.009  0.00  0.00    +0.000 A 
ATOM     19  C   UNL     1       6.355   4.498  14.577  0.00  0.00    +0.000 A 
ATOM     20  C   UNL     1       5.630   3.597  13.780  0.00  0.00    +0.000 A 
BRANCH  15  21
ATOM     21  C   UNL     1       5.270   2.422  11.564  0.00  0.00    +0.000 C 
ATOM     22  O   UNL     1       5.797   1.428  11.096  0.00  0.00    +0.000 OA
BRANCH  21  24
ATOM     23  C   UNL     1       3.774   3.776  10.389  0.00  0.00    +0.000 C 
ATOM     24  O   UNL     1       3.974   2.786  11.398  0.00  0.00    +0.000 OA
ENDBRANCH  21  24
ENDBRANCH  15  21
ENDBRANCH  14  19
ENDBRANCH   1  14
TORSDOF 8
ENDMDL
MODEL 5
REMARK VINA RESULT:      -6.7      2.644      3.423
REMARK  Name = 
REMARK  9 active torsions:
REMARK  status: ('A' for Active; 'I' for Inactive)
REMARK    1  A    between atoms: C_1  and  O_2
REMARK    2  A    between atoms: O_2  and  C_3
REMARK    3  A    between atoms: C_3  and  C_5
REMARK    4  A    between atoms: C_9  and  C_10
REMARK    5  A    between atoms: C_10  and  O_11
REMARK    6  A    between atoms: O_11  and  C_12
REMARK    7  A    between atoms: C_12  and  C_14
REMARK    8  A    between atoms: C_14  and  N_15
REMARK    9  A    between atoms: C_16  and  C_18
REMARK                            x       y       z     vdW  Elec       q    Type
REMARK                         _______ _______ _______ _____ _____    ______ ____
ROOT
ATOM      1  O   UNL     1       4.092   5.646  19.445  0.00  0.00    +0.000 OA
ENDROOT
BRANCH   1   2
ATOM      2  C   UNL     1       4.689   5.046  18.380  0.00  0.00    +0.000 C 
ATOM      3  O   UNL     1       4.496   3.894  18.010  0.00  0.00    +0.000 OA
BRANCH   2   4
ATOM      4  C   UNL     1       5.735   5.965  17.775  0.00  0.00    +0.000 C 
BRANCH   4   5
ATOM      5  N   UNL     1       5.916   5.683  16.368  0.00  0.00    +0.000 N 
ATOM      6  C   UNL     1       6.971   4.916  15.915  0.00  0.00    +0.000 C 
ATOM      7  O   UNL     1       7.827   4.464  16.677  0.00  0.00    +0.000 OA
ATOM      8  H   UNL     1       5.176   5.894  15.708  0.00  0.00    +0.000 HD
BRANCH   6   9
ATOM      9  C   UNL     1       6.979   4.705  14.486  0.00  0.00    +0.000 A 
ATOM     10  C   UNL     1       6.294   3.799  13.697  0.00  0.00    +0.000 A 
ATOM     11  C   UNL     1       6.716   4.018  12.364  0.00  0.00    +0.000 A 
ATOM     12  C   UNL     1       7.627   5.046  12.415  0.00  0.00    +0.000 A 
ATOM     13  O   UNL     1       7.790   5.477  13.693  0.00  0.00    +0.000 OA
ENDBRANCH   6   9
ENDBRANCH   4   5
ENDBRANCH   2   4
ENDBRANCH   1   2
BRANCH   1  14
ATOM     14  C   UNL     1       2.662   5.670  19.412  0.00  0.00    +0.000 C 
BRANCH  14  19
ATOM     15  C   UNL     1       1.186   9.067  20.327  0.00  0.00    +0.000 A 
ATOM     16  C   UNL     1       1.259   9.731  19.095  0.00  0.00    +0.000 A 
ATOM     17  C   UNL     1       1.789   9.084  17.978  0.00  0.00    +0.000 A 
ATOM     18  C   UNL     1       2.243   7.770  18.085  0.00  0.00    +0.000 A 
ATOM     19  C   UNL     1       2.175   7.090  19.306  0.00  0.00    +0.000 A 
ATOM     20  C   UNL     1       1.655   7.750  20.431  0.00  0.00    +0.000 A 
BRANCH  15  21
ATOM     21  C   UNL     1       0.589   9.796  21.479  0.00  0.00    +0.000 C 
ATOM     22  O   UNL     1       1.115   9.866  22.576  0.00  0.00    +0.000 OA
BRANCH  21  24
ATOM     23  C   UNL     1      -0.670  11.763  21.468  0.00  0.00    +0.000 C 
ATOM     24  O   UNL     1      -0.582  10.381  21.121  0.00  0.00    +0.000 OA
ENDBRANCH  21  24
ENDBRANCH  15  21
ENDBRANCH  14  19
ENDBRANCH   1  14
TORSDOF 8
ENDMDL
MODEL 6
REMARK VINA RESULT:      -6.7      1.506      1.945
REMARK  Name = 
REMARK  9 active torsions:
REMARK  status: ('A' for Active; 'I' for Inactive)
REMARK    1  A    between atoms: C_1  and  O_2
REMARK    2  A    between atoms: O_2  and  C_3
REMARK    3  A    between atoms: C_3  and  C_5
REMARK    4  A    between atoms: C_9  and  C_10
REMARK    5  A    between atoms: C_10  and  O_11
REMARK    6  A    between atoms: O_11  and  C_12
REMARK    7  A    between atoms: C_12  and  C_14
REMARK    8  A    between atoms: C_14  and  N_15
REMARK    9  A    between atoms: C_16  and  C_18
REMARK                            x       y       z     vdW  Elec       q    Type
REMARK                         _______ _______ _______ _____ _____    ______ ____
ROOT
ATOM      1  O   UNL     1       2.543   4.246  19.658  0.00  0.00    +0.000 OA
ENDROOT
BRANCH   1   2
ATOM      2  C   UNL     1       2.882   3.074  20.259  0.00  0.00    +0.000 C 
ATOM      3  O   UNL     1       2.184   2.451  21.051  0.00  0.00    +0.000 OA
BRANCH   2   4
ATOM      4  C   UNL     1       4.309   2.695  19.910  0.00  0.00    +0.000 C 
BRANCH   4   5
ATOM      5  N   UNL     1       4.657   3.164  18.586  0.00  0.00    +0.000 N 
ATOM      6  C   UNL     1       5.636   4.117  18.392  0.00  0.00    +0.000 C 
ATOM      7  O   UNL     1       6.237   4.640  19.331  0.00  0.00    +0.000 OA
ATOM      8  H   UNL     1       4.313   2.674  17.768  0.00  0.00    +0.000 HD
BRANCH   6   9
ATOM      9  C   UNL     1       5.879   4.442  17.005  0.00  0.00    +0.000 A 
ATOM     10  C   UNL     1       5.004   4.691  15.963  0.00  0.00    +0.000 A 
ATOM     11  C   UNL     1       5.794   4.920  14.813  0.00  0.00    +0.000 A 
ATOM     12  C   UNL     1       7.103   4.803  15.218  0.00  0.00    +0.000 A 
ATOM     13  O   UNL     1       7.169   4.521  16.545  0.00  0.00    +0.000 OA
ENDBRANCH   6   9
ENDBRANCH   4   5
ENDBRANCH   2   4
ENDBRANCH   1   2
BRANCH   1  14
ATOM     14  C   UNL     1       2.587   5.402  20.500  0.00  0.00    +0.000 C 
BRANCH  14  19
ATOM     15  C   UNL     1       1.388   8.839  19.354  0.00  0.00    +0.000 A 
ATOM     16  C   UNL     1       2.043   8.952  18.120  0.00  0.00    +0.000 A 
ATOM     17  C   UNL     1       2.871   7.926  17.667  0.00  0.00    +0.000 A 
ATOM     18  C   UNL     1       3.046   6.779  18.440  0.00  0.00    +0.000 A 
ATOM     19  C   UNL     1       2.398   6.646  19.673  0.00  0.00    +0.000 A 
ATOM     20  C   UNL     1       1.577   7.688  20.133  0.00  0.00    +0.000 A 
BRANCH  15  21
ATOM     21  C   UNL     1       0.498   9.953  19.778  0.00  0.00    +0.000 C 
ATOM     22  O   UNL     1      -0.529  10.254  19.193  0.00  0.00    +0.000 OA
BRANCH  21  24
ATOM     23  C   UNL     1       0.062  10.528  21.999  0.00  0.00    +0.000 C 
ATOM     24  O   UNL     1       0.975  10.547  20.901  0.00  0.00    +0.000 OA
ENDBRANCH  21  24
ENDBRANCH  15  21
ENDBRANCH  14  19
ENDBRANCH   1  14
TORSDOF 8
ENDMDL
MODEL 7
REMARK VINA RESULT:      -6.7      2.346      3.453
REMARK  Name = 
REMARK  9 active torsions:
REMARK  status: ('A' for Active; 'I' for Inactive)
REMARK    1  A    between atoms: C_1  and  O_2
REMARK    2  A    between atoms: O_2  and  C_3
REMARK    3  A    between atoms: C_3  and  C_5
REMARK    4  A    between atoms: C_9  and  C_10
REMARK    5  A    between atoms: C_10  and  O_11
REMARK    6  A    between atoms: O_11  and  C_12
REMARK    7  A    between atoms: C_12  and  C_14
REMARK    8  A    between atoms: C_14  and  N_15
REMARK    9  A    between atoms: C_16  and  C_18
REMARK                            x       y       z     vdW  Elec       q    Type
REMARK                         _______ _______ _______ _____ _____    ______ ____
ROOT
ATOM      1  O   UNL     1       3.646   2.474  18.480  0.00  0.00    +0.000 OA
ENDROOT
BRANCH   1   2
ATOM      2  C   UNL     1       4.554   2.664  19.474  0.00  0.00    +0.000 C 
ATOM      3  O   UNL     1       4.600   2.039  20.528  0.00  0.00    +0.000 OA
BRANCH   2   4
ATOM      4  C   UNL     1       5.443   3.853  19.157  0.00  0.00    +0.000 C 
BRANCH   4   5
ATOM      5  N   UNL     1       5.594   4.015  17.728  0.00  0.00    +0.000 N 
ATOM      6  C   UNL     1       6.815   4.323  17.161  0.00  0.00    +0.000 C 
ATOM      7  O   UNL     1       7.824   4.507  17.841  0.00  0.00    +0.000 OA
ATOM      8  H   UNL     1       4.848   3.733  17.102  0.00  0.00    +0.000 HD
BRANCH   6   9
ATOM      9  C   UNL     1       6.792   4.413  15.719  0.00  0.00    +0.000 A 
ATOM     10  C   UNL     1       6.004   3.773  14.780  0.00  0.00    +0.000 A 
ATOM     11  C   UNL     1       6.443   4.215  13.510  0.00  0.00    +0.000 A 
ATOM     12  C   UNL     1       7.466   5.102  13.746  0.00  0.00    +0.000 A 
ATOM     13  O   UNL     1       7.684   5.237  15.080  0.00  0.00    +0.000 OA
ENDBRANCH   6   9
ENDBRANCH   4   5
ENDBRANCH   2   4
ENDBRANCH   1   2
BRANCH   1  14
ATOM     14  C   UNL     1       2.283   2.722  18.839  0.00  0.00    +0.000 C 
BRANCH  14  19
ATOM     15  C   UNL     1       2.287   6.537  18.757  0.00  0.00    +0.000 A 
ATOM     16  C   UNL     1       1.814   6.832  20.042  0.00  0.00    +0.000 A 
ATOM     17  C   UNL     1       1.489   5.803  20.926  0.00  0.00    +0.000 A 
ATOM     18  C   UNL     1       1.641   4.474  20.533  0.00  0.00    +0.000 A 
ATOM     19  C   UNL     1       2.116   4.159  19.254  0.00  0.00    +0.000 A 
ATOM     20  C   UNL     1       2.427   5.199  18.363  0.00  0.00    +0.000 A 
BRANCH  15  21
ATOM     21  C   UNL     1       2.641   7.674  17.864  0.00  0.00    +0.000 C 
ATOM     22  O   UNL     1       3.723   7.786  17.314  0.00  0.00    +0.000 OA
BRANCH  21  24
ATOM     23  C   UNL     1       1.923   9.892  17.989  0.00  0.00    +0.000 C 
ATOM     24  O   UNL     1       1.593   8.527  17.736  0.00  0.00    +0.000 OA
ENDBRANCH  21  24
ENDBRANCH  15  21
ENDBRANCH  14  19
ENDBRANCH   1  14
TORSDOF 8
ENDMDL
MODEL 8
REMARK VINA RESULT:      -6.7      1.712      2.111
REMARK  Name = 
REMARK  9 active torsions:
REMARK  status: ('A' for Active; 'I' for Inactive)
REMARK    1  A    between atoms: C_1  and  O_2
REMARK    2  A    between atoms: O_2  and  C_3
REMARK    3  A    between atoms: C_3  and  C_5
REMARK    4  A    between atoms: C_9  and  C_10
REMARK    5  A    between atoms: C_10  and  O_11
REMARK    6  A    between atoms: O_11  and  C_12
REMARK    7  A    between atoms: C_12  and  C_14
REMARK    8  A    between atoms: C_14  and  N_15
REMARK    9  A    between atoms: C_16  and  C_18
REMARK                            x       y       z     vdW  Elec       q    Type
REMARK                         _______ _______ _______ _____ _____    ______ ____
ROOT
ATOM      1  O   UNL     1       2.370   4.330  19.219  0.00  0.00    +0.000 OA
ENDROOT
BRANCH   1   2
ATOM      2  C   UNL     1       3.027   3.146  19.352  0.00  0.00    +0.000 C 
ATOM      3  O   UNL     1       2.507   2.067  19.614  0.00  0.00    +0.000 OA
BRANCH   2   4
ATOM      4  C   UNL     1       4.526   3.361  19.254  0.00  0.00    +0.000 C 
BRANCH   4   5
ATOM      5  N   UNL     1       4.924   3.593  17.883  0.00  0.00    +0.000 N 
ATOM      6  C   UNL     1       6.094   4.255  17.574  0.00  0.00    +0.000 C 
ATOM      7  O   UNL     1       6.839   4.712  18.442  0.00  0.00    +0.000 OA
ATOM      8  H   UNL     1       4.442   3.119  17.127  0.00  0.00    +0.000 HD
BRANCH   6   9
ATOM      9  C   UNL     1       6.354   4.368  16.156  0.00  0.00    +0.000 A 
ATOM     10  C   UNL     1       5.696   3.829  15.066  0.00  0.00    +0.000 A 
ATOM     11  C   UNL     1       6.409   4.240  13.915  0.00  0.00    +0.000 A 
ATOM     12  C   UNL     1       7.455   5.008  14.368  0.00  0.00    +0.000 A 
ATOM     13  O   UNL     1       7.430   5.100  15.722  0.00  0.00    +0.000 OA
ENDBRANCH   6   9
ENDBRANCH   4   5
ENDBRANCH   2   4
ENDBRANCH   1   2
BRANCH   1  14
ATOM     14  C   UNL     1       2.662   5.309  20.220  0.00  0.00    +0.000 C 
BRANCH  14  19
ATOM     15  C   UNL     1       1.231   8.845  20.111  0.00  0.00    +0.000 A 
ATOM     16  C   UNL     1       1.541   9.218  18.796  0.00  0.00    +0.000 A 
ATOM     17  C   UNL     1       2.215   8.333  17.955  0.00  0.00    +0.000 A 
ATOM     18  C   UNL     1       2.577   7.069  18.419  0.00  0.00    +0.000 A 
ATOM     19  C   UNL     1       2.273   6.677  19.728  0.00  0.00    +0.000 A 
ATOM     20  C   UNL     1       1.608   7.577  20.576  0.00  0.00    +0.000 A 
BRANCH  15  21
ATOM     21  C   UNL     1       0.491   9.819  20.958  0.00  0.00    +0.000 C 
ATOM     22  O   UNL     1       0.565  11.027  20.815  0.00  0.00    +0.000 OA
BRANCH  21  24
ATOM     23  C   UNL     1      -0.174   9.692  23.193  0.00  0.00    +0.000 C 
ATOM     24  O   UNL     1      -0.282   9.173  21.868  0.00  0.00    +0.000 OA
ENDBRANCH  21  24
ENDBRANCH  15  21
ENDBRANCH  14  19
ENDBRANCH   1  14
TORSDOF 8
ENDMDL
MODEL 9
REMARK VINA RESULT:      -6.7      2.847      4.360
REMARK  Name = 
REMARK  9 active torsions:
REMARK  status: ('A' for Active; 'I' for Inactive)
REMARK    1  A    between atoms: C_1  and  O_2
REMARK    2  A    between atoms: O_2  and  C_3
REMARK    3  A    between atoms: C_3  and  C_5
REMARK    4  A    between atoms: C_9  and  C_10
REMARK    5  A    between atoms: C_10  and  O_11
REMARK    6  A    between atoms: O_11  and  C_12
REMARK    7  A    between atoms: C_12  and  C_14
REMARK    8  A    between atoms: C_14  and  N_15
REMARK    9  A    between atoms: C_16  and  C_18
REMARK                            x       y       z     vdW  Elec       q    Type
REMARK                         _______ _______ _______ _____ _____    ______ ____
ROOT
ATOM      1  O   UNL     1       5.572   4.553  18.188  0.00  0.00    +0.000 OA
ENDROOT
BRANCH   1   2
ATOM      2  C   UNL     1       6.743   5.140  18.553  0.00  0.00    +0.000 C 
ATOM      3  O   UNL     1       7.252   5.085  19.667  0.00  0.00    +0.000 OA
BRANCH   2   4
ATOM      4  C   UNL     1       7.285   5.988  17.417  0.00  0.00    +0.000 C 
BRANCH   4   5
ATOM      5  N   UNL     1       7.226   5.268  16.164  0.00  0.00    +0.000 N 
ATOM      6  C   UNL     1       6.278   5.563  15.206  0.00  0.00    +0.000 C 
ATOM      7  O   UNL     1       5.416   6.425  15.380  0.00  0.00    +0.000 OA
ATOM      8  H   UNL     1       7.987   4.655  15.893  0.00  0.00    +0.000 HD
BRANCH   6   9
ATOM      9  C   UNL     1       6.385   4.770  14.002  0.00  0.00    +0.000 A 
ATOM     10  C   UNL     1       5.622   3.715  13.538  0.00  0.00    +0.000 A 
ATOM     11  C   UNL     1       6.205   3.295  12.319  0.00  0.00    +0.000 A 
ATOM     12  C   UNL     1       7.284   4.121  12.107  0.00  0.00    +0.000 A 
ATOM     13  O   UNL     1       7.400   5.023  13.115  0.00  0.00    +0.000 OA
ENDBRANCH   6   9
ENDBRANCH   4   5
ENDBRANCH   2   4
ENDBRANCH   1   2
BRANCH   1  14
ATOM     14  C   UNL     1       4.989   3.687  19.166  0.00  0.00    +0.000 C 
BRANCH  14  19
ATOM     15  C   UNL     1       2.233   6.187  20.012  0.00  0.00    +0.000 A 
ATOM     16  C   UNL     1       1.272   5.342  20.583  0.00  0.00    +0.000 A 
ATOM     17  C   UNL     1       1.512   3.972  20.687  0.00  0.00    +0.000 A 
ATOM     18  C   UNL     1       2.716   3.440  20.226  0.00  0.00    +0.000 A 
ATOM     19  C   UNL     1       3.689   4.268  19.656  0.00  0.00    +0.000 A 
ATOM     20  C   UNL     1       3.436   5.645  19.540  0.00  0.00    +0.000 A 
BRANCH  15  21
ATOM     21  C   UNL     1       1.933   7.643  19.949  0.00  0.00    +0.000 C 
ATOM     22  O   UNL     1       1.587   8.302  20.914  0.00  0.00    +0.000 OA
BRANCH  21  24
ATOM     23  C   UNL     1       1.443   9.341  18.422  0.00  0.00    +0.000 C 
ATOM     24  O   UNL     1       2.129   8.119  18.693  0.00  0.00    +0.000 OA
ENDBRANCH  21  24
ENDBRANCH  15  21
ENDBRANCH  14  19
ENDBRANCH   1  14
TORSDOF 8
ENDMDL
