MODEL 1
REMARK VINA RESULT:      -8.3      0.000      0.000
REMARK  Name = 
REMARK  7 active torsions:
REMARK  status: ('A' for Active; 'I' for Inactive)
REMARK    1  A    between atoms: C_1  and  C_2
REMARK    2  A    between atoms: C_2  and  C_3
REMARK    3  A    between atoms: C_9  and  C_10
REMARK    4  A    between atoms: C_9  and  C_11
REMARK    5  A    between atoms: C_13  and  N_14
REMARK    6  A    between atoms: N_14  and  C_15
REMARK    7  A    between atoms: C_20  and  C_21
REMARK                            x       y       z     vdW  Elec       q    Type
REMARK                         _______ _______ _______ _____ _____    ______ ____
ROOT
ATOM      1  C   UNL     1       4.277   5.010  19.051  0.00  0.00    +0.000 A 
ATOM      2  C   UNL     1       3.434   6.020  19.574  0.00  0.00    +0.000 A 
ATOM      3  C   UNL     1       2.312   5.726  20.371  0.00  0.00    +0.000 A 
ATOM      4  C   UNL     1       2.116   4.389  20.744  0.00  0.00    +0.000 A 
ATOM      5  F   UNL     1       1.047   4.047  21.482  0.00  0.00    +0.000 F 
ATOM      6  C   UNL     1       2.970   3.382  20.318  0.00  0.00    +0.000 A 
ATOM      7  C   UNL     1       4.043   3.699  19.493  0.00  0.00    +0.000 A 
ATOM      8  F   UNL     1       4.842   2.692  19.117  0.00  0.00    +0.000 F 
ENDROOT
BRANCH   1  17
ATOM      9  C   UNL     1       5.594   4.239  14.164  0.00  0.00    +0.000 C 
ATOM     10  C   UNL     1       5.634   5.275  15.307  0.00  0.00    +0.000 C 
ATOM     11  C   UNL     1       4.944   6.536  14.745  0.00  0.00    +0.000 C 
ATOM     12  O   UNL     1       6.994   5.674  15.541  0.00  0.00    +0.000 OA
ATOM     13  C   UNL     1       7.805   4.735  16.203  0.00  0.00    +0.000 C 
ATOM     14  C   UNL     1       7.681   4.578  17.728  0.00  0.00    +0.000 C 
ATOM     15  N   UNL     1       8.780   4.106  18.394  0.00  0.00    +0.000 N 
ATOM     16  N   UNL     1       6.642   4.809  18.451  0.00  0.00    +0.000 NA
ATOM     17  C   UNL     1       5.345   5.358  17.963  0.00  0.00    +0.000 C 
ATOM     18  C   UNL     1       5.561   6.889  17.957  0.00  0.00    +0.000 C 
ATOM     19  C   UNL     1       4.904   4.752  16.583  0.00  0.00    +0.000 C 
ATOM     20  F   UNL     1       5.103   3.392  16.653  0.00  0.00    +0.000 F 
ATOM     21  F   UNL     1       3.560   4.896  16.394  0.00  0.00    +0.000 F 
ATOM     22  H   UNL     1       9.498   3.601  17.891  0.00  0.00    +0.000 HD
ATOM     23  H   UNL     1       8.596   3.788  19.339  0.00  0.00    +0.000 HD
ENDBRANCH   1  17
BRANCH   3  24
ATOM     24  N   UNL     1       1.381   6.693  20.785  0.00  0.00    +0.000 N 
ATOM     25  H   UNL     1       0.957   6.462  21.683  0.00  0.00    +0.000 HD
BRANCH  24  26
ATOM     26  C   UNL     1       1.719   8.110  20.665  0.00  0.00    +0.000 C 
ATOM     27  C   UNL     1       1.570   8.583  19.196  0.00  0.00    +0.000 C 
ATOM     28  C   UNL     1       0.601   9.766  19.132  0.00  0.00    +0.000 C 
ATOM     29  C   UNL     1       0.148   9.930  20.537  0.00  0.00    +0.000 A 
ATOM     30  C   UNL     1      -0.725  10.881  21.040  0.00  0.00    +0.000 A 
ATOM     31  C   UNL     1      -0.970  10.885  22.413  0.00  0.00    +0.000 A 
ATOM     32  C   UNL     1      -0.335   9.926  23.202  0.00  0.00    +0.000 A 
ATOM     33  N   UNL     1       0.518   8.977  22.729  0.00  0.00    +0.000 NA
ATOM     34  C   UNL     1       0.727   9.001  21.394  0.00  0.00    +0.000 A 
BRANCH  31  35
ATOM     35  C   UNL     1      -1.828  11.863  23.004  0.00  0.00    +0.000 C 
ATOM     36  N   UNL     1      -2.515  12.666  23.488  0.00  0.00    +0.000 NA
ENDBRANCH  31  35
ENDBRANCH  24  26
ENDBRANCH   3  24
TORSDOF 4
ENDMDL
MODEL 2
REMARK VINA RESULT:      -8.2      6.670      9.106
REMARK  Name = 
REMARK  7 active torsions:
REMARK  status: ('A' for Active; 'I' for Inactive)
REMARK    1  A    between atoms: C_1  and  C_2
REMARK    2  A    between atoms: C_2  and  C_3
REMARK    3  A    between atoms: C_9  and  C_10
REMARK    4  A    between atoms: C_9  and  C_11
REMARK    5  A    between atoms: C_13  and  N_14
REMARK    6  A    between atoms: N_14  and  C_15
REMARK    7  A    between atoms: C_20  and  C_21
REMARK                            x       y       z     vdW  Elec       q    Type
REMARK                         _______ _______ _______ _____ _____    ______ ____
ROOT
ATOM      1  C   UNL     1      -2.219  11.104  18.386  0.00  0.00    +0.000 A 
ATOM      2  C   UNL     1      -3.475  11.738  18.234  0.00  0.00    +0.000 A 
ATOM      3  C   UNL     1      -4.264  11.578  17.080  0.00  0.00    +0.000 A 
ATOM      4  C   UNL     1      -3.822  10.660  16.116  0.00  0.00    +0.000 A 
ATOM      5  F   UNL     1      -4.522  10.488  14.982  0.00  0.00    +0.000 F 
ATOM      6  C   UNL     1      -2.635   9.958  16.270  0.00  0.00    +0.000 A 
ATOM      7  C   UNL     1      -1.856  10.173  17.401  0.00  0.00    +0.000 A 
ATOM      8  F   UNL     1      -0.724   9.464  17.506  0.00  0.00    +0.000 F 
ENDROOT
BRANCH   1  17
ATOM      9  C   UNL     1       2.212  13.425  19.477  0.00  0.00    +0.000 C 
ATOM     10  C   UNL     1       0.789  13.162  20.014  0.00  0.00    +0.000 C 
ATOM     11  C   UNL     1       0.186  14.557  20.284  0.00  0.00    +0.000 C 
ATOM     12  O   UNL     1       0.872  12.541  21.306  0.00  0.00    +0.000 OA
ATOM     13  C   UNL     1       1.254  11.187  21.313  0.00  0.00    +0.000 C 
ATOM     14  C   UNL     1       0.213  10.112  20.961  0.00  0.00    +0.000 C 
ATOM     15  N   UNL     1       0.417   8.860  21.477  0.00  0.00    +0.000 N 
ATOM     16  N   UNL     1      -0.816  10.246  20.201  0.00  0.00    +0.000 NA
ATOM     17  C   UNL     1      -1.264  11.513  19.556  0.00  0.00    +0.000 C 
ATOM     18  C   UNL     1      -2.099  12.219  20.649  0.00  0.00    +0.000 C 
ATOM     19  C   UNL     1      -0.073  12.364  18.987  0.00  0.00    +0.000 C 
ATOM     20  F   UNL     1       0.763  11.499  18.319  0.00  0.00    +0.000 F 
ATOM     21  F   UNL     1      -0.509  13.233  18.028  0.00  0.00    +0.000 F 
ATOM     22  H   UNL     1       1.337   8.587  21.795  0.00  0.00    +0.000 HD
ATOM     23  H   UNL     1      -0.135   8.129  21.041  0.00  0.00    +0.000 HD
ENDBRANCH   1  17
BRANCH   3  24
ATOM     24  N   UNL     1      -5.443  12.303  16.841  0.00  0.00    +0.000 N 
ATOM     25  H   UNL     1      -5.715  12.287  15.858  0.00  0.00    +0.000 HD
BRANCH  24  26
ATOM     26  C   UNL     1      -6.579  12.140  17.746  0.00  0.00    +0.000 C 
ATOM     27  C   UNL     1      -6.651  10.684  18.272  0.00  0.00    +0.000 C 
ATOM     28  C   UNL     1      -6.627  10.688  19.802  0.00  0.00    +0.000 C 
ATOM     29  C   UNL     1      -6.478  12.124  20.151  0.00  0.00    +0.000 A 
ATOM     30  C   UNL     1      -6.424  12.688  21.415  0.00  0.00    +0.000 A 
ATOM     31  C   UNL     1      -6.335  14.077  21.511  0.00  0.00    +0.000 A 
ATOM     32  C   UNL     1      -6.291  14.821  20.332  0.00  0.00    +0.000 A 
ATOM     33  N   UNL     1      -6.332  14.287  19.080  0.00  0.00    +0.000 NA
ATOM     34  C   UNL     1      -6.413  12.940  19.027  0.00  0.00    +0.000 A 
BRANCH  31  35
ATOM     35  C   UNL     1      -6.317  14.727  22.783  0.00  0.00    +0.000 C 
ATOM     36  N   UNL     1      -6.290  15.249  23.821  0.00  0.00    +0.000 NA
ENDBRANCH  31  35
ENDBRANCH  24  26
ENDBRANCH   3  24
TORSDOF 4
ENDMDL
MODEL 3
REMARK VINA RESULT:      -8.1      6.960      9.601
REMARK  Name = 
REMARK  7 active torsions:
REMARK  status: ('A' for Active; 'I' for Inactive)
REMARK    1  A    between atoms: C_1  and  C_2
REMARK    2  A    between atoms: C_2  and  C_3
REMARK    3  A    between atoms: C_9  and  C_10
REMARK    4  A    between atoms: C_9  and  C_11
REMARK    5  A    between atoms: C_13  and  N_14
REMARK    6  A    between atoms: N_14  and  C_15
REMARK    7  A    between atoms: C_20  and  C_21
REMARK                            x       y       z     vdW  Elec       q    Type
REMARK                         _______ _______ _______ _____ _____    ______ ____
ROOT
ATOM      1  C   UNL     1      -2.060  11.042  18.495  0.00  0.00    +0.000 A 
ATOM      2  C   UNL     1      -3.294  11.737  18.476  0.00  0.00    +0.000 A 
ATOM      3  C   UNL     1      -4.183  11.663  17.388  0.00  0.00    +0.000 A 
ATOM      4  C   UNL     1      -3.869  10.768  16.355  0.00  0.00    +0.000 A 
ATOM      5  F   UNL     1      -4.668  10.675  15.280  0.00  0.00    +0.000 F 
ATOM      6  C   UNL     1      -2.708  10.008  16.379  0.00  0.00    +0.000 A 
ATOM      7  C   UNL     1      -1.827  10.138  17.447  0.00  0.00    +0.000 A 
ATOM      8  F   UNL     1      -0.726   9.376  17.426  0.00  0.00    +0.000 F 
ENDROOT
BRANCH   1  17
ATOM      9  C   UNL     1      -1.051  14.019  22.535  0.00  0.00    +0.000 C 
ATOM     10  C   UNL     1      -0.815  12.612  21.947  0.00  0.00    +0.000 C 
ATOM     11  C   UNL     1      -1.331  11.626  23.015  0.00  0.00    +0.000 C 
ATOM     12  O   UNL     1       0.596  12.359  21.864  0.00  0.00    +0.000 OA
ATOM     13  C   UNL     1       1.282  13.033  20.838  0.00  0.00    +0.000 C 
ATOM     14  C   UNL     1       1.192  12.502  19.398  0.00  0.00    +0.000 C 
ATOM     15  N   UNL     1       2.232  12.802  18.560  0.00  0.00    +0.000 N 
ATOM     16  N   UNL     1       0.226  11.832  18.876  0.00  0.00    +0.000 NA
ATOM     17  C   UNL     1      -0.992  11.358  19.593  0.00  0.00    +0.000 C 
ATOM     18  C   UNL     1      -0.552  10.027  20.248  0.00  0.00    +0.000 C 
ATOM     19  C   UNL     1      -1.568  12.423  20.593  0.00  0.00    +0.000 C 
ATOM     20  F   UNL     1      -1.570  13.634  19.940  0.00  0.00    +0.000 F 
ATOM     21  F   UNL     1      -2.882  12.175  20.867  0.00  0.00    +0.000 F 
ATOM     22  H   UNL     1       2.849  13.574  18.775  0.00  0.00    +0.000 HD
ATOM     23  H   UNL     1       2.038  12.653  17.576  0.00  0.00    +0.000 HD
ENDBRANCH   1  17
BRANCH   3  24
ATOM     24  N   UNL     1      -5.342  12.448  17.280  0.00  0.00    +0.000 N 
ATOM     25  H   UNL     1      -5.493  12.785  16.329  0.00  0.00    +0.000 HD
BRANCH  24  26
ATOM     26  C   UNL     1      -6.574  12.000  17.925  0.00  0.00    +0.000 C 
ATOM     27  C   UNL     1      -6.486  10.494  18.280  0.00  0.00    +0.000 C 
ATOM     28  C   UNL     1      -6.733  10.303  19.778  0.00  0.00    +0.000 C 
ATOM     29  C   UNL     1      -6.897  11.687  20.290  0.00  0.00    +0.000 A 
ATOM     30  C   UNL     1      -7.165  12.083  21.590  0.00  0.00    +0.000 A 
ATOM     31  C   UNL     1      -7.335  13.445  21.839  0.00  0.00    +0.000 A 
ATOM     32  C   UNL     1      -7.213  14.334  20.771  0.00  0.00    +0.000 A 
ATOM     33  N   UNL     1      -6.940  13.968  19.489  0.00  0.00    +0.000 NA
ATOM     34  C   UNL     1      -6.777  12.642  19.287  0.00  0.00    +0.000 A 
BRANCH  31  35
ATOM     35  C   UNL     1      -7.654  13.920  23.148  0.00  0.00    +0.000 C 
ATOM     36  N   UNL     1      -7.902  14.314  24.213  0.00  0.00    +0.000 NA
ENDBRANCH  31  35
ENDBRANCH  24  26
ENDBRANCH   3  24
TORSDOF 4
ENDMDL
MODEL 4
REMARK VINA RESULT:      -8.0      2.673      4.691
REMARK  Name = 
REMARK  7 active torsions:
REMARK  status: ('A' for Active; 'I' for Inactive)
REMARK    1  A    between atoms: C_1  and  C_2
REMARK    2  A    between atoms: C_2  and  C_3
REMARK    3  A    between atoms: C_9  and  C_10
REMARK    4  A    between atoms: C_9  and  C_11
REMARK    5  A    between atoms: C_13  and  N_14
REMARK    6  A    between atoms: N_14  and  C_15
REMARK    7  A    between atoms: C_20  and  C_21
REMARK                            x       y       z     vdW  Elec       q    Type
REMARK                         _______ _______ _______ _____ _____    ______ ____
ROOT
ATOM      1  C   UNL     1       2.344   6.851  18.832  0.00  0.00    +0.000 A 
ATOM      2  C   UNL     1       1.745   7.502  19.937  0.00  0.00    +0.000 A 
ATOM      3  C   UNL     1       1.612   8.901  20.005  0.00  0.00    +0.000 A 
ATOM      4  C   UNL     1       1.983   9.642  18.874  0.00  0.00    +0.000 A 
ATOM      5  F   UNL     1       1.903  10.982  18.893  0.00  0.00    +0.000 F 
ATOM      6  C   UNL     1       2.498   9.029  17.740  0.00  0.00    +0.000 A 
ATOM      7  C   UNL     1       2.660   7.649  17.722  0.00  0.00    +0.000 A 
ATOM      8  F   UNL     1       3.152   7.107  16.601  0.00  0.00    +0.000 F 
ENDROOT
BRANCH   1  17
ATOM      9  C   UNL     1       1.968   2.665  21.755  0.00  0.00    +0.000 C 
ATOM     10  C   UNL     1       2.012   3.150  20.291  0.00  0.00    +0.000 C 
ATOM     11  C   UNL     1       0.728   2.602  19.635  0.00  0.00    +0.000 C 
ATOM     12  O   UNL     1       3.087   2.492  19.602  0.00  0.00    +0.000 OA
ATOM     13  C   UNL     1       4.383   2.939  19.915  0.00  0.00    +0.000 C 
ATOM     14  C   UNL     1       4.899   4.245  19.289  0.00  0.00    +0.000 C 
ATOM     15  N   UNL     1       6.255   4.376  19.158  0.00  0.00    +0.000 N 
ATOM     16  N   UNL     1       4.197   5.252  18.903  0.00  0.00    +0.000 NA
ATOM     17  C   UNL     1       2.709   5.332  18.912  0.00  0.00    +0.000 C 
ATOM     18  C   UNL     1       2.286   4.653  17.589  0.00  0.00    +0.000 C 
ATOM     19  C   UNL     1       2.071   4.707  20.204  0.00  0.00    +0.000 C 
ATOM     20  F   UNL     1       2.800   5.161  21.279  0.00  0.00    +0.000 F 
ATOM     21  F   UNL     1       0.811   5.194  20.410  0.00  0.00    +0.000 F 
ATOM     22  H   UNL     1       6.876   3.805  19.718  0.00  0.00    +0.000 HD
ATOM     23  H   UNL     1       6.572   5.322  18.975  0.00  0.00    +0.000 HD
ENDBRANCH   1  17
BRANCH   3  24
ATOM     24  N   UNL     1       1.153   9.581  21.145  0.00  0.00    +0.000 N 
ATOM     25  H   UNL     1       1.671  10.442  21.316  0.00  0.00    +0.000 HD
BRANCH  24  26
ATOM     26  C   UNL     1      -0.285   9.733  21.358  0.00  0.00    +0.000 C 
ATOM     27  C   UNL     1      -0.641   9.515  22.851  0.00  0.00    +0.000 C 
ATOM     28  C   UNL     1      -1.374  10.745  23.390  0.00  0.00    +0.000 C 
ATOM     29  C   UNL     1      -1.383  11.685  22.240  0.00  0.00    +0.000 A 
ATOM     30  C   UNL     1      -1.948  12.949  22.183  0.00  0.00    +0.000 A 
ATOM     31  C   UNL     1      -1.886  13.642  20.974  0.00  0.00    +0.000 A 
ATOM     32  C   UNL     1      -1.249  13.032  19.893  0.00  0.00    +0.000 A 
ATOM     33  N   UNL     1      -0.679  11.796  19.929  0.00  0.00    +0.000 NA
ATOM     34  C   UNL     1      -0.754  11.158  21.118  0.00  0.00    +0.000 A 
BRANCH  31  35
ATOM     35  C   UNL     1      -2.483  14.932  20.833  0.00  0.00    +0.000 C 
ATOM     36  N   UNL     1      -2.957  15.986  20.712  0.00  0.00    +0.000 NA
ENDBRANCH  31  35
ENDBRANCH  24  26
ENDBRANCH   3  24
TORSDOF 4
ENDMDL
MODEL 5
REMARK VINA RESULT:      -7.8      8.406      9.708
REMARK  Name = 
REMARK  7 active torsions:
REMARK  status: ('A' for Active; 'I' for Inactive)
REMARK    1  A    between atoms: C_1  and  C_2
REMARK    2  A    between atoms: C_2  and  C_3
REMARK    3  A    between atoms: C_9  and  C_10
REMARK    4  A    between atoms: C_9  and  C_11
REMARK    5  A    between atoms: C_13  and  N_14
REMARK    6  A    between atoms: N_14  and  C_15
REMARK    7  A    between atoms: C_20  and  C_21
REMARK                            x       y       z     vdW  Elec       q    Type
REMARK                         _______ _______ _______ _____ _____    ______ ____
ROOT
ATOM      1  C   UNL     1       8.243  15.155  19.595  0.00  0.00    +0.000 A 
ATOM      2  C   UNL     1       6.908  14.819  19.923  0.00  0.00    +0.000 A 
ATOM      3  C   UNL     1       6.159  15.544  20.869  0.00  0.00    +0.000 A 
ATOM      4  C   UNL     1       6.739  16.705  21.400  0.00  0.00    +0.000 A 
ATOM      5  F   UNL     1       6.081  17.421  22.327  0.00  0.00    +0.000 F 
ATOM      6  C   UNL     1       8.017  17.111  21.040  0.00  0.00    +0.000 A 
ATOM      7  C   UNL     1       8.748  16.347  20.137  0.00  0.00    +0.000 A 
ATOM      8  F   UNL     1       9.971  16.788  19.816  0.00  0.00    +0.000 F 
ENDROOT
BRANCH   1  17
ATOM      9  C   UNL     1      12.106  11.804  19.839  0.00  0.00    +0.000 C 
ATOM     10  C   UNL     1      10.785  12.117  19.105  0.00  0.00    +0.000 C 
ATOM     11  C   UNL     1       9.907  10.861  19.282  0.00  0.00    +0.000 C 
ATOM     12  O   UNL     1      11.031  12.197  17.692  0.00  0.00    +0.000 OA
ATOM     13  C   UNL     1      11.691  13.357  17.248  0.00  0.00    +0.000 C 
ATOM     14  C   UNL     1      10.894  14.663  17.094  0.00  0.00    +0.000 C 
ATOM     15  N   UNL     1      11.372  15.577  16.194  0.00  0.00    +0.000 N 
ATOM     16  N   UNL     1       9.841  15.012  17.745  0.00  0.00    +0.000 NA
ATOM     17  C   UNL     1       9.119  14.176  18.746  0.00  0.00    +0.000 C 
ATOM     18  C   UNL     1       8.180  13.291  17.892  0.00  0.00    +0.000 C 
ATOM     19  C   UNL     1      10.087  13.382  19.694  0.00  0.00    +0.000 C 
ATOM     20  F   UNL     1      11.071  14.256  20.096  0.00  0.00    +0.000 F 
ATOM     21  F   UNL     1       9.452  13.021  20.848  0.00  0.00    +0.000 F 
ATOM     22  H   UNL     1      12.337  15.537  15.895  0.00  0.00    +0.000 HD
ATOM     23  H   UNL     1      10.977  16.507  16.289  0.00  0.00    +0.000 HD
ENDBRANCH   1  17
BRANCH   3  24
ATOM     24  N   UNL     1       4.887  15.151  21.316  0.00  0.00    +0.000 N 
ATOM     25  H   UNL     1       4.733  15.385  22.297  0.00  0.00    +0.000 HD
BRANCH  24  26
ATOM     26  C   UNL     1       3.720  15.421  20.479  0.00  0.00    +0.000 C 
ATOM     27  C   UNL     1       4.157  15.924  19.080  0.00  0.00    +0.000 C 
ATOM     28  C   UNL     1       3.561  15.019  17.999  0.00  0.00    +0.000 C 
ATOM     29  C   UNL     1       2.844  13.971  18.769  0.00  0.00    +0.000 A 
ATOM     30  C   UNL     1       2.107  12.909  18.270  0.00  0.00    +0.000 A 
ATOM     31  C   UNL     1       1.467  12.069  19.182  0.00  0.00    +0.000 A 
ATOM     32  C   UNL     1       1.613  12.336  20.544  0.00  0.00    +0.000 A 
ATOM     33  N   UNL     1       2.340  13.367  21.055  0.00  0.00    +0.000 NA
ATOM     34  C   UNL     1       2.950  14.155  20.142  0.00  0.00    +0.000 A 
BRANCH  31  35
ATOM     35  C   UNL     1       0.658  10.979  18.737  0.00  0.00    +0.000 C 
ATOM     36  N   UNL     1      -0.003  10.100  18.362  0.00  0.00    +0.000 NA
ENDBRANCH  31  35
ENDBRANCH  24  26
ENDBRANCH   3  24
TORSDOF 4
ENDMDL
MODEL 6
REMARK VINA RESULT:      -7.8      4.972      9.311
REMARK  Name = 
REMARK  7 active torsions:
REMARK  status: ('A' for Active; 'I' for Inactive)
REMARK    1  A    between atoms: C_1  and  C_2
REMARK    2  A    between atoms: C_2  and  C_3
REMARK    3  A    between atoms: C_9  and  C_10
REMARK    4  A    between atoms: C_9  and  C_11
REMARK    5  A    between atoms: C_13  and  N_14
REMARK    6  A    between atoms: N_14  and  C_15
REMARK    7  A    between atoms: C_20  and  C_21
REMARK                            x       y       z     vdW  Elec       q    Type
REMARK                         _______ _______ _______ _____ _____    ______ ____
ROOT
ATOM      1  C   UNL     1       0.609  12.109  20.510  0.00  0.00    +0.000 A 
ATOM      2  C   UNL     1       0.912  10.985  19.704  0.00  0.00    +0.000 A 
ATOM      3  C   UNL     1       0.584   9.672  20.090  0.00  0.00    +0.000 A 
ATOM      4  C   UNL     1      -0.174   9.511  21.259  0.00  0.00    +0.000 A 
ATOM      5  F   UNL     1      -0.492   8.279  21.689  0.00  0.00    +0.000 F 
ATOM      6  C   UNL     1      -0.560  10.598  22.031  0.00  0.00    +0.000 A 
ATOM      7  C   UNL     1      -0.181  11.879  21.646  0.00  0.00    +0.000 A 
ATOM      8  F   UNL     1      -0.587  12.893  22.421  0.00  0.00    +0.000 F 
ENDROOT
BRANCH   1  17
ATOM      9  C   UNL     1      -0.369  16.607  18.269  0.00  0.00    +0.000 C 
ATOM     10  C   UNL     1       0.412  15.945  19.424  0.00  0.00    +0.000 C 
ATOM     11  C   UNL     1      -0.047  16.674  20.704  0.00  0.00    +0.000 C 
ATOM     12  O   UNL     1       1.807  16.261  19.300  0.00  0.00    +0.000 OA
ATOM     13  C   UNL     1       2.503  15.585  18.282  0.00  0.00    +0.000 C 
ATOM     14  C   UNL     1       2.944  14.130  18.513  0.00  0.00    +0.000 C 
ATOM     15  N   UNL     1       4.028  13.691  17.801  0.00  0.00    +0.000 N 
ATOM     16  N   UNL     1       2.385  13.261  19.278  0.00  0.00    +0.000 NA
ATOM     17  C   UNL     1       1.219  13.510  20.173  0.00  0.00    +0.000 C 
ATOM     18  C   UNL     1       1.849  14.094  21.460  0.00  0.00    +0.000 C 
ATOM     19  C   UNL     1       0.120  14.414  19.511  0.00  0.00    +0.000 C 
ATOM     20  F   UNL     1      -0.071  13.950  18.229  0.00  0.00    +0.000 F 
ATOM     21  F   UNL     1      -1.087  14.244  20.125  0.00  0.00    +0.000 F 
ATOM     22  H   UNL     1       4.314  14.178  16.962  0.00  0.00    +0.000 HD
ATOM     23  H   UNL     1       4.144  12.684  17.788  0.00  0.00    +0.000 HD
ENDBRANCH   1  17
BRANCH   3  24
ATOM     24  N   UNL     1       0.996   8.531  19.382  0.00  0.00    +0.000 N 
ATOM     25  H   UNL     1       1.060   8.701  18.379  0.00  0.00    +0.000 HD
BRANCH  24  26
ATOM     26  C   UNL     1       2.108   7.734  19.894  0.00  0.00    +0.000 C 
ATOM     27  C   UNL     1       1.584   6.548  20.744  0.00  0.00    +0.000 C 
ATOM     28  C   UNL     1       2.120   5.232  20.177  0.00  0.00    +0.000 C 
ATOM     29  C   UNL     1       2.890   5.649  18.978  0.00  0.00    +0.000 A 
ATOM     30  C   UNL     1       3.603   4.842  18.107  0.00  0.00    +0.000 A 
ATOM     31  C   UNL     1       4.304   5.456  17.069  0.00  0.00    +0.000 A 
ATOM     32  C   UNL     1       4.238   6.845  16.956  0.00  0.00    +0.000 A 
ATOM     33  N   UNL     1       3.536   7.656  17.794  0.00  0.00    +0.000 NA
ATOM     34  C   UNL     1       2.866   7.025  18.784  0.00  0.00    +0.000 A 
BRANCH  31  35
ATOM     35  C   UNL     1       5.093   4.688  16.158  0.00  0.00    +0.000 C 
ATOM     36  N   UNL     1       5.724   4.056  15.415  0.00  0.00    +0.000 NA
ENDBRANCH  31  35
ENDBRANCH  24  26
ENDBRANCH   3  24
TORSDOF 4
ENDMDL
MODEL 7
REMARK VINA RESULT:      -7.8      1.660      2.343
REMARK  Name = 
REMARK  7 active torsions:
REMARK  status: ('A' for Active; 'I' for Inactive)
REMARK    1  A    between atoms: C_1  and  C_2
REMARK    2  A    between atoms: C_2  and  C_3
REMARK    3  A    between atoms: C_9  and  C_10
REMARK    4  A    between atoms: C_9  and  C_11
REMARK    5  A    between atoms: C_13  and  N_14
REMARK    6  A    between atoms: N_14  and  C_15
REMARK    7  A    between atoms: C_20  and  C_21
REMARK                            x       y       z     vdW  Elec       q    Type
REMARK                         _______ _______ _______ _____ _____    ______ ____
ROOT
ATOM      1  C   UNL     1       3.797   4.333  18.563  0.00  0.00    +0.000 A 
ATOM      2  C   UNL     1       3.314   5.328  19.447  0.00  0.00    +0.000 A 
ATOM      3  C   UNL     1       2.010   5.296  19.976  0.00  0.00    +0.000 A 
ATOM      4  C   UNL     1       1.227   4.167  19.699  0.00  0.00    +0.000 A 
ATOM      5  F   UNL     1      -0.034   4.095  20.156  0.00  0.00    +0.000 F 
ATOM      6  C   UNL     1       1.698   3.132  18.903  0.00  0.00    +0.000 A 
ATOM      7  C   UNL     1       2.974   3.215  18.357  0.00  0.00    +0.000 A 
ATOM      8  F   UNL     1       3.384   2.186  17.604  0.00  0.00    +0.000 F 
ENDROOT
BRANCH   1  17
ATOM      9  C   UNL     1       7.362   7.804  17.361  0.00  0.00    +0.000 C 
ATOM     10  C   UNL     1       7.149   6.307  17.668  0.00  0.00    +0.000 C 
ATOM     11  C   UNL     1       8.098   5.987  18.842  0.00  0.00    +0.000 C 
ATOM     12  O   UNL     1       7.640   5.520  16.572  0.00  0.00    +0.000 OA
ATOM     13  C   UNL     1       6.846   5.518  15.412  0.00  0.00    +0.000 C 
ATOM     14  C   UNL     1       5.587   4.637  15.365  0.00  0.00    +0.000 C 
ATOM     15  N   UNL     1       5.159   4.234  14.128  0.00  0.00    +0.000 N 
ATOM     16  N   UNL     1       4.863   4.262  16.360  0.00  0.00    +0.000 NA
ATOM     17  C   UNL     1       5.144   4.544  17.796  0.00  0.00    +0.000 C 
ATOM     18  C   UNL     1       6.129   3.427  18.215  0.00  0.00    +0.000 C 
ATOM     19  C   UNL     1       5.664   6.004  18.043  0.00  0.00    +0.000 C 
ATOM     20  F   UNL     1       4.865   6.851  17.310  0.00  0.00    +0.000 F 
ATOM     21  F   UNL     1       5.467   6.380  19.341  0.00  0.00    +0.000 F 
ATOM     22  H   UNL     1       5.455   4.736  13.301  0.00  0.00    +0.000 HD
ATOM     23  H   UNL     1       4.213   3.869  14.108  0.00  0.00    +0.000 HD
ENDBRANCH   1  17
BRANCH   3  24
ATOM     24  N   UNL     1       1.459   6.339  20.739  0.00  0.00    +0.000 N 
ATOM     25  H   UNL     1       1.352   6.084  21.720  0.00  0.00    +0.000 HD
BRANCH  24  26
ATOM     26  C   UNL     1       1.957   7.700  20.557  0.00  0.00    +0.000 C 
ATOM     27  C   UNL     1       1.904   8.104  19.061  0.00  0.00    +0.000 C 
ATOM     28  C   UNL     1       1.076   9.382  18.903  0.00  0.00    +0.000 C 
ATOM     29  C   UNL     1       0.606   9.673  20.281  0.00  0.00    +0.000 A 
ATOM     30  C   UNL     1      -0.169  10.741  20.703  0.00  0.00    +0.000 A 
ATOM     31  C   UNL     1      -0.451  10.849  22.065  0.00  0.00    +0.000 A 
ATOM     32  C   UNL     1       0.050   9.871  22.925  0.00  0.00    +0.000 A 
ATOM     33  N   UNL     1       0.804   8.809  22.530  0.00  0.00    +0.000 NA
ATOM     34  C   UNL     1       1.052   8.735  21.204  0.00  0.00    +0.000 A 
BRANCH  31  35
ATOM     35  C   UNL     1      -1.210  11.947  22.575  0.00  0.00    +0.000 C 
ATOM     36  N   UNL     1      -1.817  12.842  23.000  0.00  0.00    +0.000 NA
ENDBRANCH  31  35
ENDBRANCH  24  26
ENDBRANCH   3  24
TORSDOF 4
ENDMDL
MODEL 8
REMARK VINA RESULT:      -7.8      5.149     11.146
REMARK  Name = 
REMARK  7 active torsions:
REMARK  status: ('A' for Active; 'I' for Inactive)
REMARK    1  A    between atoms: C_1  and  C_2
REMARK    2  A    between atoms: C_2  and  C_3
REMARK    3  A    between atoms: C_9  and  C_10
REMARK    4  A    between atoms: C_9  and  C_11
REMARK    5  A    between atoms: C_13  and  N_14
REMARK    6  A    between atoms: N_14  and  C_15
REMARK    7  A    between atoms: C_20  and  C_21
REMARK                            x       y       z     vdW  Elec       q    Type
REMARK                         _______ _______ _______ _____ _____    ______ ____
ROOT
ATOM      1  C   UNL     1      -3.073  12.578  19.613  0.00  0.00    +0.000 A 
ATOM      2  C   UNL     1      -1.762  12.268  19.177  0.00  0.00    +0.000 A 
ATOM      3  C   UNL     1      -1.489  11.185  18.322  0.00  0.00    +0.000 A 
ATOM      4  C   UNL     1      -2.584  10.479  17.803  0.00  0.00    +0.000 A 
ATOM      5  F   UNL     1      -2.382   9.419  17.003  0.00  0.00    +0.000 F 
ATOM      6  C   UNL     1      -3.889  10.807  18.144  0.00  0.00    +0.000 A 
ATOM      7  C   UNL     1      -4.123  11.854  19.027  0.00  0.00    +0.000 A 
ATOM      8  F   UNL     1      -5.400  12.135  19.316  0.00  0.00    +0.000 F 
ENDROOT
BRANCH   1  17
ATOM      9  C   UNL     1      -3.986  13.050  24.628  0.00  0.00    +0.000 C 
ATOM     10  C   UNL     1      -3.277  13.720  23.432  0.00  0.00    +0.000 C 
ATOM     11  C   UNL     1      -1.802  13.870  23.859  0.00  0.00    +0.000 C 
ATOM     12  O   UNL     1      -3.756  15.066  23.286  0.00  0.00    +0.000 OA
ATOM     13  C   UNL     1      -5.049  15.203  22.749  0.00  0.00    +0.000 C 
ATOM     14  C   UNL     1      -5.252  15.059  21.232  0.00  0.00    +0.000 C 
ATOM     15  N   UNL     1      -6.331  15.702  20.688  0.00  0.00    +0.000 N 
ATOM     16  N   UNL     1      -4.538  14.369  20.415  0.00  0.00    +0.000 NA
ATOM     17  C   UNL     1      -3.299  13.616  20.762  0.00  0.00    +0.000 C 
ATOM     18  C   UNL     1      -2.178  14.679  20.692  0.00  0.00    +0.000 C 
ATOM     19  C   UNL     1      -3.406  12.862  22.135  0.00  0.00    +0.000 C 
ATOM     20  F   UNL     1      -4.633  12.239  22.163  0.00  0.00    +0.000 F 
ATOM     21  F   UNL     1      -2.499  11.844  22.205  0.00  0.00    +0.000 F 
ATOM     22  H   UNL     1      -7.106  15.979  21.277  0.00  0.00    +0.000 HD
ATOM     23  H   UNL     1      -6.575  15.398  19.752  0.00  0.00    +0.000 HD
ENDBRANCH   1  17
BRANCH   3  24
ATOM     24  N   UNL     1      -0.190  10.769  17.988  0.00  0.00    +0.000 N 
ATOM     25  H   UNL     1       0.196  11.299  17.207  0.00  0.00    +0.000 HD
BRANCH  24  26
ATOM     26  C   UNL     1       0.783  10.539  19.053  0.00  0.00    +0.000 C 
ATOM     27  C   UNL     1       0.068  10.360  20.416  0.00  0.00    +0.000 C 
ATOM     28  C   UNL     1       0.466   9.018  21.034  0.00  0.00    +0.000 C 
ATOM     29  C   UNL     1       1.349   8.404  20.010  0.00  0.00    +0.000 A 
ATOM     30  C   UNL     1       2.004   7.185  20.078  0.00  0.00    +0.000 A 
ATOM     31  C   UNL     1       2.834   6.826  19.015  0.00  0.00    +0.000 A 
ATOM     32  C   UNL     1       2.949   7.705  17.939  0.00  0.00    +0.000 A 
ATOM     33  N   UNL     1       2.307   8.902  17.847  0.00  0.00    +0.000 NA
ATOM     34  C   UNL     1       1.508   9.213  18.892  0.00  0.00    +0.000 A 
BRANCH  31  35
ATOM     35  C   UNL     1       3.571   5.602  19.038  0.00  0.00    +0.000 C 
ATOM     36  N   UNL     1       4.183   4.614  19.055  0.00  0.00    +0.000 NA
ENDBRANCH  31  35
ENDBRANCH  24  26
ENDBRANCH   3  24
TORSDOF 4
ENDMDL
MODEL 9
REMARK VINA RESULT:      -7.7      4.546     10.287
REMARK  Name = 
REMARK  7 active torsions:
REMARK  status: ('A' for Active; 'I' for Inactive)
REMARK    1  A    between atoms: C_1  and  C_2
REMARK    2  A    between atoms: C_2  and  C_3
REMARK    3  A    between atoms: C_9  and  C_10
REMARK    4  A    between atoms: C_9  and  C_11
REMARK    5  A    between atoms: C_13  and  N_14
REMARK    6  A    between atoms: N_14  and  C_15
REMARK    7  A    between atoms: C_20  and  C_21
REMARK                            x       y       z     vdW  Elec       q    Type
REMARK                         _______ _______ _______ _____ _____    ______ ____
ROOT
ATOM      1  C   UNL     1      -1.178  11.399  21.572  0.00  0.00    +0.000 A 
ATOM      2  C   UNL     1      -0.222  10.884  20.663  0.00  0.00    +0.000 A 
ATOM      3  C   UNL     1       0.754   9.946  21.048  0.00  0.00    +0.000 A 
ATOM      4  C   UNL     1       0.678   9.431  22.350  0.00  0.00    +0.000 A 
ATOM      5  F   UNL     1       1.599   8.553  22.779  0.00  0.00    +0.000 F 
ATOM      6  C   UNL     1      -0.297   9.852  23.243  0.00  0.00    +0.000 A 
ATOM      7  C   UNL     1      -1.219  10.814  22.847  0.00  0.00    +0.000 A 
ATOM      8  F   UNL     1      -2.144  11.178  23.744  0.00  0.00    +0.000 F 
ENDROOT
BRANCH   1  17
ATOM      9  C   UNL     1      -1.865  16.415  22.325  0.00  0.00    +0.000 C 
ATOM     10  C   UNL     1      -1.997  15.294  21.274  0.00  0.00    +0.000 C 
ATOM     11  C   UNL     1      -1.162  15.761  20.064  0.00  0.00    +0.000 C 
ATOM     12  O   UNL     1      -3.349  15.248  20.791  0.00  0.00    +0.000 OA
ATOM     13  C   UNL     1      -4.298  14.698  21.672  0.00  0.00    +0.000 C 
ATOM     14  C   UNL     1      -4.391  13.171  21.817  0.00  0.00    +0.000 C 
ATOM     15  N   UNL     1      -5.597  12.659  22.215  0.00  0.00    +0.000 N 
ATOM     16  N   UNL     1      -3.448  12.314  21.640  0.00  0.00    +0.000 NA
ATOM     17  C   UNL     1      -2.067  12.624  21.175  0.00  0.00    +0.000 C 
ATOM     18  C   UNL     1      -2.187  12.665  19.633  0.00  0.00    +0.000 C 
ATOM     19  C   UNL     1      -1.480  13.928  21.823  0.00  0.00    +0.000 C 
ATOM     20  F   UNL     1      -1.769  13.880  23.168  0.00  0.00    +0.000 F 
ATOM     21  F   UNL     1      -0.116  13.933  21.762  0.00  0.00    +0.000 F 
ATOM     22  H   UNL     1      -6.270  13.252  22.682  0.00  0.00    +0.000 HD
ATOM     23  H   UNL     1      -5.563  11.696  22.531  0.00  0.00    +0.000 HD
ENDBRANCH   1  17
BRANCH   3  24
ATOM     24  N   UNL     1       1.798   9.527  20.208  0.00  0.00    +0.000 N 
ATOM     25  H   UNL     1       2.653   9.323  20.727  0.00  0.00    +0.000 HD
BRANCH  24  26
ATOM     26  C   UNL     1       1.524   8.547  19.160  0.00  0.00    +0.000 C 
ATOM     27  C   UNL     1       2.257   8.931  17.849  0.00  0.00    +0.000 C 
ATOM     28  C   UNL     1       3.154   7.774  17.403  0.00  0.00    +0.000 C 
ATOM     29  C   UNL     1       2.989   6.762  18.477  0.00  0.00    +0.000 A 
ATOM     30  C   UNL     1       3.569   5.506  18.554  0.00  0.00    +0.000 A 
ATOM     31  C   UNL     1       3.229   4.692  19.635  0.00  0.00    +0.000 A 
ATOM     32  C   UNL     1       2.336   5.189  20.584  0.00  0.00    +0.000 A 
ATOM     33  N   UNL     1       1.762   6.423  20.533  0.00  0.00    +0.000 NA
ATOM     34  C   UNL     1       2.119   7.185  19.476  0.00  0.00    +0.000 A 
BRANCH  31  35
ATOM     35  C   UNL     1       3.758   3.370  19.755  0.00  0.00    +0.000 C 
ATOM     36  N   UNL     1       4.182   2.292  19.841  0.00  0.00    +0.000 NA
ENDBRANCH  31  35
ENDBRANCH  24  26
ENDBRANCH   3  24
TORSDOF 4
ENDMDL
