MODEL 1
REMARK VINA RESULT:      -8.0      0.000      0.000
REMARK  Name = 
REMARK  11 active torsions:
REMARK  status: ('A' for Active; 'I' for Inactive)
REMARK    1  A    between atoms: C_1  and  C_2
REMARK    2  A    between atoms: C_2  and  C_3
REMARK    3  A    between atoms: C_7  and  C_8
REMARK    4  A    between atoms: C_8  and  C_9
REMARK    5  A    between atoms: C_10  and  C_11
REMARK    6  A    between atoms: C_13  and  O_14
REMARK    7  A    between atoms: O_14  and  C_15
REMARK    8  A    between atoms: C_22  and  N_23
REMARK    9  A    between atoms: N_23  and  C_24
REMARK   10  A    between atoms: C_29  and  C_30
REMARK   11  A    between atoms: C_30  and  O_31
REMARK                            x       y       z     vdW  Elec       q    Type
REMARK                         _______ _______ _______ _____ _____    ______ ____
ROOT
ATOM      1  C   UNL     1       2.297   7.006  19.516  0.00  0.00    +0.000 A 
ATOM      2  C   UNL     1       1.578   7.299  20.666  0.00  0.00    +0.000 A 
ATOM      3  C   UNL     1       0.859   8.497  20.771  0.00  0.00    +0.000 A 
ATOM      4  C   UNL     1       0.960   9.473  19.774  0.00  0.00    +0.000 A 
ATOM      5  C   UNL     1       1.828   9.171  18.730  0.00  0.00    +0.000 A 
ATOM      6  N   UNL     1       2.396   7.955  18.567  0.00  0.00    +0.000 NA
ATOM      7  C   UNL     1       2.246  10.190  17.705  0.00  0.00    +0.000 C 
ATOM      8  C   UNL     1       2.046  11.600  18.226  0.00  0.00    +0.000 C 
ATOM      9  C   UNL     1       0.594  11.754  18.637  0.00  0.00    +0.000 C 
ATOM     10  C   UNL     1       0.214  10.792  19.786  0.00  0.00    +0.000 C 
ENDROOT
BRANCH   1  16
ATOM     11  C   UNL     1       4.136   5.688  18.296  0.00  0.00    +0.000 A 
ATOM     12  C   UNL     1       4.874   4.506  18.112  0.00  0.00    +0.000 A 
ATOM     13  C   UNL     1       4.552   3.342  18.792  0.00  0.00    +0.000 A 
ATOM     14  C   UNL     1       3.456   3.326  19.642  0.00  0.00    +0.000 A 
ATOM     15  C   UNL     1       2.663   4.467  19.862  0.00  0.00    +0.000 A 
ATOM     16  C   UNL     1       3.029   5.714  19.233  0.00  0.00    +0.000 A 
BRANCH  11  18
ATOM     17  C   UNL     1       5.052   6.708  16.041  0.00  0.00    +0.000 C 
ATOM     18  C   UNL     1       4.520   6.910  17.460  0.00  0.00    +0.000 C 
ENDBRANCH  11  18
BRANCH  15  19
ATOM     19  C   UNL     1       1.478   4.321  20.811  0.00  0.00    +0.000 C 
ATOM     20  C   UNL     1       1.257   2.984  21.516  0.00  0.00    +0.000 C 
ENDBRANCH  15  19
ENDBRANCH   1  16
BRANCH   3  21
ATOM     21  O   UNL     1      -0.016   8.526  21.828  0.00  0.00    +0.000 OA
ATOM     22  C   UNL     1       0.364   9.332  22.937  0.00  0.00    +0.000 C 
ENDBRANCH   3  21
BRANCH  10  23
ATOM     23  N   UNL     1      -1.224  10.535  19.692  0.00  0.00    +0.000 N 
ATOM     24  H   UNL     1      -1.737  10.748  20.545  0.00  0.00    +0.000 HD
BRANCH  23  25
ATOM     25  C   UNL     1      -1.963  10.634  18.519  0.00  0.00    +0.000 A 
ATOM     26  C   UNL     1      -1.741   9.840  17.389  0.00  0.00    +0.000 A 
ATOM     27  N   UNL     1      -2.444   9.891  16.230  0.00  0.00    +0.000 NA
ATOM     28  C   UNL     1      -3.468  10.759  16.193  0.00  0.00    +0.000 A 
ATOM     29  C   UNL     1      -3.823  11.562  17.259  0.00  0.00    +0.000 A 
ATOM     30  C   UNL     1      -3.076  11.493  18.448  0.00  0.00    +0.000 A 
BRANCH  30  31
ATOM     31  C   UNL     1      -3.489  12.387  19.590  0.00  0.00    +0.000 C 
BRANCH  31  32
ATOM     32  O   UNL     1      -2.495  13.374  19.840  0.00  0.00    +0.000 OA
ATOM     33  H   UNL     1      -1.799  12.966  20.384  0.00  0.00    +0.000 HD
ENDBRANCH  31  32
ENDBRANCH  30  31
ENDBRANCH  23  25
ENDBRANCH  10  23
TORSDOF 8
ENDMDL
MODEL 2
REMARK VINA RESULT:      -7.9      0.514      2.518
REMARK  Name = 
REMARK  11 active torsions:
REMARK  status: ('A' for Active; 'I' for Inactive)
REMARK    1  A    between atoms: C_1  and  C_2
REMARK    2  A    between atoms: C_2  and  C_3
REMARK    3  A    between atoms: C_7  and  C_8
REMARK    4  A    between atoms: C_8  and  C_9
REMARK    5  A    between atoms: C_10  and  C_11
REMARK    6  A    between atoms: C_13  and  O_14
REMARK    7  A    between atoms: O_14  and  C_15
REMARK    8  A    between atoms: C_22  and  N_23
REMARK    9  A    between atoms: N_23  and  C_24
REMARK   10  A    between atoms: C_29  and  C_30
REMARK   11  A    between atoms: C_30  and  O_31
REMARK                            x       y       z     vdW  Elec       q    Type
REMARK                         _______ _______ _______ _____ _____    ______ ____
ROOT
ATOM      1  C   UNL     1       2.307   7.106  19.199  0.00  0.00    +0.000 A 
ATOM      2  C   UNL     1       1.669   7.339  20.410  0.00  0.00    +0.000 A 
ATOM      3  C   UNL     1       1.004   8.551  20.644  0.00  0.00    +0.000 A 
ATOM      4  C   UNL     1       1.083   9.592  19.713  0.00  0.00    +0.000 A 
ATOM      5  C   UNL     1       1.875   9.338  18.598  0.00  0.00    +0.000 A 
ATOM      6  N   UNL     1       2.385   8.118  18.315  0.00  0.00    +0.000 NA
ATOM      7  C   UNL     1       2.269  10.413  17.623  0.00  0.00    +0.000 C 
ATOM      8  C   UNL     1       2.155  11.788  18.253  0.00  0.00    +0.000 C 
ATOM      9  C   UNL     1       0.737  11.960  18.765  0.00  0.00    +0.000 C 
ATOM     10  C   UNL     1       0.390  10.931  19.865  0.00  0.00    +0.000 C 
ENDROOT
BRANCH   1  16
ATOM     11  C   UNL     1       2.478   4.543  19.277  0.00  0.00    +0.000 A 
ATOM     12  C   UNL     1       3.037   3.342  18.809  0.00  0.00    +0.000 A 
ATOM     13  C   UNL     1       4.078   3.340  17.894  0.00  0.00    +0.000 A 
ATOM     14  C   UNL     1       4.610   4.544  17.459  0.00  0.00    +0.000 A 
ATOM     15  C   UNL     1       4.111   5.784  17.897  0.00  0.00    +0.000 A 
ATOM     16  C   UNL     1       2.971   5.814  18.782  0.00  0.00    +0.000 A 
BRANCH  11  18
ATOM     17  C   UNL     1       1.020   3.096  20.934  0.00  0.00    +0.000 C 
ATOM     18  C   UNL     1       1.374   4.456  20.332  0.00  0.00    +0.000 C 
ENDBRANCH  11  18
BRANCH  15  19
ATOM     19  C   UNL     1       4.786   7.040  17.355  0.00  0.00    +0.000 C 
ATOM     20  C   UNL     1       6.304   7.044  17.179  0.00  0.00    +0.000 C 
ENDBRANCH  15  19
ENDBRANCH   1  16
BRANCH   3  21
ATOM     21  O   UNL     1       0.197   8.533  21.753  0.00  0.00    +0.000 OA
ATOM     22  C   UNL     1       0.652   9.277  22.876  0.00  0.00    +0.000 C 
ENDBRANCH   3  21
BRANCH  10  23
ATOM     23  N   UNL     1      -1.060  10.731  19.842  0.00  0.00    +0.000 N 
ATOM     24  H   UNL     1      -1.531  11.039  20.690  0.00  0.00    +0.000 HD
BRANCH  23  25
ATOM     25  C   UNL     1      -1.838  10.760  18.691  0.00  0.00    +0.000 A 
ATOM     26  C   UNL     1      -1.628   9.926  17.587  0.00  0.00    +0.000 A 
ATOM     27  N   UNL     1      -2.368   9.910  16.451  0.00  0.00    +0.000 NA
ATOM     28  C   UNL     1      -3.419  10.745  16.412  0.00  0.00    +0.000 A 
ATOM     29  C   UNL     1      -3.764  11.581  17.457  0.00  0.00    +0.000 A 
ATOM     30  C   UNL     1      -2.979  11.583  18.622  0.00  0.00    +0.000 A 
BRANCH  30  31
ATOM     31  C   UNL     1      -3.382  12.510  19.740  0.00  0.00    +0.000 C 
BRANCH  31  32
ATOM     32  O   UNL     1      -2.429  13.556  19.894  0.00  0.00    +0.000 OA
ATOM     33  H   UNL     1      -2.316  13.986  19.030  0.00  0.00    +0.000 HD
ENDBRANCH  31  32
ENDBRANCH  30  31
ENDBRANCH  23  25
ENDBRANCH  10  23
TORSDOF 8
ENDMDL
MODEL 3
REMARK VINA RESULT:      -7.9      1.131      1.299
REMARK  Name = 
REMARK  11 active torsions:
REMARK  status: ('A' for Active; 'I' for Inactive)
REMARK    1  A    between atoms: C_1  and  C_2
REMARK    2  A    between atoms: C_2  and  C_3
REMARK    3  A    between atoms: C_7  and  C_8
REMARK    4  A    between atoms: C_8  and  C_9
REMARK    5  A    between atoms: C_10  and  C_11
REMARK    6  A    between atoms: C_13  and  O_14
REMARK    7  A    between atoms: O_14  and  C_15
REMARK    8  A    between atoms: C_22  and  N_23
REMARK    9  A    between atoms: N_23  and  C_24
REMARK   10  A    between atoms: C_29  and  C_30
REMARK   11  A    between atoms: C_30  and  O_31
REMARK                            x       y       z     vdW  Elec       q    Type
REMARK                         _______ _______ _______ _____ _____    ______ ____
ROOT
ATOM      1  C   UNL     1       2.753   7.151  18.480  0.00  0.00    +0.000 A 
ATOM      2  C   UNL     1       2.156   7.174  19.733  0.00  0.00    +0.000 A 
ATOM      3  C   UNL     1       1.434   8.298  20.158  0.00  0.00    +0.000 A 
ATOM      4  C   UNL     1       1.414   9.462  19.381  0.00  0.00    +0.000 A 
ATOM      5  C   UNL     1       2.170   9.413  18.214  0.00  0.00    +0.000 A 
ATOM      6  N   UNL     1       2.736   8.278  17.745  0.00  0.00    +0.000 NA
ATOM      7  C   UNL     1       2.461  10.635  17.387  0.00  0.00    +0.000 C 
ATOM      8  C   UNL     1       2.296  11.900  18.208  0.00  0.00    +0.000 C 
ATOM      9  C   UNL     1       0.894  11.912  18.787  0.00  0.00    +0.000 C 
ATOM     10  C   UNL     1       0.654  10.721  19.743  0.00  0.00    +0.000 C 
ENDROOT
BRANCH   1  16
ATOM     11  C   UNL     1       4.857   6.091  17.454  0.00  0.00    +0.000 A 
ATOM     12  C   UNL     1       5.546   4.965  16.971  0.00  0.00    +0.000 A 
ATOM     13  C   UNL     1       4.919   3.734  16.849  0.00  0.00    +0.000 A 
ATOM     14  C   UNL     1       3.576   3.615  17.170  0.00  0.00    +0.000 A 
ATOM     15  C   UNL     1       2.820   4.702  17.644  0.00  0.00    +0.000 A 
ATOM     16  C   UNL     1       3.470   5.973  17.863  0.00  0.00    +0.000 A 
BRANCH  11  18
ATOM     17  C   UNL     1       7.131   7.428  17.390  0.00  0.00    +0.000 C 
ATOM     18  C   UNL     1       5.606   7.424  17.498  0.00  0.00    +0.000 C 
ENDBRANCH  11  18
BRANCH  15  19
ATOM     19  C   UNL     1       1.348   4.448  17.953  0.00  0.00    +0.000 C 
ATOM     20  C   UNL     1       0.986   3.560  19.143  0.00  0.00    +0.000 C 
ENDBRANCH  15  19
ENDBRANCH   1  16
BRANCH   3  21
ATOM     21  O   UNL     1       0.678   8.077  21.281  0.00  0.00    +0.000 OA
ATOM     22  C   UNL     1       1.016   8.844  22.430  0.00  0.00    +0.000 C 
ENDBRANCH   3  21
BRANCH  10  23
ATOM     23  N   UNL     1      -0.782  10.436  19.743  0.00  0.00    +0.000 N 
ATOM     24  H   UNL     1      -1.234  10.599  20.641  0.00  0.00    +0.000 HD
BRANCH  23  25
ATOM     25  C   UNL     1      -1.609  10.571  18.634  0.00  0.00    +0.000 A 
ATOM     26  C   UNL     1      -1.520   9.766  17.493  0.00  0.00    +0.000 A 
ATOM     27  N   UNL     1      -2.311   9.852  16.395  0.00  0.00    +0.000 NA
ATOM     28  C   UNL     1      -3.290  10.769  16.438  0.00  0.00    +0.000 A 
ATOM     29  C   UNL     1      -3.517  11.590  17.526  0.00  0.00    +0.000 A 
ATOM     30  C   UNL     1      -2.680  11.485  18.650  0.00  0.00    +0.000 A 
BRANCH  30  31
ATOM     31  C   UNL     1      -2.953  12.398  19.818  0.00  0.00    +0.000 C 
BRANCH  31  32
ATOM     32  O   UNL     1      -2.043  13.492  19.824  0.00  0.00    +0.000 OA
ATOM     33  H   UNL     1      -2.560  14.311  19.730  0.00  0.00    +0.000 HD
ENDBRANCH  31  32
ENDBRANCH  30  31
ENDBRANCH  23  25
ENDBRANCH  10  23
TORSDOF 8
ENDMDL
MODEL 4
REMARK VINA RESULT:      -7.8      2.285      4.387
REMARK  Name = 
REMARK  11 active torsions:
REMARK  status: ('A' for Active; 'I' for Inactive)
REMARK    1  A    between atoms: C_1  and  C_2
REMARK    2  A    between atoms: C_2  and  C_3
REMARK    3  A    between atoms: C_7  and  C_8
REMARK    4  A    between atoms: C_8  and  C_9
REMARK    5  A    between atoms: C_10  and  C_11
REMARK    6  A    between atoms: C_13  and  O_14
REMARK    7  A    between atoms: O_14  and  C_15
REMARK    8  A    between atoms: C_22  and  N_23
REMARK    9  A    between atoms: N_23  and  C_24
REMARK   10  A    between atoms: C_29  and  C_30
REMARK   11  A    between atoms: C_30  and  O_31
REMARK                            x       y       z     vdW  Elec       q    Type
REMARK                         _______ _______ _______ _____ _____    ______ ____
ROOT
ATOM      1  C   UNL     1       2.264   7.111  18.679  0.00  0.00    +0.000 A 
ATOM      2  C   UNL     1       1.577   8.026  17.893  0.00  0.00    +0.000 A 
ATOM      3  C   UNL     1       1.011   9.173  18.465  0.00  0.00    +0.000 A 
ATOM      4  C   UNL     1       1.016   9.349  19.852  0.00  0.00    +0.000 A 
ATOM      5  C   UNL     1       1.582   8.309  20.583  0.00  0.00    +0.000 A 
ATOM      6  N   UNL     1       2.254   7.284  20.014  0.00  0.00    +0.000 NA
ATOM      7  C   UNL     1       1.459   8.211  22.079  0.00  0.00    +0.000 C 
ATOM      8  C   UNL     1       0.283   9.026  22.584  0.00  0.00    +0.000 C 
ATOM      9  C   UNL     1       0.457  10.457  22.108  0.00  0.00    +0.000 C 
ATOM     10  C   UNL     1       0.446  10.558  20.565  0.00  0.00    +0.000 C 
ENDROOT
BRANCH   1  16
ATOM     11  C   UNL     1       2.434   4.568  18.348  0.00  0.00    +0.000 A 
ATOM     12  C   UNL     1       3.079   3.449  17.794  0.00  0.00    +0.000 A 
ATOM     13  C   UNL     1       4.274   3.575  17.103  0.00  0.00    +0.000 A 
ATOM     14  C   UNL     1       4.870   4.822  16.987  0.00  0.00    +0.000 A 
ATOM     15  C   UNL     1       4.289   5.982  17.529  0.00  0.00    +0.000 A 
ATOM     16  C   UNL     1       3.003   5.892  18.178  0.00  0.00    +0.000 A 
BRANCH  11  18
ATOM     17  C   UNL     1       1.251   3.870  20.601  0.00  0.00    +0.000 C 
ATOM     18  C   UNL     1       1.152   4.332  19.148  0.00  0.00    +0.000 C 
ENDBRANCH  11  18
BRANCH  15  19
ATOM     19  C   UNL     1       5.046   7.294  17.346  0.00  0.00    +0.000 C 
ATOM     20  C   UNL     1       6.572   7.262  17.276  0.00  0.00    +0.000 C 
ENDBRANCH  15  19
ENDBRANCH   1  16
BRANCH   3  21
ATOM     21  O   UNL     1       0.613  10.111  17.545  0.00  0.00    +0.000 OA
ATOM     22  C   UNL     1      -0.785  10.353  17.456  0.00  0.00    +0.000 C 
ENDBRANCH   3  21
BRANCH  10  23
ATOM     23  N   UNL     1       1.215  11.746  20.195  0.00  0.00    +0.000 N 
ATOM     24  H   UNL     1       2.101  11.537  19.738  0.00  0.00    +0.000 HD
BRANCH  23  25
ATOM     25  C   UNL     1       0.653  12.971  19.857  0.00  0.00    +0.000 A 
ATOM     26  C   UNL     1      -0.528  13.468  20.418  0.00  0.00    +0.000 A 
ATOM     27  N   UNL     1      -1.106  14.661  20.130  0.00  0.00    +0.000 NA
ATOM     28  C   UNL     1      -0.453  15.443  19.255  0.00  0.00    +0.000 A 
ATOM     29  C   UNL     1       0.748  15.091  18.670  0.00  0.00    +0.000 A 
ATOM     30  C   UNL     1       1.324  13.848  18.982  0.00  0.00    +0.000 A 
BRANCH  30  31
ATOM     31  C   UNL     1       2.633  13.494  18.323  0.00  0.00    +0.000 C 
BRANCH  31  32
ATOM     32  O   UNL     1       2.474  12.376  17.457  0.00  0.00    +0.000 OA
ATOM     33  H   UNL     1       1.839  12.624  16.763  0.00  0.00    +0.000 HD
ENDBRANCH  31  32
ENDBRANCH  30  31
ENDBRANCH  23  25
ENDBRANCH  10  23
TORSDOF 8
ENDMDL
MODEL 5
REMARK VINA RESULT:      -7.7      1.365      3.392
REMARK  Name = 
REMARK  11 active torsions:
REMARK  status: ('A' for Active; 'I' for Inactive)
REMARK    1  A    between atoms: C_1  and  C_2
REMARK    2  A    between atoms: C_2  and  C_3
REMARK    3  A    between atoms: C_7  and  C_8
REMARK    4  A    between atoms: C_8  and  C_9
REMARK    5  A    between atoms: C_10  and  C_11
REMARK    6  A    between atoms: C_13  and  O_14
REMARK    7  A    between atoms: O_14  and  C_15
REMARK    8  A    between atoms: C_22  and  N_23
REMARK    9  A    between atoms: N_23  and  C_24
REMARK   10  A    between atoms: C_29  and  C_30
REMARK   11  A    between atoms: C_30  and  O_31
REMARK                            x       y       z     vdW  Elec       q    Type
REMARK                         _______ _______ _______ _____ _____    ______ ____
ROOT
ATOM      1  C   UNL     1       2.245   6.900  19.090  0.00  0.00    +0.000 A 
ATOM      2  C   UNL     1       1.771   7.171  20.366  0.00  0.00    +0.000 A 
ATOM      3  C   UNL     1       1.223   8.423  20.672  0.00  0.00    +0.000 A 
ATOM      4  C   UNL     1       1.263   9.462  19.735  0.00  0.00    +0.000 A 
ATOM      5  C   UNL     1       1.899   9.158  18.535  0.00  0.00    +0.000 A 
ATOM      6  N   UNL     1       2.288   7.908  18.199  0.00  0.00    +0.000 NA
ATOM      7  C   UNL     1       2.249  10.208  17.518  0.00  0.00    +0.000 C 
ATOM      8  C   UNL     1       2.303  11.585  18.152  0.00  0.00    +0.000 C 
ATOM      9  C   UNL     1       0.971  11.852  18.825  0.00  0.00    +0.000 C 
ATOM     10  C   UNL     1       0.686  10.844  19.962  0.00  0.00    +0.000 C 
ENDROOT
BRANCH   1  16
ATOM     11  C   UNL     1       2.199   4.330  19.106  0.00  0.00    +0.000 A 
ATOM     12  C   UNL     1       2.620   3.098  18.577  0.00  0.00    +0.000 A 
ATOM     13  C   UNL     1       3.592   3.031  17.591  0.00  0.00    +0.000 A 
ATOM     14  C   UNL     1       4.194   4.197  17.142  0.00  0.00    +0.000 A 
ATOM     15  C   UNL     1       3.834   5.463  17.638  0.00  0.00    +0.000 A 
ATOM     16  C   UNL     1       2.765   5.567  18.602  0.00  0.00    +0.000 A 
BRANCH  11  18
ATOM     17  C   UNL     1       1.172   3.151  21.232  0.00  0.00    +0.000 C 
ATOM     18  C   UNL     1       1.167   4.310  20.235  0.00  0.00    +0.000 C 
ENDBRANCH  11  18
BRANCH  15  19
ATOM     19  C   UNL     1       4.577   6.671  17.074  0.00  0.00    +0.000 C 
ATOM     20  C   UNL     1       5.255   6.549  15.710  0.00  0.00    +0.000 C 
ENDBRANCH  15  19
ENDBRANCH   1  16
BRANCH   3  21
ATOM     21  O   UNL     1       0.552   8.456  21.869  0.00  0.00    +0.000 OA
ATOM     22  C   UNL     1       1.127   9.259  22.892  0.00  0.00    +0.000 C 
ENDBRANCH   3  21
BRANCH  10  23
ATOM     23  N   UNL     1      -0.767  10.743  20.111  0.00  0.00    +0.000 N 
ATOM     24  H   UNL     1      -1.105   9.788  20.210  0.00  0.00    +0.000 HD
BRANCH  23  25
ATOM     25  C   UNL     1      -1.564  11.715  20.702  0.00  0.00    +0.000 A 
ATOM     26  C   UNL     1      -1.279  12.314  21.935  0.00  0.00    +0.000 A 
ATOM     27  N   UNL     1      -2.019  13.273  22.544  0.00  0.00    +0.000 NA
ATOM     28  C   UNL     1      -3.098  13.708  21.873  0.00  0.00    +0.000 A 
ATOM     29  C   UNL     1      -3.459  13.236  20.625  0.00  0.00    +0.000 A 
ATOM     30  C   UNL     1      -2.678  12.239  20.018  0.00  0.00    +0.000 A 
BRANCH  30  31
ATOM     31  C   UNL     1      -3.103  11.743  18.658  0.00  0.00    +0.000 C 
BRANCH  31  32
ATOM     32  O   UNL     1      -2.194  12.184  17.656  0.00  0.00    +0.000 OA
ATOM     33  H   UNL     1      -2.613  12.042  16.790  0.00  0.00    +0.000 HD
ENDBRANCH  31  32
ENDBRANCH  30  31
ENDBRANCH  23  25
ENDBRANCH  10  23
TORSDOF 8
ENDMDL
MODEL 6
REMARK VINA RESULT:      -7.6      1.336      2.262
REMARK  Name = 
REMARK  11 active torsions:
REMARK  status: ('A' for Active; 'I' for Inactive)
REMARK    1  A    between atoms: C_1  and  C_2
REMARK    2  A    between atoms: C_2  and  C_3
REMARK    3  A    between atoms: C_7  and  C_8
REMARK    4  A    between atoms: C_8  and  C_9
REMARK    5  A    between atoms: C_10  and  C_11
REMARK    6  A    between atoms: C_13  and  O_14
REMARK    7  A    between atoms: O_14  and  C_15
REMARK    8  A    between atoms: C_22  and  N_23
REMARK    9  A    between atoms: N_23  and  C_24
REMARK   10  A    between atoms: C_29  and  C_30
REMARK   11  A    between atoms: C_30  and  O_31
REMARK                            x       y       z     vdW  Elec       q    Type
REMARK                         _______ _______ _______ _____ _____    ______ ____
ROOT
ATOM      1  C   UNL     1       2.333   6.794  19.091  0.00  0.00    +0.000 A 
ATOM      2  C   UNL     1       1.882   7.072  20.374  0.00  0.00    +0.000 A 
ATOM      3  C   UNL     1       1.325   8.322  20.678  0.00  0.00    +0.000 A 
ATOM      4  C   UNL     1       1.334   9.351  19.730  0.00  0.00    +0.000 A 
ATOM      5  C   UNL     1       1.950   9.043  18.521  0.00  0.00    +0.000 A 
ATOM      6  N   UNL     1       2.347   7.794  18.189  0.00  0.00    +0.000 NA
ATOM      7  C   UNL     1       2.267  10.087  17.486  0.00  0.00    +0.000 C 
ATOM      8  C   UNL     1       2.318  11.470  18.105  0.00  0.00    +0.000 C 
ATOM      9  C   UNL     1       0.995  11.728  18.803  0.00  0.00    +0.000 C 
ATOM     10  C   UNL     1       0.745  10.728  19.955  0.00  0.00    +0.000 C 
ENDROOT
BRANCH   1  16
ATOM     11  C   UNL     1       3.975   5.409  17.679  0.00  0.00    +0.000 A 
ATOM     12  C   UNL     1       4.521   4.169  17.309  0.00  0.00    +0.000 A 
ATOM     13  C   UNL     1       4.000   2.978  17.791  0.00  0.00    +0.000 A 
ATOM     14  C   UNL     1       2.892   3.004  18.624  0.00  0.00    +0.000 A 
ATOM     15  C   UNL     1       2.284   4.207  19.024  0.00  0.00    +0.000 A 
ATOM     16  C   UNL     1       2.860   5.463  18.606  0.00  0.00    +0.000 A 
BRANCH  11  18
ATOM     17  C   UNL     1       5.174   6.595  15.650  0.00  0.00    +0.000 C 
ATOM     18  C   UNL     1       4.572   6.671  17.053  0.00  0.00    +0.000 C 
ENDBRANCH  11  18
BRANCH  15  19
ATOM     19  C   UNL     1       1.063   4.105  19.934  0.00  0.00    +0.000 C 
ATOM     20  C   UNL     1       1.098   3.128  21.108  0.00  0.00    +0.000 C 
ENDBRANCH  15  19
ENDBRANCH   1  16
BRANCH   3  21
ATOM     21  O   UNL     1       0.678   8.358  21.888  0.00  0.00    +0.000 OA
ATOM     22  C   UNL     1       1.235   9.219  22.874  0.00  0.00    +0.000 C 
ENDBRANCH   3  21
BRANCH  10  23
ATOM     23  N   UNL     1      -0.702  10.612  20.134  0.00  0.00    +0.000 N 
ATOM     24  H   UNL     1      -1.025   9.657  20.278  0.00  0.00    +0.000 HD
BRANCH  23  25
ATOM     25  C   UNL     1      -1.505  11.595  20.701  0.00  0.00    +0.000 A 
ATOM     26  C   UNL     1      -1.262  12.174  21.952  0.00  0.00    +0.000 A 
ATOM     27  N   UNL     1      -2.008  13.143  22.538  0.00  0.00    +0.000 NA
ATOM     28  C   UNL     1      -3.046  13.608  21.825  0.00  0.00    +0.000 A 
ATOM     29  C   UNL     1      -3.361  13.157  20.558  0.00  0.00    +0.000 A 
ATOM     30  C   UNL     1      -2.575  12.150  19.974  0.00  0.00    +0.000 A 
BRANCH  30  31
ATOM     31  C   UNL     1      -2.950  11.678  18.591  0.00  0.00    +0.000 C 
BRANCH  31  32
ATOM     32  O   UNL     1      -2.069  12.225  17.618  0.00  0.00    +0.000 OA
ATOM     33  H   UNL     1      -2.605  12.722  16.975  0.00  0.00    +0.000 HD
ENDBRANCH  31  32
ENDBRANCH  30  31
ENDBRANCH  23  25
ENDBRANCH  10  23
TORSDOF 8
ENDMDL
MODEL 7
REMARK VINA RESULT:      -7.5      2.737      4.588
REMARK  Name = 
REMARK  11 active torsions:
REMARK  status: ('A' for Active; 'I' for Inactive)
REMARK    1  A    between atoms: C_1  and  C_2
REMARK    2  A    between atoms: C_2  and  C_3
REMARK    3  A    between atoms: C_7  and  C_8
REMARK    4  A    between atoms: C_8  and  C_9
REMARK    5  A    between atoms: C_10  and  C_11
REMARK    6  A    between atoms: C_13  and  O_14
REMARK    7  A    between atoms: O_14  and  C_15
REMARK    8  A    between atoms: C_22  and  N_23
REMARK    9  A    between atoms: N_23  and  C_24
REMARK   10  A    between atoms: C_29  and  C_30
REMARK   11  A    between atoms: C_30  and  O_31
REMARK                            x       y       z     vdW  Elec       q    Type
REMARK                         _______ _______ _______ _____ _____    ______ ____
ROOT
ATOM      1  C   UNL     1       2.662   7.194  18.411  0.00  0.00    +0.000 A 
ATOM      2  C   UNL     1       2.287   8.306  17.670  0.00  0.00    +0.000 A 
ATOM      3  C   UNL     1       1.635   9.384  18.283  0.00  0.00    +0.000 A 
ATOM      4  C   UNL     1       1.235   9.301  19.622  0.00  0.00    +0.000 A 
ATOM      5  C   UNL     1       1.505   8.090  20.251  0.00  0.00    +0.000 A 
ATOM      6  N   UNL     1       2.265   7.120  19.695  0.00  0.00    +0.000 NA
ATOM      7  C   UNL     1       0.938   7.734  21.597  0.00  0.00    +0.000 C 
ATOM      8  C   UNL     1      -0.293   8.565  21.907  0.00  0.00    +0.000 C 
ATOM      9  C   UNL     1       0.086  10.031  21.806  0.00  0.00    +0.000 C 
ATOM     10  C   UNL     1       0.540  10.414  20.379  0.00  0.00    +0.000 C 
ENDROOT
BRANCH   1  16
ATOM     11  C   UNL     1       2.836   4.707  17.785  0.00  0.00    +0.000 A 
ATOM     12  C   UNL     1       3.549   3.638  17.216  0.00  0.00    +0.000 A 
ATOM     13  C   UNL     1       4.855   3.794  16.779  0.00  0.00    +0.000 A 
ATOM     14  C   UNL     1       5.489   5.017  16.939  0.00  0.00    +0.000 A 
ATOM     15  C   UNL     1       4.843   6.125  17.514  0.00  0.00    +0.000 A 
ATOM     16  C   UNL     1       3.456   6.014  17.898  0.00  0.00    +0.000 A 
BRANCH  11  18
ATOM     17  C   UNL     1       1.236   3.656  19.602  0.00  0.00    +0.000 C 
ATOM     18  C   UNL     1       1.421   4.432  18.298  0.00  0.00    +0.000 C 
ENDBRANCH  11  18
BRANCH  15  19
ATOM     19  C   UNL     1       5.649   7.414  17.646  0.00  0.00    +0.000 C 
ATOM     20  C   UNL     1       7.171   7.348  17.518  0.00  0.00    +0.000 C 
ENDBRANCH  15  19
ENDBRANCH   1  16
BRANCH   3  21
ATOM     21  O   UNL     1       1.577  10.511  17.503  0.00  0.00    +0.000 OA
ATOM     22  C   UNL     1       2.725  11.350  17.522  0.00  0.00    +0.000 C 
ENDBRANCH   3  21
BRANCH  10  23
ATOM     23  N   UNL     1       1.443  11.559  20.494  0.00  0.00    +0.000 N 
ATOM     24  H   UNL     1       2.429  11.313  20.441  0.00  0.00    +0.000 HD
BRANCH  23  25
ATOM     25  C   UNL     1       1.134  12.847  20.074  0.00  0.00    +0.000 A 
ATOM     26  C   UNL     1      -0.027  13.180  19.368  0.00  0.00    +0.000 A 
ATOM     27  N   UNL     1      -0.376  14.422  18.949  0.00  0.00    +0.000 NA
ATOM     28  C   UNL     1       0.457  15.419  19.286  0.00  0.00    +0.000 A 
ATOM     29  C   UNL     1       1.609  15.231  20.026  0.00  0.00    +0.000 A 
ATOM     30  C   UNL     1       1.951  13.933  20.444  0.00  0.00    +0.000 A 
BRANCH  30  31
ATOM     31  C   UNL     1       3.216  13.763  21.246  0.00  0.00    +0.000 C 
BRANCH  31  32
ATOM     32  O   UNL     1       3.193  14.589  22.404  0.00  0.00    +0.000 OA
ATOM     33  H   UNL     1       3.884  14.274  23.010  0.00  0.00    +0.000 HD
ENDBRANCH  31  32
ENDBRANCH  30  31
ENDBRANCH  23  25
ENDBRANCH  10  23
TORSDOF 8
ENDMDL
MODEL 8
REMARK VINA RESULT:      -7.5      2.200      3.610
REMARK  Name = 
REMARK  11 active torsions:
REMARK  status: ('A' for Active; 'I' for Inactive)
REMARK    1  A    between atoms: C_1  and  C_2
REMARK    2  A    between atoms: C_2  and  C_3
REMARK    3  A    between atoms: C_7  and  C_8
REMARK    4  A    between atoms: C_8  and  C_9
REMARK    5  A    between atoms: C_10  and  C_11
REMARK    6  A    between atoms: C_13  and  O_14
REMARK    7  A    between atoms: O_14  and  C_15
REMARK    8  A    between atoms: C_22  and  N_23
REMARK    9  A    between atoms: N_23  and  C_24
REMARK   10  A    between atoms: C_29  and  C_30
REMARK   11  A    between atoms: C_30  and  O_31
REMARK                            x       y       z     vdW  Elec       q    Type
REMARK                         _______ _______ _______ _____ _____    ______ ____
ROOT
ATOM      1  C   UNL     1       2.209   7.166  19.412  0.00  0.00    +0.000 A 
ATOM      2  C   UNL     1       1.603   7.968  18.454  0.00  0.00    +0.000 A 
ATOM      3  C   UNL     1       0.984   9.171  18.819  0.00  0.00    +0.000 A 
ATOM      4  C   UNL     1       0.852   9.518  20.168  0.00  0.00    +0.000 A 
ATOM      5  C   UNL     1       1.343   8.584  21.075  0.00  0.00    +0.000 A 
ATOM      6  N   UNL     1       2.068   7.504  20.707  0.00  0.00    +0.000 NA
ATOM      7  C   UNL     1       1.073   8.672  22.552  0.00  0.00    +0.000 C 
ATOM      8  C   UNL     1      -0.147   9.529  22.833  0.00  0.00    +0.000 C 
ATOM      9  C   UNL     1       0.073  10.891  22.202  0.00  0.00    +0.000 C 
ATOM     10  C   UNL     1       0.214  10.799  20.665  0.00  0.00    +0.000 C 
ENDROOT
BRANCH   1  16
ATOM     11  C   UNL     1       4.068   5.902  18.168  0.00  0.00    +0.000 A 
ATOM     12  C   UNL     1       4.857   4.752  17.993  0.00  0.00    +0.000 A 
ATOM     13  C   UNL     1       4.616   3.596  18.718  0.00  0.00    +0.000 A 
ATOM     14  C   UNL     1       3.552   3.553  19.606  0.00  0.00    +0.000 A 
ATOM     15  C   UNL     1       2.712   4.661  19.820  0.00  0.00    +0.000 A 
ATOM     16  C   UNL     1       2.994   5.903  19.142  0.00  0.00    +0.000 A 
BRANCH  11  18
ATOM     17  C   UNL     1       4.999   6.900  15.909  0.00  0.00    +0.000 C 
ATOM     18  C   UNL     1       4.364   7.114  17.283  0.00  0.00    +0.000 C 
ENDBRANCH  11  18
BRANCH  15  19
ATOM     19  C   UNL     1       1.568   4.488  20.814  0.00  0.00    +0.000 C 
ATOM     20  C   UNL     1       1.235   3.085  21.320  0.00  0.00    +0.000 C 
ENDBRANCH  15  19
ENDBRANCH   1  16
BRANCH   3  21
ATOM     21  O   UNL     1       0.679   9.981  17.755  0.00  0.00    +0.000 OA
ATOM     22  C   UNL     1      -0.704  10.184  17.493  0.00  0.00    +0.000 C 
ENDBRANCH   3  21
BRANCH  10  23
ATOM     23  N   UNL     1       1.017  11.941  20.226  0.00  0.00    +0.000 N 
ATOM     24  H   UNL     1       1.872  11.681  19.739  0.00  0.00    +0.000 HD
BRANCH  23  25
ATOM     25  C   UNL     1       0.493  13.180  19.874  0.00  0.00    +0.000 A 
ATOM     26  C   UNL     1      -0.666  13.725  20.439  0.00  0.00    +0.000 A 
ATOM     27  N   UNL     1      -1.205  14.932  20.138  0.00  0.00    +0.000 NA
ATOM     28  C   UNL     1      -0.535  15.678  19.245  0.00  0.00    +0.000 A 
ATOM     29  C   UNL     1       0.648  15.276  18.654  0.00  0.00    +0.000 A 
ATOM     30  C   UNL     1       1.185  14.019  18.980  0.00  0.00    +0.000 A 
BRANCH  30  31
ATOM     31  C   UNL     1       2.474  13.611  18.314  0.00  0.00    +0.000 C 
BRANCH  31  32
ATOM     32  O   UNL     1       2.263  12.504  17.445  0.00  0.00    +0.000 OA
ATOM     33  H   UNL     1       1.703  12.805  16.708  0.00  0.00    +0.000 HD
ENDBRANCH  31  32
ENDBRANCH  30  31
ENDBRANCH  23  25
ENDBRANCH  10  23
TORSDOF 8
ENDMDL
MODEL 9
REMARK VINA RESULT:      -7.4      2.431      4.410
REMARK  Name = 
REMARK  11 active torsions:
REMARK  status: ('A' for Active; 'I' for Inactive)
REMARK    1  A    between atoms: C_1  and  C_2
REMARK    2  A    between atoms: C_2  and  C_3
REMARK    3  A    between atoms: C_7  and  C_8
REMARK    4  A    between atoms: C_8  and  C_9
REMARK    5  A    between atoms: C_10  and  C_11
REMARK    6  A    between atoms: C_13  and  O_14
REMARK    7  A    between atoms: O_14  and  C_15
REMARK    8  A    between atoms: C_22  and  N_23
REMARK    9  A    between atoms: N_23  and  C_24
REMARK   10  A    between atoms: C_29  and  C_30
REMARK   11  A    between atoms: C_30  and  O_31
REMARK                            x       y       z     vdW  Elec       q    Type
REMARK                         _______ _______ _______ _____ _____    ______ ____
ROOT
ATOM      1  C   UNL     1       2.748   7.207  18.345  0.00  0.00    +0.000 A 
ATOM      2  C   UNL     1       2.362   8.317  17.608  0.00  0.00    +0.000 A 
ATOM      3  C   UNL     1       1.678   9.376  18.220  0.00  0.00    +0.000 A 
ATOM      4  C   UNL     1       1.259   9.273  19.551  0.00  0.00    +0.000 A 
ATOM      5  C   UNL     1       1.544   8.062  20.174  0.00  0.00    +0.000 A 
ATOM      6  N   UNL     1       2.332   7.113  19.622  0.00  0.00    +0.000 NA
ATOM      7  C   UNL     1       0.963   7.683  21.508  0.00  0.00    +0.000 C 
ATOM      8  C   UNL     1      -0.288   8.487  21.806  0.00  0.00    +0.000 C 
ATOM      9  C   UNL     1       0.061   9.961  21.724  0.00  0.00    +0.000 C 
ATOM     10  C   UNL     1       0.529  10.365  20.307  0.00  0.00    +0.000 C 
ENDROOT
BRANCH   1  16
ATOM     11  C   UNL     1       2.980   4.731  17.697  0.00  0.00    +0.000 A 
ATOM     12  C   UNL     1       3.724   3.681  17.131  0.00  0.00    +0.000 A 
ATOM     13  C   UNL     1       5.034   3.867  16.718  0.00  0.00    +0.000 A 
ATOM     14  C   UNL     1       5.642   5.100  16.903  0.00  0.00    +0.000 A 
ATOM     15  C   UNL     1       4.964   6.190  17.477  0.00  0.00    +0.000 A 
ATOM     16  C   UNL     1       3.573   6.048  17.835  0.00  0.00    +0.000 A 
BRANCH  11  18
ATOM     17  C   UNL     1       1.179   2.979  18.504  0.00  0.00    +0.000 C 
ATOM     18  C   UNL     1       1.563   4.423  18.182  0.00  0.00    +0.000 C 
ENDBRANCH  11  18
BRANCH  15  19
ATOM     19  C   UNL     1       5.743   7.492  17.637  0.00  0.00    +0.000 C 
ATOM     20  C   UNL     1       7.264   7.464  17.493  0.00  0.00    +0.000 C 
ENDBRANCH  15  19
ENDBRANCH   1  16
BRANCH   3  21
ATOM     21  O   UNL     1       1.609  10.509  17.449  0.00  0.00    +0.000 OA
ATOM     22  C   UNL     1       2.665  11.447  17.611  0.00  0.00    +0.000 C 
ENDBRANCH   3  21
BRANCH  10  23
ATOM     23  N   UNL     1       1.407  11.528  20.446  0.00  0.00    +0.000 N 
ATOM     24  H   UNL     1       2.326  11.403  20.025  0.00  0.00    +0.000 HD
BRANCH  23  25
ATOM     25  C   UNL     1       0.963  12.843  20.511  0.00  0.00    +0.000 A 
ATOM     26  C   UNL     1       1.575  13.834  21.286  0.00  0.00    +0.000 A 
ATOM     27  N   UNL     1       1.187  15.131  21.371  0.00  0.00    +0.000 NA
ATOM     28  C   UNL     1       0.144  15.491  20.605  0.00  0.00    +0.000 A 
ATOM     29  C   UNL     1      -0.513  14.621  19.757  0.00  0.00    +0.000 A 
ATOM     30  C   UNL     1      -0.094  13.281  19.691  0.00  0.00    +0.000 A 
BRANCH  30  31
ATOM     31  C   UNL     1      -0.836  12.357  18.758  0.00  0.00    +0.000 C 
BRANCH  31  32
ATOM     32  O   UNL     1      -0.986  12.952  17.475  0.00  0.00    +0.000 OA
ATOM     33  H   UNL     1      -0.961  13.918  17.588  0.00  0.00    +0.000 HD
ENDBRANCH  31  32
ENDBRANCH  30  31
ENDBRANCH  23  25
ENDBRANCH  10  23
TORSDOF 8
ENDMDL
