MODEL 1
REMARK VINA RESULT:      -8.3      0.000      0.000
REMARK  Name = 
REMARK  4 active torsions:
REMARK  status: ('A' for Active; 'I' for Inactive)
REMARK    1  A    between atoms: C_2  and  O_3
REMARK    2  A    between atoms: C_2  and  C_13
REMARK    3  A    between atoms: O_3  and  C_4
REMARK    4  A    between atoms: C_4  and  C_5
REMARK                            x       y       z     vdW  Elec       q    Type
REMARK                         _______ _______ _______ _____ _____    ______ ____
ROOT
ATOM      1  O   UNL     1       4.977   4.958  18.908  0.00  0.00    +0.000 OA
ATOM      2  C   UNL     1       4.766   5.454  17.809  0.00  0.00    +0.000 C 
ENDROOT
BRANCH   2   3
ATOM      3  C   UNL     1       5.607   5.227  16.605  0.00  0.00    +0.000 A 
ATOM      4  C   UNL     1       5.047   4.534  15.598  0.00  0.00    +0.000 A 
ATOM      5  C   UNL     1       5.771   4.315  14.352  0.00  0.00    +0.000 A 
ATOM      6  C   UNL     1       5.276   3.517  13.318  0.00  0.00    +0.000 A 
ATOM      7  C   UNL     1       5.998   3.387  12.124  0.00  0.00    +0.000 A 
ATOM      8  C   UNL     1       7.208   4.063  11.952  0.00  0.00    +0.000 A 
ATOM      9  C   UNL     1       7.713   4.853  12.984  0.00  0.00    +0.000 A 
ATOM     10  C   UNL     1       6.991   4.955  14.173  0.00  0.00    +0.000 A 
ATOM     11  O   UNL     1       7.561   5.708  15.210  0.00  0.00    +0.000 OA
ATOM     12  C   UNL     1       6.984   5.758  16.480  0.00  0.00    +0.000 A 
ATOM     13  O   UNL     1       7.623   6.214  17.421  0.00  0.00    +0.000 OA
ENDBRANCH   2   3
BRANCH   2  14
ATOM     14  O   UNL     1       3.690   6.226  17.507  0.00  0.00    +0.000 OA
BRANCH  14  15
ATOM     15  C   UNL     1       2.583   6.137  18.406  0.00  0.00    +0.000 C 
BRANCH  15  16
ATOM     16  C   UNL     1       1.846   4.802  18.238  0.00  0.00    +0.000 C 
ATOM     17  O   UNL     1       1.660   4.320  17.117  0.00  0.00    +0.000 OA
ATOM     18  N   UNL     1       1.419   4.157  19.385  0.00  0.00    +0.000 N 
ATOM     19  C   UNL     1       1.499   4.666  20.757  0.00  0.00    +0.000 C 
ATOM     20  C   UNL     1       2.245   3.668  21.649  0.00  0.00    +0.000 C 
ATOM     21  O   UNL     1       1.660   2.358  21.569  0.00  0.00    +0.000 OA
ATOM     22  C   UNL     1       1.672   1.869  20.216  0.00  0.00    +0.000 C 
ATOM     23  C   UNL     1       0.878   2.800  19.294  0.00  0.00    +0.000 C 
ENDBRANCH  15  16
ENDBRANCH  14  15
ENDBRANCH   2  14
TORSDOF 4
ENDMDL
MODEL 2
REMARK VINA RESULT:      -7.8      1.546      2.073
REMARK  Name = 
REMARK  4 active torsions:
REMARK  status: ('A' for Active; 'I' for Inactive)
REMARK    1  A    between atoms: C_2  and  O_3
REMARK    2  A    between atoms: C_2  and  C_13
REMARK    3  A    between atoms: O_3  and  C_4
REMARK    4  A    between atoms: C_4  and  C_5
REMARK                            x       y       z     vdW  Elec       q    Type
REMARK                         _______ _______ _______ _____ _____    ______ ____
ROOT
ATOM      1  O   UNL     1       4.030   7.151  17.251  0.00  0.00    +0.000 OA
ATOM      2  C   UNL     1       4.946   6.345  17.354  0.00  0.00    +0.000 C 
ENDROOT
BRANCH   2   3
ATOM      3  C   UNL     1       5.701   5.775  16.208  0.00  0.00    +0.000 A 
ATOM      4  C   UNL     1       5.005   5.020  15.340  0.00  0.00    +0.000 A 
ATOM      5  C   UNL     1       5.644   4.470  14.152  0.00  0.00    +0.000 A 
ATOM      6  C   UNL     1       4.995   3.598  13.277  0.00  0.00    +0.000 A 
ATOM      7  C   UNL     1       5.648   3.143  12.123  0.00  0.00    +0.000 A 
ATOM      8  C   UNL     1       6.946   3.568  11.833  0.00  0.00    +0.000 A 
ATOM      9  C   UNL     1       7.605   4.431  12.708  0.00  0.00    +0.000 A 
ATOM     10  C   UNL     1       6.947   4.857  13.861  0.00  0.00    +0.000 A 
ATOM     11  O   UNL     1       7.664   5.675  14.748  0.00  0.00    +0.000 OA
ATOM     12  C   UNL     1       7.142   6.040  15.989  0.00  0.00    +0.000 A 
ATOM     13  O   UNL     1       7.876   6.541  16.834  0.00  0.00    +0.000 OA
ENDBRANCH   2   3
BRANCH   2  14
ATOM     14  O   UNL     1       5.459   5.910  18.534  0.00  0.00    +0.000 OA
BRANCH  14  15
ATOM     15  C   UNL     1       4.522   5.348  19.455  0.00  0.00    +0.000 C 
BRANCH  15  16
ATOM     16  C   UNL     1       4.426   3.827  19.281  0.00  0.00    +0.000 C 
ATOM     17  O   UNL     1       5.279   3.080  19.768  0.00  0.00    +0.000 OA
ATOM     18  N   UNL     1       3.344   3.330  18.577  0.00  0.00    +0.000 N 
ATOM     19  C   UNL     1       2.321   4.112  17.877  0.00  0.00    +0.000 C 
ATOM     20  C   UNL     1       0.925   3.727  18.379  0.00  0.00    +0.000 C 
ATOM     21  O   UNL     1       0.710   2.309  18.285  0.00  0.00    +0.000 OA
ATOM     22  C   UNL     1       1.693   1.587  19.047  0.00  0.00    +0.000 C 
ATOM     23  C   UNL     1       3.106   1.886  18.537  0.00  0.00    +0.000 C 
ENDBRANCH  15  16
ENDBRANCH  14  15
ENDBRANCH   2  14
TORSDOF 4
ENDMDL
MODEL 3
REMARK VINA RESULT:      -7.7      1.431      2.228
REMARK  Name = 
REMARK  4 active torsions:
REMARK  status: ('A' for Active; 'I' for Inactive)
REMARK    1  A    between atoms: C_2  and  O_3
REMARK    2  A    between atoms: C_2  and  C_13
REMARK    3  A    between atoms: O_3  and  C_4
REMARK    4  A    between atoms: C_4  and  C_5
REMARK                            x       y       z     vdW  Elec       q    Type
REMARK                         _______ _______ _______ _____ _____    ______ ____
ROOT
ATOM      1  O   UNL     1       3.929   5.482  17.868  0.00  0.00    +0.000 OA
ATOM      2  C   UNL     1       4.930   4.796  17.699  0.00  0.00    +0.000 C 
ENDROOT
BRANCH   2   3
ATOM      3  C   UNL     1       5.759   4.803  16.465  0.00  0.00    +0.000 A 
ATOM      4  C   UNL     1       5.267   4.143  15.401  0.00  0.00    +0.000 A 
ATOM      5  C   UNL     1       5.978   4.147  14.129  0.00  0.00    +0.000 A 
ATOM      6  C   UNL     1       5.565   3.395  13.028  0.00  0.00    +0.000 A 
ATOM      7  C   UNL     1       6.263   3.481  11.816  0.00  0.00    +0.000 A 
ATOM      8  C   UNL     1       7.367   4.327  11.695  0.00  0.00    +0.000 A 
ATOM      9  C   UNL     1       7.792   5.073  12.794  0.00  0.00    +0.000 A 
ATOM     10  C   UNL     1       7.097   4.960  13.998  0.00  0.00    +0.000 A 
ATOM     11  O   UNL     1       7.592   5.678  15.097  0.00  0.00    +0.000 OA
ATOM     12  C   UNL     1       7.049   5.525  16.373  0.00  0.00    +0.000 A 
ATOM     13  O   UNL     1       7.649   5.969  17.346  0.00  0.00    +0.000 OA
ENDBRANCH   2   3
BRANCH   2  14
ATOM     14  O   UNL     1       5.474   3.984  18.640  0.00  0.00    +0.000 OA
BRANCH  14  15
ATOM     15  C   UNL     1       5.005   2.634  18.651  0.00  0.00    +0.000 C 
BRANCH  15  16
ATOM     16  C   UNL     1       4.308   2.307  19.978  0.00  0.00    +0.000 C 
ATOM     17  O   UNL     1       4.960   1.939  20.960  0.00  0.00    +0.000 OA
ATOM     18  N   UNL     1       2.934   2.456  20.034  0.00  0.00    +0.000 N 
ATOM     19  C   UNL     1       2.044   2.795  18.920  0.00  0.00    +0.000 C 
ATOM     20  C   UNL     1       1.211   4.035  19.265  0.00  0.00    +0.000 C 
ATOM     21  O   UNL     1       0.514   3.864  20.510  0.00  0.00    +0.000 OA
ATOM     22  C   UNL     1       1.433   3.608  21.586  0.00  0.00    +0.000 C 
ATOM     23  C   UNL     1       2.244   2.335  21.319  0.00  0.00    +0.000 C 
ENDBRANCH  15  16
ENDBRANCH  14  15
ENDBRANCH   2  14
TORSDOF 4
ENDMDL
MODEL 4
REMARK VINA RESULT:      -7.6      1.321      1.723
REMARK  Name = 
REMARK  4 active torsions:
REMARK  status: ('A' for Active; 'I' for Inactive)
REMARK    1  A    between atoms: C_2  and  O_3
REMARK    2  A    between atoms: C_2  and  C_13
REMARK    3  A    between atoms: O_3  and  C_4
REMARK    4  A    between atoms: C_4  and  C_5
REMARK                            x       y       z     vdW  Elec       q    Type
REMARK                         _______ _______ _______ _____ _____    ______ ____
ROOT
ATOM      1  O   UNL     1       3.997   6.873  17.379  0.00  0.00    +0.000 OA
ATOM      2  C   UNL     1       4.671   5.852  17.347  0.00  0.00    +0.000 C 
ENDROOT
BRANCH   2   3
ATOM      3  C   UNL     1       5.517   5.434  16.199  0.00  0.00    +0.000 A 
ATOM      4  C   UNL     1       4.916   4.717  15.233  0.00  0.00    +0.000 A 
ATOM      5  C   UNL     1       5.647   4.316  14.038  0.00  0.00    +0.000 A 
ATOM      6  C   UNL     1       5.101   3.487  13.057  0.00  0.00    +0.000 A 
ATOM      7  C   UNL     1       5.838   3.179  11.906  0.00  0.00    +0.000 A 
ATOM      8  C   UNL     1       7.117   3.708  11.723  0.00  0.00    +0.000 A 
ATOM      9  C   UNL     1       7.674   4.528  12.704  0.00  0.00    +0.000 A 
ATOM     10  C   UNL     1       6.934   4.808  13.852  0.00  0.00    +0.000 A 
ATOM     11  O   UNL     1       7.551   5.586  14.843  0.00  0.00    +0.000 OA
ATOM     12  C   UNL     1       6.946   5.806  16.081  0.00  0.00    +0.000 A 
ATOM     13  O   UNL     1       7.603   6.274  17.004  0.00  0.00    +0.000 OA
ENDBRANCH   2   3
BRANCH   2  14
ATOM     14  O   UNL     1       4.806   4.986  18.384  0.00  0.00    +0.000 OA
BRANCH  14  15
ATOM     15  C   UNL     1       4.430   5.485  19.670  0.00  0.00    +0.000 C 
BRANCH  15  16
ATOM     16  C   UNL     1       2.942   5.231  19.944  0.00  0.00    +0.000 C 
ATOM     17  O   UNL     1       2.155   6.172  20.077  0.00  0.00    +0.000 OA
ATOM     18  N   UNL     1       2.520   3.916  20.016  0.00  0.00    +0.000 N 
ATOM     19  C   UNL     1       3.366   2.720  19.966  0.00  0.00    +0.000 C 
ATOM     20  C   UNL     1       2.894   1.785  18.847  0.00  0.00    +0.000 C 
ATOM     21  O   UNL     1       1.496   1.479  18.977  0.00  0.00    +0.000 OA
ATOM     22  C   UNL     1       0.701   2.677  18.946  0.00  0.00    +0.000 C 
ATOM     23  C   UNL     1       1.088   3.618  20.091  0.00  0.00    +0.000 C 
ENDBRANCH  15  16
ENDBRANCH  14  15
ENDBRANCH   2  14
TORSDOF 4
ENDMDL
MODEL 5
REMARK VINA RESULT:      -7.6      1.293      1.554
REMARK  Name = 
REMARK  4 active torsions:
REMARK  status: ('A' for Active; 'I' for Inactive)
REMARK    1  A    between atoms: C_2  and  O_3
REMARK    2  A    between atoms: C_2  and  C_13
REMARK    3  A    between atoms: O_3  and  C_4
REMARK    4  A    between atoms: C_4  and  C_5
REMARK                            x       y       z     vdW  Elec       q    Type
REMARK                         _______ _______ _______ _____ _____    ______ ____
ROOT
ATOM      1  O   UNL     1       6.027   3.959  19.154  0.00  0.00    +0.000 OA
ATOM      2  C   UNL     1       5.595   4.646  18.237  0.00  0.00    +0.000 C 
ENDROOT
BRANCH   2   3
ATOM      3  C   UNL     1       6.220   4.750  16.893  0.00  0.00    +0.000 A 
ATOM      4  C   UNL     1       5.694   3.984  15.920  0.00  0.00    +0.000 A 
ATOM      5  C   UNL     1       6.199   4.063  14.556  0.00  0.00    +0.000 A 
ATOM      6  C   UNL     1       5.759   3.219  13.535  0.00  0.00    +0.000 A 
ATOM      7  C   UNL     1       6.247   3.379  12.230  0.00  0.00    +0.000 A 
ATOM      8  C   UNL     1       7.163   4.391  11.938  0.00  0.00    +0.000 A 
ATOM      9  C   UNL     1       7.614   5.232  12.955  0.00  0.00    +0.000 A 
ATOM     10  C   UNL     1       7.134   5.045  14.250  0.00  0.00    +0.000 A 
ATOM     11  O   UNL     1       7.658   5.870  15.257  0.00  0.00    +0.000 OA
ATOM     12  C   UNL     1       7.343   5.670  16.602  0.00  0.00    +0.000 A 
ATOM     13  O   UNL     1       7.996   6.238  17.470  0.00  0.00    +0.000 OA
ENDBRANCH   2   3
BRANCH   2  14
ATOM     14  O   UNL     1       4.439   5.356  18.287  0.00  0.00    +0.000 OA
BRANCH  14  15
ATOM     15  C   UNL     1       4.050   5.830  19.579  0.00  0.00    +0.000 C 
BRANCH  15  16
ATOM     16  C   UNL     1       2.576   5.508  19.859  0.00  0.00    +0.000 C 
ATOM     17  O   UNL     1       1.729   6.406  19.893  0.00  0.00    +0.000 OA
ATOM     18  N   UNL     1       2.236   4.182  20.052  0.00  0.00    +0.000 N 
ATOM     19  C   UNL     1       3.156   3.043  20.126  0.00  0.00    +0.000 C 
ATOM     20  C   UNL     1       2.763   1.977  19.097  0.00  0.00    +0.000 C 
ATOM     21  O   UNL     1       1.385   1.596  19.241  0.00  0.00    +0.000 OA
ATOM     22  C   UNL     1       0.517   2.732  19.087  0.00  0.00    +0.000 C 
ATOM     23  C   UNL     1       0.825   3.801  20.140  0.00  0.00    +0.000 C 
ENDBRANCH  15  16
ENDBRANCH  14  15
ENDBRANCH   2  14
TORSDOF 4
ENDMDL
MODEL 6
REMARK VINA RESULT:      -7.5      2.552      3.514
REMARK  Name = 
REMARK  4 active torsions:
REMARK  status: ('A' for Active; 'I' for Inactive)
REMARK    1  A    between atoms: C_2  and  O_3
REMARK    2  A    between atoms: C_2  and  C_13
REMARK    3  A    between atoms: O_3  and  C_4
REMARK    4  A    between atoms: C_4  and  C_5
REMARK                            x       y       z     vdW  Elec       q    Type
REMARK                         _______ _______ _______ _____ _____    ______ ____
ROOT
ATOM      1  O   UNL     1       4.639   4.665  19.020  0.00  0.00    +0.000 OA
ATOM      2  C   UNL     1       4.475   5.242  17.952  0.00  0.00    +0.000 C 
ENDROOT
BRANCH   2   3
ATOM      3  C   UNL     1       5.387   5.130  16.784  0.00  0.00    +0.000 A 
ATOM      4  C   UNL     1       4.925   4.451  15.718  0.00  0.00    +0.000 A 
ATOM      5  C   UNL     1       5.722   4.343  14.503  0.00  0.00    +0.000 A 
ATOM      6  C   UNL     1       5.335   3.566  13.410  0.00  0.00    +0.000 A 
ATOM      7  C   UNL     1       6.121   3.542  12.250  0.00  0.00    +0.000 A 
ATOM      8  C   UNL     1       7.288   4.305  12.171  0.00  0.00    +0.000 A 
ATOM      9  C   UNL     1       7.686   5.076  13.263  0.00  0.00    +0.000 A 
ATOM     10  C   UNL     1       6.903   5.071  14.417  0.00  0.00    +0.000 A 
ATOM     11  O   UNL     1       7.368   5.809  15.515  0.00  0.00    +0.000 OA
ATOM     12  C   UNL     1       6.728   5.758  16.754  0.00  0.00    +0.000 A 
ATOM     13  O   UNL     1       7.288   6.210  17.747  0.00  0.00    +0.000 OA
ENDBRANCH   2   3
BRANCH   2  14
ATOM     14  O   UNL     1       3.396   6.009  17.650  0.00  0.00    +0.000 OA
BRANCH  14  15
ATOM     15  C   UNL     1       2.754   6.651  18.754  0.00  0.00    +0.000 C 
BRANCH  15  16
ATOM     16  C   UNL     1       2.311   8.071  18.380  0.00  0.00    +0.000 C 
ATOM     17  O   UNL     1       2.484   8.507  17.238  0.00  0.00    +0.000 OA
ATOM     18  N   UNL     1       1.697   8.829  19.361  0.00  0.00    +0.000 N 
ATOM     19  C   UNL     1       1.517   8.462  20.768  0.00  0.00    +0.000 C 
ATOM     20  C   UNL     1       0.035   8.545  21.151  0.00  0.00    +0.000 C 
ATOM     21  O   UNL     1      -0.514   9.834  20.833  0.00  0.00    +0.000 OA
ATOM     22  C   UNL     1      -0.381  10.120  19.429  0.00  0.00    +0.000 C 
ATOM     23  C   UNL     1       1.092  10.115  19.009  0.00  0.00    +0.000 C 
ENDBRANCH  15  16
ENDBRANCH  14  15
ENDBRANCH   2  14
TORSDOF 4
ENDMDL
MODEL 7
REMARK VINA RESULT:      -7.5      2.518      3.843
REMARK  Name = 
REMARK  4 active torsions:
REMARK  status: ('A' for Active; 'I' for Inactive)
REMARK    1  A    between atoms: C_2  and  O_3
REMARK    2  A    between atoms: C_2  and  C_13
REMARK    3  A    between atoms: O_3  and  C_4
REMARK    4  A    between atoms: C_4  and  C_5
REMARK                            x       y       z     vdW  Elec       q    Type
REMARK                         _______ _______ _______ _____ _____    ______ ____
ROOT
ATOM      1  O   UNL     1       5.202   4.941  19.036  0.00  0.00    +0.000 OA
ATOM      2  C   UNL     1       4.856   5.314  17.922  0.00  0.00    +0.000 C 
ENDROOT
BRANCH   2   3
ATOM      3  C   UNL     1       5.669   5.153  16.688  0.00  0.00    +0.000 A 
ATOM      4  C   UNL     1       5.115   4.446  15.687  0.00  0.00    +0.000 A 
ATOM      5  C   UNL     1       5.809   4.288  14.415  0.00  0.00    +0.000 A 
ATOM      6  C   UNL     1       5.327   3.482  13.383  0.00  0.00    +0.000 A 
ATOM      7  C   UNL     1       6.015   3.411  12.165  0.00  0.00    +0.000 A 
ATOM      8  C   UNL     1       7.179   4.156  11.967  0.00  0.00    +0.000 A 
ATOM      9  C   UNL     1       7.673   4.956  12.996  0.00  0.00    +0.000 A 
ATOM     10  C   UNL     1       6.986   4.999  14.209  0.00  0.00    +0.000 A 
ATOM     11  O   UNL     1       7.547   5.765  15.241  0.00  0.00    +0.000 OA
ATOM     12  C   UNL     1       7.010   5.762  16.529  0.00  0.00    +0.000 A 
ATOM     13  O   UNL     1       7.653   6.238  17.458  0.00  0.00    +0.000 OA
ENDBRANCH   2   3
BRANCH   2  14
ATOM     14  O   UNL     1       3.648   5.862  17.635  0.00  0.00    +0.000 OA
BRANCH  14  15
ATOM     15  C   UNL     1       3.505   7.253  17.928  0.00  0.00    +0.000 C 
BRANCH  15  16
ATOM     16  C   UNL     1       2.447   7.479  19.015  0.00  0.00    +0.000 C 
ATOM     17  O   UNL     1       2.318   6.680  19.947  0.00  0.00    +0.000 OA
ATOM     18  N   UNL     1       1.662   8.614  18.920  0.00  0.00    +0.000 N 
ATOM     19  C   UNL     1       1.656   9.585  17.822  0.00  0.00    +0.000 C 
ATOM     20  C   UNL     1       1.913  10.996  18.361  0.00  0.00    +0.000 C 
ATOM     21  O   UNL     1       0.991  11.330  19.411  0.00  0.00    +0.000 OA
ATOM     22  C   UNL     1       1.085  10.393  20.499  0.00  0.00    +0.000 C 
ATOM     23  C   UNL     1       0.768   8.971  20.023  0.00  0.00    +0.000 C 
ENDBRANCH  15  16
ENDBRANCH  14  15
ENDBRANCH   2  14
TORSDOF 4
ENDMDL
MODEL 8
REMARK VINA RESULT:      -7.4      2.857      7.048
REMARK  Name = 
REMARK  4 active torsions:
REMARK  status: ('A' for Active; 'I' for Inactive)
REMARK    1  A    between atoms: C_2  and  O_3
REMARK    2  A    between atoms: C_2  and  C_13
REMARK    3  A    between atoms: O_3  and  C_4
REMARK    4  A    between atoms: C_4  and  C_5
REMARK                            x       y       z     vdW  Elec       q    Type
REMARK                         _______ _______ _______ _____ _____    ______ ____
ROOT
ATOM      1  O   UNL     1       2.070   3.912  17.220  0.00  0.00    +0.000 OA
ATOM      2  C   UNL     1       2.829   4.544  17.944  0.00  0.00    +0.000 C 
ENDROOT
BRANCH   2   3
ATOM      3  C   UNL     1       2.458   5.780  18.681  0.00  0.00    +0.000 A 
ATOM      4  C   UNL     1       2.362   6.910  17.957  0.00  0.00    +0.000 A 
ATOM      5  C   UNL     1       1.944   8.159  18.580  0.00  0.00    +0.000 A 
ATOM      6  C   UNL     1       1.928   9.377  17.898  0.00  0.00    +0.000 A 
ATOM      7  C   UNL     1       1.466  10.535  18.538  0.00  0.00    +0.000 A 
ATOM      8  C   UNL     1       1.006  10.479  19.855  0.00  0.00    +0.000 A 
ATOM      9  C   UNL     1       1.029   9.268  20.546  0.00  0.00    +0.000 A 
ATOM     10  C   UNL     1       1.510   8.130  19.900  0.00  0.00    +0.000 A 
ATOM     11  O   UNL     1       1.576   6.944  20.646  0.00  0.00    +0.000 OA
ATOM     12  C   UNL     1       2.167   5.789  20.133  0.00  0.00    +0.000 A 
ATOM     13  O   UNL     1       2.429   4.855  20.883  0.00  0.00    +0.000 OA
ENDBRANCH   2   3
BRANCH   2  14
ATOM     14  O   UNL     1       4.098   4.167  18.243  0.00  0.00    +0.000 OA
BRANCH  14  15
ATOM     15  C   UNL     1       4.931   3.833  17.130  0.00  0.00    +0.000 C 
BRANCH  15  16
ATOM     16  C   UNL     1       5.558   5.091  16.516  0.00  0.00    +0.000 C 
ATOM     17  O   UNL     1       4.993   5.695  15.600  0.00  0.00    +0.000 OA
ATOM     18  N   UNL     1       6.761   5.528  17.039  0.00  0.00    +0.000 N 
ATOM     19  C   UNL     1       7.571   4.852  18.057  0.00  0.00    +0.000 C 
ATOM     20  C   UNL     1       7.837   5.797  19.235  0.00  0.00    +0.000 C 
ATOM     21  O   UNL     1       8.413   7.036  18.790  0.00  0.00    +0.000 OA
ATOM     22  C   UNL     1       7.551   7.698  17.849  0.00  0.00    +0.000 C 
ATOM     23  C   UNL     1       7.308   6.819  16.618  0.00  0.00    +0.000 C 
ENDBRANCH  15  16
ENDBRANCH  14  15
ENDBRANCH   2  14
TORSDOF 4
ENDMDL
MODEL 9
REMARK VINA RESULT:      -7.3      1.361      2.179
REMARK  Name = 
REMARK  4 active torsions:
REMARK  status: ('A' for Active; 'I' for Inactive)
REMARK    1  A    between atoms: C_2  and  O_3
REMARK    2  A    between atoms: C_2  and  C_13
REMARK    3  A    between atoms: O_3  and  C_4
REMARK    4  A    between atoms: C_4  and  C_5
REMARK                            x       y       z     vdW  Elec       q    Type
REMARK                         _______ _______ _______ _____ _____    ______ ____
ROOT
ATOM      1  O   UNL     1       5.155   4.575  18.819  0.00  0.00    +0.000 OA
ATOM      2  C   UNL     1       5.121   3.924  17.782  0.00  0.00    +0.000 C 
ENDROOT
BRANCH   2   3
ATOM      3  C   UNL     1       5.931   4.223  16.572  0.00  0.00    +0.000 A 
ATOM      4  C   UNL     1       5.496   3.706  15.409  0.00  0.00    +0.000 A 
ATOM      5  C   UNL     1       6.188   3.996  14.160  0.00  0.00    +0.000 A 
ATOM      6  C   UNL     1       5.839   3.404  12.945  0.00  0.00    +0.000 A 
ATOM      7  C   UNL     1       6.511   3.762  11.769  0.00  0.00    +0.000 A 
ATOM      8  C   UNL     1       7.524   4.723  11.799  0.00  0.00    +0.000 A 
ATOM      9  C   UNL     1       7.885   5.312  13.010  0.00  0.00    +0.000 A 
ATOM     10  C   UNL     1       7.219   4.928  14.174  0.00  0.00    +0.000 A 
ATOM     11  O   UNL     1       7.652   5.496  15.382  0.00  0.00    +0.000 OA
ATOM     12  C   UNL     1       7.142   5.075  16.611  0.00  0.00    +0.000 A 
ATOM     13  O   UNL     1       7.705   5.407  17.648  0.00  0.00    +0.000 OA
ENDBRANCH   2   3
BRANCH   2  14
ATOM     14  O   UNL     1       4.396   2.790  17.608  0.00  0.00    +0.000 OA
BRANCH  14  15
ATOM     15  C   UNL     1       3.011   2.971  17.308  0.00  0.00    +0.000 C 
BRANCH  15  16
ATOM     16  C   UNL     1       2.181   3.083  18.593  0.00  0.00    +0.000 C 
ATOM     17  O   UNL     1       1.943   2.086  19.281  0.00  0.00    +0.000 OA
ATOM     18  N   UNL     1       1.730   4.339  18.957  0.00  0.00    +0.000 N 
ATOM     19  C   UNL     1       1.867   5.577  18.184  0.00  0.00    +0.000 C 
ATOM     20  C   UNL     1       2.558   6.654  19.028  0.00  0.00    +0.000 C 
ATOM     21  O   UNL     1       1.883   6.847  20.282  0.00  0.00    +0.000 OA
ATOM     22  C   UNL     1       1.838   5.624  21.037  0.00  0.00    +0.000 C 
ATOM     23  C   UNL     1       1.095   4.531  20.262  0.00  0.00    +0.000 C 
ENDBRANCH  15  16
ENDBRANCH  14  15
ENDBRANCH   2  14
TORSDOF 4
ENDMDL
