MODEL 1
REMARK VINA RESULT:      -8.5      0.000      0.000
REMARK  Name = 
REMARK  7 active torsions:
REMARK  status: ('A' for Active; 'I' for Inactive)
REMARK    1  A    between atoms: C_1  and  C_2
REMARK    2  A    between atoms: C_5  and  S_6
REMARK    3  A    between atoms: S_6  and  C_9
REMARK    4  A    between atoms: N_11  and  C_12
REMARK    5  A    between atoms: C_12  and  C_13
REMARK    6  A    between atoms: N_15  and  C_16
REMARK    7  A    between atoms: C_28  and  C_29
REMARK                            x       y       z     vdW  Elec       q    Type
REMARK                         _______ _______ _______ _____ _____    ______ ____
ROOT
ATOM      1  C   UNL     1       0.936  12.584  19.665  0.00  0.00    +0.000 A 
ATOM      2  C   UNL     1       2.052  13.090  20.229  0.00  0.00    +0.000 A 
ATOM      3  N   UNL     1       2.572  14.356  19.995  0.00  0.00    +0.000 N 
ATOM      4  C   UNL     1       1.495  15.300  19.897  0.00  0.00    +0.000 A 
ATOM      5  C   UNL     1       1.532  16.473  20.640  0.00  0.00    +0.000 A 
ATOM      6  C   UNL     1       0.647  17.489  20.326  0.00  0.00    +0.000 A 
ATOM      7  C   UNL     1      -0.195  17.364  19.210  0.00  0.00    +0.000 A 
ATOM      8  C   UNL     1      -0.827  18.631  18.699  0.00  0.00    +0.000 C 
ATOM      9  C   UNL     1      -0.340  16.103  18.577  0.00  0.00    +0.000 A 
ATOM     10  C   UNL     1       0.420  15.021  19.037  0.00  0.00    +0.000 A 
ATOM     11  C   UNL     1       0.186  13.534  18.763  0.00  0.00    +0.000 A 
ATOM     12  O   UNL     1      -0.548  13.146  17.868  0.00  0.00    +0.000 OA
ENDROOT
BRANCH   1  13
ATOM     13  S   UNL     1       0.416  11.156  20.446  0.00  0.00    +0.000 S 
ATOM     14  O   UNL     1      -1.048  11.198  20.469  0.00  0.00    +0.000 OA
ATOM     15  O   UNL     1       1.112  11.066  21.721  0.00  0.00    +0.000 OA
BRANCH  13  20
ATOM     16  C   UNL     1       3.372   6.492  18.070  0.00  0.00    +0.000 C 
ATOM     17  C   UNL     1       2.434   7.550  18.580  0.00  0.00    +0.000 A 
ATOM     18  C   UNL     1       2.002   8.602  17.759  0.00  0.00    +0.000 A 
ATOM     19  C   UNL     1       1.221   9.645  18.280  0.00  0.00    +0.000 A 
ATOM     20  C   UNL     1       0.852   9.630  19.633  0.00  0.00    +0.000 A 
ATOM     21  C   UNL     1       1.272   8.570  20.448  0.00  0.00    +0.000 A 
ATOM     22  C   UNL     1       2.061   7.542  19.926  0.00  0.00    +0.000 A 
ENDBRANCH  13  20
ENDBRANCH   1  13
BRANCH   3  23
ATOM     23  C   UNL     1       3.297  14.479  18.666  0.00  0.00    +0.000 C 
BRANCH  23  24
ATOM     24  C   UNL     1       4.782  14.714  18.826  0.00  0.00    +0.000 C 
ATOM     25  O   UNL     1       5.257  14.947  19.938  0.00  0.00    +0.000 OA
ATOM     26  N   UNL     1       5.513  14.566  17.662  0.00  0.00    +0.000 N 
ATOM     27  H   UNL     1       5.042  14.847  16.809  0.00  0.00    +0.000 HD
BRANCH  26  28
ATOM     28  C   UNL     1       6.905  14.457  17.686  0.00  0.00    +0.000 A 
ATOM     29  C   UNL     1       7.688  15.615  17.853  0.00  0.00    +0.000 A 
ATOM     30  C   UNL     1       9.075  15.511  18.004  0.00  0.00    +0.000 A 
ATOM     31  C   UNL     1       9.636  14.250  17.930  0.00  0.00    +0.000 A 
ATOM     32  C   UNL     1       8.876  13.129  17.685  0.00  0.00    +0.000 A 
ATOM     33  C   UNL     1       7.511  13.201  17.558  0.00  0.00    +0.000 A 
ATOM     34  O   UNL     1       9.618  11.995  17.627  0.00  0.00    +0.000 OA
ATOM     35  C   UNL     1      10.882  12.500  18.095  0.00  0.00    +0.000 C 
ATOM     36  O   UNL     1      10.949  13.944  18.102  0.00  0.00    +0.000 OA
ENDBRANCH  26  28
ENDBRANCH  23  24
ENDBRANCH   3  23
TORSDOF 5
ENDMDL
MODEL 2
REMARK VINA RESULT:      -8.4      5.414     10.029
REMARK  Name = 
REMARK  7 active torsions:
REMARK  status: ('A' for Active; 'I' for Inactive)
REMARK    1  A    between atoms: C_1  and  C_2
REMARK    2  A    between atoms: C_5  and  S_6
REMARK    3  A    between atoms: S_6  and  C_9
REMARK    4  A    between atoms: N_11  and  C_12
REMARK    5  A    between atoms: C_12  and  C_13
REMARK    6  A    between atoms: N_15  and  C_16
REMARK    7  A    between atoms: C_28  and  C_29
REMARK                            x       y       z     vdW  Elec       q    Type
REMARK                         _______ _______ _______ _____ _____    ______ ____
ROOT
ATOM      1  C   UNL     1       4.698   5.558  16.927  0.00  0.00    +0.000 A 
ATOM      2  C   UNL     1       4.558   6.669  17.679  0.00  0.00    +0.000 A 
ATOM      3  N   UNL     1       3.505   6.928  18.546  0.00  0.00    +0.000 N 
ATOM      4  C   UNL     1       3.144   5.718  19.230  0.00  0.00    +0.000 A 
ATOM      5  C   UNL     1       3.019   5.716  20.612  0.00  0.00    +0.000 A 
ATOM      6  C   UNL     1       2.402   4.639  21.223  0.00  0.00    +0.000 A 
ATOM      7  C   UNL     1       1.825   3.626  20.441  0.00  0.00    +0.000 A 
ATOM      8  C   UNL     1       0.846   2.716  21.132  0.00  0.00    +0.000 C 
ATOM      9  C   UNL     1       2.114   3.560  19.053  0.00  0.00    +0.000 A 
ATOM     10  C   UNL     1       2.913   4.555  18.478  0.00  0.00    +0.000 A 
ATOM     11  C   UNL     1       3.634   4.508  17.129  0.00  0.00    +0.000 A 
ATOM     12  O   UNL     1       3.355   3.684  16.272  0.00  0.00    +0.000 OA
ENDROOT
BRANCH   1  13
ATOM     13  S   UNL     1       6.268   5.430  16.263  0.00  0.00    +0.000 S 
ATOM     14  O   UNL     1       6.934   4.331  16.965  0.00  0.00    +0.000 OA
ATOM     15  O   UNL     1       6.887   6.746  16.324  0.00  0.00    +0.000 OA
BRANCH  13  20
ATOM     16  C   UNL     1       7.198   2.724  10.977  0.00  0.00    +0.000 C 
ATOM     17  C   UNL     1       6.879   3.584  12.167  0.00  0.00    +0.000 A 
ATOM     18  C   UNL     1       7.773   4.562  12.625  0.00  0.00    +0.000 A 
ATOM     19  C   UNL     1       7.514   5.276  13.805  0.00  0.00    +0.000 A 
ATOM     20  C   UNL     1       6.341   5.023  14.528  0.00  0.00    +0.000 A 
ATOM     21  C   UNL     1       5.440   4.056  14.061  0.00  0.00    +0.000 A 
ATOM     22  C   UNL     1       5.710   3.339  12.893  0.00  0.00    +0.000 A 
ENDBRANCH  13  20
ENDBRANCH   1  13
BRANCH   3  23
ATOM     23  C   UNL     1       2.229   7.354  17.842  0.00  0.00    +0.000 C 
BRANCH  23  24
ATOM     24  C   UNL     1       1.822   8.773  18.167  0.00  0.00    +0.000 C 
ATOM     25  O   UNL     1       2.048   9.682  17.368  0.00  0.00    +0.000 OA
ATOM     26  N   UNL     1       1.136   8.912  19.359  0.00  0.00    +0.000 N 
ATOM     27  H   UNL     1       1.413   8.278  20.101  0.00  0.00    +0.000 HD
BRANCH  26  28
ATOM     28  C   UNL     1       0.439  10.083  19.667  0.00  0.00    +0.000 A 
ATOM     29  C   UNL     1      -0.807  10.327  19.059  0.00  0.00    +0.000 A 
ATOM     30  C   UNL     1      -1.575  11.430  19.448  0.00  0.00    +0.000 A 
ATOM     31  C   UNL     1      -1.042  12.281  20.398  0.00  0.00    +0.000 A 
ATOM     32  C   UNL     1       0.212  12.083  20.930  0.00  0.00    +0.000 A 
ATOM     33  C   UNL     1       0.975  10.996  20.583  0.00  0.00    +0.000 A 
ATOM     34  O   UNL     1       0.558  13.040  21.826  0.00  0.00    +0.000 OA
ATOM     35  C   UNL     1      -0.704  13.718  21.968  0.00  0.00    +0.000 C 
ATOM     36  O   UNL     1      -1.654  13.369  20.936  0.00  0.00    +0.000 OA
ENDBRANCH  26  28
ENDBRANCH  23  24
ENDBRANCH   3  23
TORSDOF 5
ENDMDL
MODEL 3
REMARK VINA RESULT:      -8.3      4.055      7.738
REMARK  Name = 
REMARK  7 active torsions:
REMARK  status: ('A' for Active; 'I' for Inactive)
REMARK    1  A    between atoms: C_1  and  C_2
REMARK    2  A    between atoms: C_5  and  S_6
REMARK    3  A    between atoms: S_6  and  C_9
REMARK    4  A    between atoms: N_11  and  C_12
REMARK    5  A    between atoms: C_12  and  C_13
REMARK    6  A    between atoms: N_15  and  C_16
REMARK    7  A    between atoms: C_28  and  C_29
REMARK                            x       y       z     vdW  Elec       q    Type
REMARK                         _______ _______ _______ _____ _____    ______ ____
ROOT
ATOM      1  C   UNL     1       1.011  12.767  20.123  0.00  0.00    +0.000 A 
ATOM      2  C   UNL     1       1.350  11.826  19.217  0.00  0.00    +0.000 A 
ATOM      3  N   UNL     1       0.527  10.801  18.771  0.00  0.00    +0.000 N 
ATOM      4  C   UNL     1      -0.809  11.301  18.611  0.00  0.00    +0.000 A 
ATOM      5  C   UNL     1      -1.497  11.072  17.427  0.00  0.00    +0.000 A 
ATOM      6  C   UNL     1      -2.860  11.303  17.393  0.00  0.00    +0.000 A 
ATOM      7  C   UNL     1      -3.539  11.663  18.569  0.00  0.00    +0.000 A 
ATOM      8  C   UNL     1      -5.036  11.511  18.555  0.00  0.00    +0.000 C 
ATOM      9  C   UNL     1      -2.800  12.058  19.713  0.00  0.00    +0.000 A 
ATOM     10  C   UNL     1      -1.402  12.010  19.669  0.00  0.00    +0.000 A 
ATOM     11  C   UNL     1      -0.415  12.700  20.613  0.00  0.00    +0.000 A 
ATOM     12  O   UNL     1      -0.758  13.151  21.694  0.00  0.00    +0.000 OA
ENDROOT
BRANCH   1  13
ATOM     13  S   UNL     1       2.135  14.053  20.161  0.00  0.00    +0.000 S 
ATOM     14  O   UNL     1       3.251  13.662  19.297  0.00  0.00    +0.000 OA
ATOM     15  O   UNL     1       2.429  14.348  21.555  0.00  0.00    +0.000 OA
BRANCH  13  20
ATOM     16  C   UNL     1      -0.144  18.428  16.726  0.00  0.00    +0.000 C 
ATOM     17  C   UNL     1       0.459  17.508  17.749  0.00  0.00    +0.000 A 
ATOM     18  C   UNL     1       1.849  17.362  17.875  0.00  0.00    +0.000 A 
ATOM     19  C   UNL     1       2.394  16.414  18.754  0.00  0.00    +0.000 A 
ATOM     20  C   UNL     1       1.545  15.613  19.529  0.00  0.00    +0.000 A 
ATOM     21  C   UNL     1       0.157  15.771  19.414  0.00  0.00    +0.000 A 
ATOM     22  C   UNL     1      -0.380  16.707  18.528  0.00  0.00    +0.000 A 
ENDBRANCH  13  20
ENDBRANCH   1  13
BRANCH   3  23
ATOM     23  C   UNL     1       0.383   9.662  19.765  0.00  0.00    +0.000 C 
BRANCH  23  24
ATOM     24  C   UNL     1       1.464   8.615  19.621  0.00  0.00    +0.000 C 
ATOM     25  O   UNL     1       1.891   8.023  20.613  0.00  0.00    +0.000 OA
ATOM     26  N   UNL     1       1.839   8.356  18.317  0.00  0.00    +0.000 N 
ATOM     27  H   UNL     1       1.812   9.151  17.686  0.00  0.00    +0.000 HD
BRANCH  26  28
ATOM     28  C   UNL     1       2.597   7.230  17.986  0.00  0.00    +0.000 A 
ATOM     29  C   UNL     1       3.927   7.393  17.553  0.00  0.00    +0.000 A 
ATOM     30  C   UNL     1       4.739   6.274  17.338  0.00  0.00    +0.000 A 
ATOM     31  C   UNL     1       4.172   5.026  17.516  0.00  0.00    +0.000 A 
ATOM     32  C   UNL     1       2.849   4.871  17.862  0.00  0.00    +0.000 A 
ATOM     33  C   UNL     1       2.038   5.952  18.101  0.00  0.00    +0.000 A 
ATOM     34  O   UNL     1       2.483   3.568  17.964  0.00  0.00    +0.000 OA
ATOM     35  C   UNL     1       3.775   2.939  17.877  0.00  0.00    +0.000 C 
ATOM     36  O   UNL     1       4.810   3.831  17.406  0.00  0.00    +0.000 OA
ENDBRANCH  26  28
ENDBRANCH  23  24
ENDBRANCH   3  23
TORSDOF 5
ENDMDL
MODEL 4
REMARK VINA RESULT:      -8.2      3.913      7.335
REMARK  Name = 
REMARK  7 active torsions:
REMARK  status: ('A' for Active; 'I' for Inactive)
REMARK    1  A    between atoms: C_1  and  C_2
REMARK    2  A    between atoms: C_5  and  S_6
REMARK    3  A    between atoms: S_6  and  C_9
REMARK    4  A    between atoms: N_11  and  C_12
REMARK    5  A    between atoms: C_12  and  C_13
REMARK    6  A    between atoms: N_15  and  C_16
REMARK    7  A    between atoms: C_28  and  C_29
REMARK                            x       y       z     vdW  Elec       q    Type
REMARK                         _______ _______ _______ _____ _____    ______ ____
ROOT
ATOM      1  C   UNL     1       1.316  12.723  19.827  0.00  0.00    +0.000 A 
ATOM      2  C   UNL     1       1.169  11.771  18.881  0.00  0.00    +0.000 A 
ATOM      3  N   UNL     1       0.097  10.896  18.777  0.00  0.00    +0.000 N 
ATOM      4  C   UNL     1      -1.118  11.595  19.086  0.00  0.00    +0.000 A 
ATOM      5  C   UNL     1      -2.204  11.509  18.225  0.00  0.00    +0.000 A 
ATOM      6  C   UNL     1      -3.441  11.944  18.667  0.00  0.00    +0.000 A 
ATOM      7  C   UNL     1      -3.601  12.363  19.997  0.00  0.00    +0.000 A 
ATOM      8  C   UNL     1      -5.013  12.438  20.514  0.00  0.00    +0.000 C 
ATOM      9  C   UNL     1      -2.457  12.607  20.800  0.00  0.00    +0.000 A 
ATOM     10  C   UNL     1      -1.188  12.351  20.267  0.00  0.00    +0.000 A 
ATOM     11  C   UNL     1       0.160  12.855  20.788  0.00  0.00    +0.000 A 
ATOM     12  O   UNL     1       0.291  13.318  21.910  0.00  0.00    +0.000 OA
ENDROOT
BRANCH   1  13
ATOM     13  S   UNL     1       2.563  13.825  19.437  0.00  0.00    +0.000 S 
ATOM     14  O   UNL     1       3.242  13.291  18.255  0.00  0.00    +0.000 OA
ATOM     15  O   UNL     1       3.359  14.039  20.637  0.00  0.00    +0.000 OA
BRANCH  13  20
ATOM     16  C   UNL     1       0.305  18.631  16.620  0.00  0.00    +0.000 C 
ATOM     17  C   UNL     1       0.929  17.585  17.500  0.00  0.00    +0.000 A 
ATOM     18  C   UNL     1       2.310  17.341  17.481  0.00  0.00    +0.000 A 
ATOM     19  C   UNL     1       2.863  16.284  18.220  0.00  0.00    +0.000 A 
ATOM     20  C   UNL     1       2.031  15.469  19.001  0.00  0.00    +0.000 A 
ATOM     21  C   UNL     1       0.653  15.724  19.031  0.00  0.00    +0.000 A 
ATOM     22  C   UNL     1       0.107  16.769  18.282  0.00  0.00    +0.000 A 
ENDBRANCH  13  20
ENDBRANCH   1  13
BRANCH   3  23
ATOM     23  C   UNL     1       0.140   9.760  19.784  0.00  0.00    +0.000 C 
BRANCH  23  24
ATOM     24  C   UNL     1       1.358   8.879  19.626  0.00  0.00    +0.000 C 
ATOM     25  O   UNL     1       1.964   8.473  20.618  0.00  0.00    +0.000 OA
ATOM     26  N   UNL     1       1.648   8.534  18.319  0.00  0.00    +0.000 N 
ATOM     27  H   UNL     1       1.435   9.240  17.621  0.00  0.00    +0.000 HD
BRANCH  26  28
ATOM     28  C   UNL     1       2.543   7.505  18.018  0.00  0.00    +0.000 A 
ATOM     29  C   UNL     1       2.181   6.171  18.288  0.00  0.00    +0.000 A 
ATOM     30  C   UNL     1       3.011   5.121  17.879  0.00  0.00    +0.000 A 
ATOM     31  C   UNL     1       4.202   5.448  17.260  0.00  0.00    +0.000 A 
ATOM     32  C   UNL     1       4.589   6.755  17.071  0.00  0.00    +0.000 A 
ATOM     33  C   UNL     1       3.783   7.803  17.440  0.00  0.00    +0.000 A 
ATOM     34  O   UNL     1       5.799   6.862  16.467  0.00  0.00    +0.000 OA
ATOM     35  C   UNL     1       6.012   5.488  16.090  0.00  0.00    +0.000 C 
ATOM     36  O   UNL     1       5.109   4.573  16.751  0.00  0.00    +0.000 OA
ENDBRANCH  26  28
ENDBRANCH  23  24
ENDBRANCH   3  23
TORSDOF 5
ENDMDL
MODEL 5
REMARK VINA RESULT:      -8.2      5.559      7.950
REMARK  Name = 
REMARK  7 active torsions:
REMARK  status: ('A' for Active; 'I' for Inactive)
REMARK    1  A    between atoms: C_1  and  C_2
REMARK    2  A    between atoms: C_5  and  S_6
REMARK    3  A    between atoms: S_6  and  C_9
REMARK    4  A    between atoms: N_11  and  C_12
REMARK    5  A    between atoms: C_12  and  C_13
REMARK    6  A    between atoms: N_15  and  C_16
REMARK    7  A    between atoms: C_28  and  C_29
REMARK                            x       y       z     vdW  Elec       q    Type
REMARK                         _______ _______ _______ _____ _____    ______ ____
ROOT
ATOM      1  C   UNL     1      -1.750  11.111  18.453  0.00  0.00    +0.000 A 
ATOM      2  C   UNL     1      -1.523  10.206  19.428  0.00  0.00    +0.000 A 
ATOM      3  N   UNL     1      -0.603  10.344  20.458  0.00  0.00    +0.000 N 
ATOM      4  C   UNL     1      -0.608  11.703  20.921  0.00  0.00    +0.000 A 
ATOM      5  C   UNL     1      -0.723  11.971  22.278  0.00  0.00    +0.000 A 
ATOM      6  C   UNL     1      -0.442  13.248  22.731  0.00  0.00    +0.000 A 
ATOM      7  C   UNL     1       0.049  14.215  21.839  0.00  0.00    +0.000 A 
ATOM      8  C   UNL     1       0.698  15.427  22.451  0.00  0.00    +0.000 C 
ATOM      9  C   UNL     1      -0.007  13.975  20.442  0.00  0.00    +0.000 A 
ATOM     10  C   UNL     1      -0.486  12.742  19.984  0.00  0.00    +0.000 A 
ATOM     11  C   UNL     1      -0.962  12.393  18.572  0.00  0.00    +0.000 A 
ATOM     12  O   UNL     1      -0.709  13.098  17.608  0.00  0.00    +0.000 OA
ENDROOT
BRANCH   1  13
ATOM     13  S   UNL     1      -3.178  10.766  17.580  0.00  0.00    +0.000 S 
ATOM     14  O   UNL     1      -3.289   9.308  17.516  0.00  0.00    +0.000 OA
ATOM     15  O   UNL     1      -3.119  11.497  16.322  0.00  0.00    +0.000 OA
BRANCH  13  20
ATOM     16  C   UNL     1      -7.816  11.763  21.271  0.00  0.00    +0.000 C 
ATOM     17  C   UNL     1      -6.772  11.660  20.195  0.00  0.00    +0.000 A 
ATOM     18  C   UNL     1      -6.894  10.739  19.143  0.00  0.00    +0.000 A 
ATOM     19  C   UNL     1      -5.857  10.573  18.211  0.00  0.00    +0.000 A 
ATOM     20  C   UNL     1      -4.693  11.345  18.319  0.00  0.00    +0.000 A 
ATOM     21  C   UNL     1      -4.580  12.276  19.361  0.00  0.00    +0.000 A 
ATOM     22  C   UNL     1      -5.609  12.427  20.293  0.00  0.00    +0.000 A 
ENDBRANCH  13  20
ENDBRANCH   1  13
BRANCH   3  23
ATOM     23  C   UNL     1       0.833  10.102  20.026  0.00  0.00    +0.000 C 
BRANCH  23  24
ATOM     24  C   UNL     1       1.400   8.809  20.566  0.00  0.00    +0.000 C 
ATOM     25  O   UNL     1       1.272   8.524  21.757  0.00  0.00    +0.000 OA
ATOM     26  N   UNL     1       1.976   7.994  19.610  0.00  0.00    +0.000 N 
ATOM     27  H   UNL     1       2.439   8.473  18.845  0.00  0.00    +0.000 HD
BRANCH  26  28
ATOM     28  C   UNL     1       2.278   6.657  19.879  0.00  0.00    +0.000 A 
ATOM     29  C   UNL     1       1.363   5.873  20.607  0.00  0.00    +0.000 A 
ATOM     30  C   UNL     1       1.590   4.503  20.778  0.00  0.00    +0.000 A 
ATOM     31  C   UNL     1       2.755   3.975  20.255  0.00  0.00    +0.000 A 
ATOM     32  C   UNL     1       3.685   4.761  19.614  0.00  0.00    +0.000 A 
ATOM     33  C   UNL     1       3.476   6.102  19.412  0.00  0.00    +0.000 A 
ATOM     34  O   UNL     1       4.768   4.057  19.196  0.00  0.00    +0.000 OA
ATOM     35  C   UNL     1       4.302   2.716  19.437  0.00  0.00    +0.000 C 
ATOM     36  O   UNL     1       3.124   2.667  20.275  0.00  0.00    +0.000 OA
ENDBRANCH  26  28
ENDBRANCH  23  24
ENDBRANCH   3  23
TORSDOF 5
ENDMDL
MODEL 6
REMARK VINA RESULT:      -8.2      4.341      9.872
REMARK  Name = 
REMARK  7 active torsions:
REMARK  status: ('A' for Active; 'I' for Inactive)
REMARK    1  A    between atoms: C_1  and  C_2
REMARK    2  A    between atoms: C_5  and  S_6
REMARK    3  A    between atoms: S_6  and  C_9
REMARK    4  A    between atoms: N_11  and  C_12
REMARK    5  A    between atoms: C_12  and  C_13
REMARK    6  A    between atoms: N_15  and  C_16
REMARK    7  A    between atoms: C_28  and  C_29
REMARK                            x       y       z     vdW  Elec       q    Type
REMARK                         _______ _______ _______ _____ _____    ______ ____
ROOT
ATOM      1  C   UNL     1       5.318   5.570  18.253  0.00  0.00    +0.000 A 
ATOM      2  C   UNL     1       4.662   6.467  19.019  0.00  0.00    +0.000 A 
ATOM      3  N   UNL     1       3.285   6.531  19.186  0.00  0.00    +0.000 N 
ATOM      4  C   UNL     1       2.756   5.199  19.275  0.00  0.00    +0.000 A 
ATOM      5  C   UNL     1       1.902   4.862  20.316  0.00  0.00    +0.000 A 
ATOM      6  C   UNL     1       1.184   3.682  20.232  0.00  0.00    +0.000 A 
ATOM      7  C   UNL     1       1.248   2.904  19.066  0.00  0.00    +0.000 A 
ATOM      8  C   UNL     1       0.165   1.875  18.882  0.00  0.00    +0.000 C 
ATOM      9  C   UNL     1       2.249   3.172  18.097  0.00  0.00    +0.000 A 
ATOM     10  C   UNL     1       3.109   4.259  18.293  0.00  0.00    +0.000 A 
ATOM     11  C   UNL     1       4.446   4.526  17.599  0.00  0.00    +0.000 A 
ATOM     12  O   UNL     1       4.777   3.944  16.578  0.00  0.00    +0.000 OA
ENDROOT
BRANCH   1  13
ATOM     13  S   UNL     1       6.999   5.573  18.564  0.00  0.00    +0.000 S 
ATOM     14  O   UNL     1       7.590   4.558  17.689  0.00  0.00    +0.000 OA
ATOM     15  O   UNL     1       7.188   5.424  19.999  0.00  0.00    +0.000 OA
BRANCH  13  20
ATOM     16  C   UNL     1       8.780  11.309  18.338  0.00  0.00    +0.000 C 
ATOM     17  C   UNL     1       8.508   9.835  18.231  0.00  0.00    +0.000 A 
ATOM     18  C   UNL     1       7.679   9.315  17.226  0.00  0.00    +0.000 A 
ATOM     19  C   UNL     1       7.341   7.953  17.209  0.00  0.00    +0.000 A 
ATOM     20  C   UNL     1       7.848   7.097  18.195  0.00  0.00    +0.000 A 
ATOM     21  C   UNL     1       8.690   7.615  19.189  0.00  0.00    +0.000 A 
ATOM     22  C   UNL     1       9.011   8.974  19.209  0.00  0.00    +0.000 A 
ENDBRANCH  13  20
ENDBRANCH   1  13
BRANCH   3  23
ATOM     23  C   UNL     1       2.557   7.144  18.003  0.00  0.00    +0.000 C 
BRANCH  23  24
ATOM     24  C   UNL     1       2.092   8.558  18.267  0.00  0.00    +0.000 C 
ATOM     25  O   UNL     1       2.300   9.444  17.438  0.00  0.00    +0.000 OA
ATOM     26  N   UNL     1       1.377   8.715  19.439  0.00  0.00    +0.000 N 
ATOM     27  H   UNL     1       1.663   8.120  20.210  0.00  0.00    +0.000 HD
BRANCH  26  28
ATOM     28  C   UNL     1       0.632   9.870  19.689  0.00  0.00    +0.000 A 
ATOM     29  C   UNL     1      -0.571  10.083  18.989  0.00  0.00    +0.000 A 
ATOM     30  C   UNL     1      -1.392  11.168  19.314  0.00  0.00    +0.000 A 
ATOM     31  C   UNL     1      -0.952  12.033  20.298  0.00  0.00    +0.000 A 
ATOM     32  C   UNL     1       0.262  11.866  20.924  0.00  0.00    +0.000 A 
ATOM     33  C   UNL     1       1.075  10.796  20.640  0.00  0.00    +0.000 A 
ATOM     34  O   UNL     1       0.517  12.833  21.841  0.00  0.00    +0.000 OA
ATOM     35  C   UNL     1      -0.768  13.481  21.884  0.00  0.00    +0.000 C 
ATOM     36  O   UNL     1      -1.629  13.107  20.785  0.00  0.00    +0.000 OA
ENDBRANCH  26  28
ENDBRANCH  23  24
ENDBRANCH   3  23
TORSDOF 5
ENDMDL
MODEL 7
REMARK VINA RESULT:      -8.1      5.548      9.522
REMARK  Name = 
REMARK  7 active torsions:
REMARK  status: ('A' for Active; 'I' for Inactive)
REMARK    1  A    between atoms: C_1  and  C_2
REMARK    2  A    between atoms: C_5  and  S_6
REMARK    3  A    between atoms: S_6  and  C_9
REMARK    4  A    between atoms: N_11  and  C_12
REMARK    5  A    between atoms: C_12  and  C_13
REMARK    6  A    between atoms: N_15  and  C_16
REMARK    7  A    between atoms: C_28  and  C_29
REMARK                            x       y       z     vdW  Elec       q    Type
REMARK                         _______ _______ _______ _____ _____    ______ ____
ROOT
ATOM      1  C   UNL     1       2.126   8.132  18.659  0.00  0.00    +0.000 A 
ATOM      2  C   UNL     1       2.520   7.401  17.595  0.00  0.00    +0.000 A 
ATOM      3  N   UNL     1       2.995   6.098  17.643  0.00  0.00    +0.000 N 
ATOM      4  C   UNL     1       2.237   5.352  18.608  0.00  0.00    +0.000 A 
ATOM      5  C   UNL     1       1.695   4.122  18.260  0.00  0.00    +0.000 A 
ATOM      6  C   UNL     1       1.221   3.296  19.264  0.00  0.00    +0.000 A 
ATOM      7  C   UNL     1       1.388   3.661  20.609  0.00  0.00    +0.000 A 
ATOM      8  C   UNL     1       1.221   2.568  21.629  0.00  0.00    +0.000 C 
ATOM      9  C   UNL     1       1.781   4.985  20.933  0.00  0.00    +0.000 A 
ATOM     10  C   UNL     1       2.067   5.882  19.897  0.00  0.00    +0.000 A 
ATOM     11  C   UNL     1       2.159   7.406  19.982  0.00  0.00    +0.000 A 
ATOM     12  O   UNL     1       2.264   7.993  21.048  0.00  0.00    +0.000 OA
ENDROOT
BRANCH   1  13
ATOM     13  S   UNL     1       1.282   9.542  18.190  0.00  0.00    +0.000 S 
ATOM     14  O   UNL     1       0.253   9.119  17.238  0.00  0.00    +0.000 OA
ATOM     15  O   UNL     1       2.262  10.519  17.738  0.00  0.00    +0.000 OA
BRANCH  13  20
ATOM     16  C   UNL     1      -1.600  13.624  21.531  0.00  0.00    +0.000 C 
ATOM     17  C   UNL     1      -0.897  12.461  20.890  0.00  0.00    +0.000 A 
ATOM     18  C   UNL     1       0.477  12.244  21.071  0.00  0.00    +0.000 A 
ATOM     19  C   UNL     1       1.141  11.224  20.374  0.00  0.00    +0.000 A 
ATOM     20  C   UNL     1       0.424  10.398  19.497  0.00  0.00    +0.000 A 
ATOM     21  C   UNL     1      -0.952  10.606  19.329  0.00  0.00    +0.000 A 
ATOM     22  C   UNL     1      -1.605  11.632  20.015  0.00  0.00    +0.000 A 
ENDBRANCH  13  20
ENDBRANCH   1  13
BRANCH   3  23
ATOM     23  C   UNL     1       4.429   5.991  18.131  0.00  0.00    +0.000 C 
BRANCH  23  24
ATOM     24  C   UNL     1       5.357   5.385  17.103  0.00  0.00    +0.000 C 
ATOM     25  O   UNL     1       6.132   4.483  17.423  0.00  0.00    +0.000 OA
ATOM     26  N   UNL     1       5.189   5.875  15.822  0.00  0.00    +0.000 N 
ATOM     27  H   UNL     1       4.926   6.852  15.756  0.00  0.00    +0.000 HD
BRANCH  26  28
ATOM     28  C   UNL     1       5.746   5.227  14.716  0.00  0.00    +0.000 A 
ATOM     29  C   UNL     1       7.100   5.444  14.396  0.00  0.00    +0.000 A 
ATOM     30  C   UNL     1       7.706   4.710  13.370  0.00  0.00    +0.000 A 
ATOM     31  C   UNL     1       6.918   3.820  12.666  0.00  0.00    +0.000 A 
ATOM     32  C   UNL     1       5.576   3.671  12.929  0.00  0.00    +0.000 A 
ATOM     33  C   UNL     1       4.962   4.360  13.945  0.00  0.00    +0.000 A 
ATOM     34  O   UNL     1       4.979   2.766  12.113  0.00  0.00    +0.000 OA
ATOM     35  C   UNL     1       6.139   2.201  11.475  0.00  0.00    +0.000 C 
ATOM     36  O   UNL     1       7.336   2.987  11.676  0.00  0.00    +0.000 OA
ENDBRANCH  26  28
ENDBRANCH  23  24
ENDBRANCH   3  23
TORSDOF 5
ENDMDL
MODEL 8
REMARK VINA RESULT:      -8.1      3.710      8.004
REMARK  Name = 
REMARK  7 active torsions:
REMARK  status: ('A' for Active; 'I' for Inactive)
REMARK    1  A    between atoms: C_1  and  C_2
REMARK    2  A    between atoms: C_5  and  S_6
REMARK    3  A    between atoms: S_6  and  C_9
REMARK    4  A    between atoms: N_11  and  C_12
REMARK    5  A    between atoms: C_12  and  C_13
REMARK    6  A    between atoms: N_15  and  C_16
REMARK    7  A    between atoms: C_28  and  C_29
REMARK                            x       y       z     vdW  Elec       q    Type
REMARK                         _______ _______ _______ _____ _____    ______ ____
ROOT
ATOM      1  C   UNL     1       0.739  13.238  20.580  0.00  0.00    +0.000 A 
ATOM      2  C   UNL     1       1.508  12.155  20.342  0.00  0.00    +0.000 A 
ATOM      3  N   UNL     1       1.040  10.873  20.088  0.00  0.00    +0.000 N 
ATOM      4  C   UNL     1      -0.124  10.950  19.251  0.00  0.00    +0.000 A 
ATOM      5  C   UNL     1      -0.205  10.170  18.106  0.00  0.00    +0.000 A 
ATOM      6  C   UNL     1      -1.429  10.040  17.474  0.00  0.00    +0.000 A 
ATOM      7  C   UNL     1      -2.578  10.606  18.049  0.00  0.00    +0.000 A 
ATOM      8  C   UNL     1      -3.902  10.103  17.541  0.00  0.00    +0.000 C 
ATOM      9  C   UNL     1      -2.445  11.536  19.112  0.00  0.00    +0.000 A 
ATOM     10  C   UNL     1      -1.169  11.814  19.616  0.00  0.00    +0.000 A 
ATOM     11  C   UNL     1      -0.748  13.002  20.483  0.00  0.00    +0.000 A 
ATOM     12  O   UNL     1      -1.561  13.701  21.068  0.00  0.00    +0.000 OA
ENDROOT
BRANCH   1  13
ATOM     13  S   UNL     1       1.638  14.690  20.499  0.00  0.00    +0.000 S 
ATOM     14  O   UNL     1       1.836  15.138  21.879  0.00  0.00    +0.000 OA
ATOM     15  O   UNL     1       0.949  15.590  19.587  0.00  0.00    +0.000 OA
BRANCH  13  20
ATOM     16  C   UNL     1       7.092  15.816  18.239  0.00  0.00    +0.000 C 
ATOM     17  C   UNL     1       5.777  15.303  18.753  0.00  0.00    +0.000 A 
ATOM     18  C   UNL     1       4.690  15.084  17.895  0.00  0.00    +0.000 A 
ATOM     19  C   UNL     1       3.435  14.717  18.404  0.00  0.00    +0.000 A 
ATOM     20  C   UNL     1       3.266  14.550  19.786  0.00  0.00    +0.000 A 
ATOM     21  C   UNL     1       4.357  14.754  20.641  0.00  0.00    +0.000 A 
ATOM     22  C   UNL     1       5.600  15.133  20.129  0.00  0.00    +0.000 A 
ENDBRANCH  13  20
ENDBRANCH   1  13
BRANCH   3  23
ATOM     23  C   UNL     1       0.558  10.145  21.331  0.00  0.00    +0.000 C 
BRANCH  23  24
ATOM     24  C   UNL     1       0.623   8.641  21.195  0.00  0.00    +0.000 C 
ATOM     25  O   UNL     1      -0.364   7.951  21.451  0.00  0.00    +0.000 OA
ATOM     26  N   UNL     1       1.823   8.164  20.703  0.00  0.00    +0.000 N 
ATOM     27  H   UNL     1       2.649   8.687  20.975  0.00  0.00    +0.000 HD
BRANCH  26  28
ATOM     28  C   UNL     1       1.951   6.851  20.243  0.00  0.00    +0.000 A 
ATOM     29  C   UNL     1       1.435   5.793  21.015  0.00  0.00    +0.000 A 
ATOM     30  C   UNL     1       1.442   4.487  20.513  0.00  0.00    +0.000 A 
ATOM     31  C   UNL     1       2.014   4.279  19.273  0.00  0.00    +0.000 A 
ATOM     32  C   UNL     1       2.589   5.303  18.557  0.00  0.00    +0.000 A 
ATOM     33  C   UNL     1       2.574   6.597  19.015  0.00  0.00    +0.000 A 
ATOM     34  O   UNL     1       3.114   4.888  17.376  0.00  0.00    +0.000 OA
ATOM     35  C   UNL     1       2.596   3.545  17.332  0.00  0.00    +0.000 C 
ATOM     36  O   UNL     1       2.069   3.098  18.601  0.00  0.00    +0.000 OA
ENDBRANCH  26  28
ENDBRANCH  23  24
ENDBRANCH   3  23
TORSDOF 5
ENDMDL
MODEL 9
REMARK VINA RESULT:      -8.1      3.800      8.016
REMARK  Name = 
REMARK  7 active torsions:
REMARK  status: ('A' for Active; 'I' for Inactive)
REMARK    1  A    between atoms: C_1  and  C_2
REMARK    2  A    between atoms: C_5  and  S_6
REMARK    3  A    between atoms: S_6  and  C_9
REMARK    4  A    between atoms: N_11  and  C_12
REMARK    5  A    between atoms: C_12  and  C_13
REMARK    6  A    between atoms: N_15  and  C_16
REMARK    7  A    between atoms: C_28  and  C_29
REMARK                            x       y       z     vdW  Elec       q    Type
REMARK                         _______ _______ _______ _____ _____    ______ ____
ROOT
ATOM      1  C   UNL     1       0.182  13.256  21.211  0.00  0.00    +0.000 A 
ATOM      2  C   UNL     1       1.141  12.319  21.060  0.00  0.00    +0.000 A 
ATOM      3  N   UNL     1       0.930  11.009  20.650  0.00  0.00    +0.000 N 
ATOM      4  C   UNL     1      -0.066  10.989  19.617  0.00  0.00    +0.000 A 
ATOM      5  C   UNL     1       0.178  10.305  18.434  0.00  0.00    +0.000 A 
ATOM      6  C   UNL     1      -0.881  10.055  17.579  0.00  0.00    +0.000 A 
ATOM      7  C   UNL     1      -2.187  10.400  17.961  0.00  0.00    +0.000 A 
ATOM      8  C   UNL     1      -3.307   9.757  17.189  0.00  0.00    +0.000 C 
ATOM      9  C   UNL     1      -2.390  11.246  19.082  0.00  0.00    +0.000 A 
ATOM     10  C   UNL     1      -1.281  11.660  19.829  0.00  0.00    +0.000 A 
ATOM     11  C   UNL     1      -1.210  12.819  20.827  0.00  0.00    +0.000 A 
ATOM     12  O   UNL     1      -2.211  13.342  21.288  0.00  0.00    +0.000 OA
ENDROOT
BRANCH   1  13
ATOM     13  S   UNL     1       0.843  14.824  21.382  0.00  0.00    +0.000 S 
ATOM     14  O   UNL     1       1.402  14.899  22.733  0.00  0.00    +0.000 OA
ATOM     15  O   UNL     1      -0.189  15.784  21.021  0.00  0.00    +0.000 OA
BRANCH  13  20
ATOM     16  C   UNL     1       5.649  14.600  17.779  0.00  0.00    +0.000 C 
ATOM     17  C   UNL     1       4.449  14.894  18.635  0.00  0.00    +0.000 A 
ATOM     18  C   UNL     1       4.585  15.317  19.965  0.00  0.00    +0.000 A 
ATOM     19  C   UNL     1       3.458  15.474  20.787  0.00  0.00    +0.000 A 
ATOM     20  C   UNL     1       2.180  15.222  20.271  0.00  0.00    +0.000 A 
ATOM     21  C   UNL     1       2.044  14.815  18.937  0.00  0.00    +0.000 A 
ATOM     22  C   UNL     1       3.170  14.647  18.129  0.00  0.00    +0.000 A 
ENDBRANCH  13  20
ENDBRANCH   1  13
BRANCH   3  23
ATOM     23  C   UNL     1       0.358  10.117  21.738  0.00  0.00    +0.000 C 
BRANCH  23  24
ATOM     24  C   UNL     1       0.442   8.647  21.399  0.00  0.00    +0.000 C 
ATOM     25  O   UNL     1      -0.557   7.932  21.483  0.00  0.00    +0.000 OA
ATOM     26  N   UNL     1       1.677   8.237  20.933  0.00  0.00    +0.000 N 
ATOM     27  H   UNL     1       2.478   8.714  21.334  0.00  0.00    +0.000 HD
BRANCH  26  28
ATOM     28  C   UNL     1       1.846   7.001  20.304  0.00  0.00    +0.000 A 
ATOM     29  C   UNL     1       2.374   6.954  19.000  0.00  0.00    +0.000 A 
ATOM     30  C   UNL     1       2.666   5.722  18.404  0.00  0.00    +0.000 A 
ATOM     31  C   UNL     1       2.370   4.577  19.118  0.00  0.00    +0.000 A 
ATOM     32  C   UNL     1       1.778   4.627  20.360  0.00  0.00    +0.000 A 
ATOM     33  C   UNL     1       1.504   5.822  20.977  0.00  0.00    +0.000 A 
ATOM     34  O   UNL     1       1.549   3.396  20.881  0.00  0.00    +0.000 OA
ATOM     35  C   UNL     1       2.274   2.586  19.937  0.00  0.00    +0.000 C 
ATOM     36  O   UNL     1       2.626   3.299  18.730  0.00  0.00    +0.000 OA
ENDBRANCH  26  28
ENDBRANCH  23  24
ENDBRANCH   3  23
TORSDOF 5
ENDMDL
