MODEL 1
REMARK VINA RESULT:      -7.9      0.000      0.000
REMARK  Name = 
REMARK  8 active torsions:
REMARK  status: ('A' for Active; 'I' for Inactive)
REMARK    1  A    between atoms: C_1  and  C_2
REMARK    2  A    between atoms: C_5  and  C_6
REMARK    3  A    between atoms: C_6  and  N_7
REMARK    4  A    between atoms: C_8  and  C_10
REMARK    5  A    between atoms: C_10  and  N_11
REMARK    6  A    between atoms: N_11  and  C_12
REMARK    7  A    between atoms: N_11  and  S_19
REMARK    8  A    between atoms: S_19  and  C_20
REMARK                            x       y       z     vdW  Elec       q    Type
REMARK                         _______ _______ _______ _____ _____    ______ ____
ROOT
ATOM      1  C   UNL     1       3.211   4.981  19.911  0.00  0.00    +0.000 C 
ENDROOT
BRANCH   1   3
ATOM      2  N   UNL     1       2.299   7.256  19.922  0.00  0.00    +0.000 N 
ATOM      3  C   UNL     1       2.640   6.170  19.153  0.00  0.00    +0.000 C 
ATOM      4  O   UNL     1       2.441   6.121  17.939  0.00  0.00    +0.000 OA
ATOM      5  H   UNL     1       2.651   7.311  20.878  0.00  0.00    +0.000 HD
BRANCH   2   6
ATOM      6  C   UNL     1       1.744   8.465  19.360  0.00  0.00    +0.000 C 
BRANCH   6  11
ATOM      7  C   UNL     1      -1.496  11.412  23.210  0.00  0.00    +0.000 C 
ATOM      8  C   UNL     1      -0.698  10.625  22.212  0.00  0.00    +0.000 A 
ATOM      9  C   UNL     1      -0.194   9.359  22.527  0.00  0.00    +0.000 A 
ATOM     10  C   UNL     1       0.577   8.649  21.598  0.00  0.00    +0.000 A 
ATOM     11  C   UNL     1       0.867   9.197  20.343  0.00  0.00    +0.000 A 
ATOM     12  C   UNL     1       0.333  10.452  20.018  0.00  0.00    +0.000 A 
ATOM     13  C   UNL     1      -0.438  11.163  20.946  0.00  0.00    +0.000 A 
ENDBRANCH   6  11
ENDBRANCH   2   6
ENDBRANCH   1   3
BRANCH   1  14
ATOM     14  N   UNL     1       3.694   3.882  19.043  0.00  0.00    +0.000 N 
BRANCH  14  15
ATOM     15  C   UNL     1       4.854   4.132  18.235  0.00  0.00    +0.000 A 
ATOM     16  C   UNL     1       6.005   4.636  18.845  0.00  0.00    +0.000 A 
ATOM     17  C   UNL     1       7.133   4.940  18.076  0.00  0.00    +0.000 A 
ATOM     18  C   UNL     1       7.115   4.727  16.698  0.00  0.00    +0.000 A 
ATOM     19  C   UNL     1       5.974   4.196  16.099  0.00  0.00    +0.000 A 
ATOM     20 CL   UNL     1       5.952   3.926  14.399  0.00  0.00    +0.000 Cl
ATOM     21  C   UNL     1       4.843   3.891  16.860  0.00  0.00    +0.000 A 
ENDBRANCH  14  15
BRANCH  14  22
ATOM     22  S   UNL     1       2.605   2.697  18.527  0.00  0.00    +0.000 S 
ATOM     23  C   UNL     1       1.452   2.582  19.885  0.00  0.00    +0.000 C 
ATOM     24  O   UNL     1       1.885   3.166  17.364  0.00  0.00    +0.000 OA
ATOM     25  O   UNL     1       3.322   1.437  18.496  0.00  0.00    +0.000 OA
ENDBRANCH  14  22
ENDBRANCH   1  14
TORSDOF 6
ENDMDL
MODEL 2
REMARK VINA RESULT:      -7.9      2.684      7.693
REMARK  Name = 
REMARK  8 active torsions:
REMARK  status: ('A' for Active; 'I' for Inactive)
REMARK    1  A    between atoms: C_1  and  C_2
REMARK    2  A    between atoms: C_5  and  C_6
REMARK    3  A    between atoms: C_6  and  N_7
REMARK    4  A    between atoms: C_8  and  C_10
REMARK    5  A    between atoms: C_10  and  N_11
REMARK    6  A    between atoms: N_11  and  C_12
REMARK    7  A    between atoms: N_11  and  S_19
REMARK    8  A    between atoms: S_19  and  C_20
REMARK                            x       y       z     vdW  Elec       q    Type
REMARK                         _______ _______ _______ _____ _____    ______ ____
ROOT
ATOM      1  C   UNL     1       4.056   4.167  19.583  0.00  0.00    +0.000 C 
ENDROOT
BRANCH   1   3
ATOM      2  N   UNL     1       5.399   4.809  17.635  0.00  0.00    +0.000 N 
ATOM      3  C   UNL     1       5.328   4.772  19.007  0.00  0.00    +0.000 C 
ATOM      4  O   UNL     1       6.251   5.138  19.734  0.00  0.00    +0.000 OA
ATOM      5  H   UNL     1       4.545   4.667  17.095  0.00  0.00    +0.000 HD
BRANCH   2   6
ATOM      6  C   UNL     1       6.535   5.350  16.928  0.00  0.00    +0.000 C 
BRANCH   6  11
ATOM      7  C   UNL     1       6.709   3.522  11.393  0.00  0.00    +0.000 C 
ATOM      8  C   UNL     1       6.652   4.034  12.803  0.00  0.00    +0.000 A 
ATOM      9  C   UNL     1       7.635   4.895  13.299  0.00  0.00    +0.000 A 
ATOM     10  C   UNL     1       7.587   5.339  14.627  0.00  0.00    +0.000 A 
ATOM     11  C   UNL     1       6.561   4.922  15.483  0.00  0.00    +0.000 A 
ATOM     12  C   UNL     1       5.559   4.085  14.973  0.00  0.00    +0.000 A 
ATOM     13  C   UNL     1       5.605   3.640  13.646  0.00  0.00    +0.000 A 
ENDBRANCH   6  11
ENDBRANCH   2   6
ENDBRANCH   1   3
BRANCH   1  14
ATOM     14  N   UNL     1       2.809   4.680  18.970  0.00  0.00    +0.000 N 
BRANCH  14  15
ATOM     15  C   UNL     1       2.370   5.993  19.350  0.00  0.00    +0.000 A 
ATOM     16  C   UNL     1       1.811   6.177  20.618  0.00  0.00    +0.000 A 
ATOM     17  C   UNL     1       1.327   7.432  20.998  0.00  0.00    +0.000 A 
ATOM     18  C   UNL     1       1.414   8.508  20.115  0.00  0.00    +0.000 A 
ATOM     19  C   UNL     1       1.999   8.326  18.864  0.00  0.00    +0.000 A 
ATOM     20 CL   UNL     1       2.114   9.656  17.775  0.00  0.00    +0.000 Cl
ATOM     21  C   UNL     1       2.484   7.075  18.476  0.00  0.00    +0.000 A 
ENDBRANCH  14  15
BRANCH  14  22
ATOM     22  S   UNL     1       1.648   3.583  18.417  0.00  0.00    +0.000 S 
ATOM     23  C   UNL     1       2.626   2.196  17.864  0.00  0.00    +0.000 C 
ATOM     24  O   UNL     1       0.825   3.142  19.521  0.00  0.00    +0.000 OA
ATOM     25  O   UNL     1       1.047   4.155  17.228  0.00  0.00    +0.000 OA
ENDBRANCH  14  22
ENDBRANCH   1  14
TORSDOF 6
ENDMDL
MODEL 3
REMARK VINA RESULT:      -7.9      3.015      7.674
REMARK  Name = 
REMARK  8 active torsions:
REMARK  status: ('A' for Active; 'I' for Inactive)
REMARK    1  A    between atoms: C_1  and  C_2
REMARK    2  A    between atoms: C_5  and  C_6
REMARK    3  A    between atoms: C_6  and  N_7
REMARK    4  A    between atoms: C_8  and  C_10
REMARK    5  A    between atoms: C_10  and  N_11
REMARK    6  A    between atoms: N_11  and  C_12
REMARK    7  A    between atoms: N_11  and  S_19
REMARK    8  A    between atoms: S_19  and  C_20
REMARK                            x       y       z     vdW  Elec       q    Type
REMARK                         _______ _______ _______ _____ _____    ______ ____
ROOT
ATOM      1  C   UNL     1       4.319   5.156  19.660  0.00  0.00    +0.000 C 
ENDROOT
BRANCH   1   3
ATOM      2  N   UNL     1       5.669   6.003  17.798  0.00  0.00    +0.000 N 
ATOM      3  C   UNL     1       5.567   5.063  18.795  0.00  0.00    +0.000 C 
ATOM      4  O   UNL     1       6.389   4.160  18.950  0.00  0.00    +0.000 OA
ATOM      5  H   UNL     1       5.065   6.824  17.833  0.00  0.00    +0.000 HD
BRANCH   2   6
ATOM      6  C   UNL     1       6.789   6.055  16.889  0.00  0.00    +0.000 C 
BRANCH   6  11
ATOM      7  C   UNL     1       5.787   3.007  12.019  0.00  0.00    +0.000 C 
ATOM      8  C   UNL     1       6.036   3.830  13.249  0.00  0.00    +0.000 A 
ATOM      9  C   UNL     1       7.207   4.580  13.390  0.00  0.00    +0.000 A 
ATOM     10  C   UNL     1       7.443   5.318  14.558  0.00  0.00    +0.000 A 
ATOM     11  C   UNL     1       6.516   5.311  15.607  0.00  0.00    +0.000 A 
ATOM     12  C   UNL     1       5.328   4.583  15.449  0.00  0.00    +0.000 A 
ATOM     13  C   UNL     1       5.091   3.844  14.283  0.00  0.00    +0.000 A 
ENDBRANCH   6  11
ENDBRANCH   2   6
ENDBRANCH   1   3
BRANCH   1  14
ATOM     14  N   UNL     1       3.069   5.386  18.898  0.00  0.00    +0.000 N 
BRANCH  14  15
ATOM     15  C   UNL     1       2.481   6.695  18.962  0.00  0.00    +0.000 A 
ATOM     16  C   UNL     1       2.500   7.499  17.820  0.00  0.00    +0.000 A 
ATOM     17  C   UNL     1       1.983   8.798  17.865  0.00  0.00    +0.000 A 
ATOM     18  C   UNL     1       1.435   9.288  19.050  0.00  0.00    +0.000 A 
ATOM     19  C   UNL     1       1.392   8.470  20.178  0.00  0.00    +0.000 A 
ATOM     20 CL   UNL     1       0.708   9.071  21.640  0.00  0.00    +0.000 Cl
ATOM     21  C   UNL     1       1.907   7.173  20.141  0.00  0.00    +0.000 A 
ENDBRANCH  14  15
BRANCH  14  22
ATOM     22  S   UNL     1       2.059   4.076  18.553  0.00  0.00    +0.000 S 
ATOM     23  C   UNL     1       3.196   2.818  17.997  0.00  0.00    +0.000 C 
ATOM     24  O   UNL     1       1.429   3.609  19.767  0.00  0.00    +0.000 OA
ATOM     25  O   UNL     1       1.261   4.441  17.398  0.00  0.00    +0.000 OA
ENDBRANCH  14  22
ENDBRANCH   1  14
TORSDOF 6
ENDMDL
MODEL 4
REMARK VINA RESULT:      -7.9      3.062      7.775
REMARK  Name = 
REMARK  8 active torsions:
REMARK  status: ('A' for Active; 'I' for Inactive)
REMARK    1  A    between atoms: C_1  and  C_2
REMARK    2  A    between atoms: C_5  and  C_6
REMARK    3  A    between atoms: C_6  and  N_7
REMARK    4  A    between atoms: C_8  and  C_10
REMARK    5  A    between atoms: C_10  and  N_11
REMARK    6  A    between atoms: N_11  and  C_12
REMARK    7  A    between atoms: N_11  and  S_19
REMARK    8  A    between atoms: S_19  and  C_20
REMARK                            x       y       z     vdW  Elec       q    Type
REMARK                         _______ _______ _______ _____ _____    ______ ____
ROOT
ATOM      1  C   UNL     1       5.008   5.298  19.397  0.00  0.00    +0.000 C 
ENDROOT
BRANCH   1   3
ATOM      2  N   UNL     1       6.053   5.845  17.248  0.00  0.00    +0.000 N 
ATOM      3  C   UNL     1       6.178   5.162  18.434  0.00  0.00    +0.000 C 
ATOM      4  O   UNL     1       7.136   4.432  18.687  0.00  0.00    +0.000 OA
ATOM      5  H   UNL     1       5.338   6.568  17.171  0.00  0.00    +0.000 HD
BRANCH   2   6
ATOM      6  C   UNL     1       7.071   5.822  16.225  0.00  0.00    +0.000 C 
BRANCH   6  11
ATOM      7  C   UNL     1       5.392   2.873  11.483  0.00  0.00    +0.000 C 
ATOM      8  C   UNL     1       5.832   3.592  12.725  0.00  0.00    +0.000 A 
ATOM      9  C   UNL     1       5.015   3.640  13.858  0.00  0.00    +0.000 A 
ATOM     10  C   UNL     1       5.424   4.343  15.000  0.00  0.00    +0.000 A 
ATOM     11  C   UNL     1       6.651   5.016  15.023  0.00  0.00    +0.000 A 
ATOM     12  C   UNL     1       7.481   4.939  13.896  0.00  0.00    +0.000 A 
ATOM     13  C   UNL     1       7.074   4.238  12.754  0.00  0.00    +0.000 A 
ENDBRANCH   6  11
ENDBRANCH   2   6
ENDBRANCH   1   3
BRANCH   1  14
ATOM     14  N   UNL     1       3.682   5.349  18.737  0.00  0.00    +0.000 N 
BRANCH  14  15
ATOM     15  C   UNL     1       2.935   6.572  18.837  0.00  0.00    +0.000 A 
ATOM     16  C   UNL     1       2.885   7.424  17.731  0.00  0.00    +0.000 A 
ATOM     17  C   UNL     1       2.211   8.646  17.815  0.00  0.00    +0.000 A 
ATOM     18  C   UNL     1       1.574   9.011  19.001  0.00  0.00    +0.000 A 
ATOM     19  C   UNL     1       1.603   8.143  20.091  0.00  0.00    +0.000 A 
ATOM     20 CL   UNL     1       0.811   8.588  21.554  0.00  0.00    +0.000 Cl
ATOM     21  C   UNL     1       2.275   6.922  20.016  0.00  0.00    +0.000 A 
ENDBRANCH  14  15
BRANCH  14  22
ATOM     22  S   UNL     1       2.828   3.913  18.486  0.00  0.00    +0.000 S 
ATOM     23  C   UNL     1       2.938   3.090  20.065  0.00  0.00    +0.000 C 
ATOM     24  O   UNL     1       1.436   4.210  18.229  0.00  0.00    +0.000 OA
ATOM     25  O   UNL     1       3.597   3.112  17.555  0.00  0.00    +0.000 OA
ENDBRANCH  14  22
ENDBRANCH   1  14
TORSDOF 6
ENDMDL
MODEL 5
REMARK VINA RESULT:      -7.9      2.998      7.560
REMARK  Name = 
REMARK  8 active torsions:
REMARK  status: ('A' for Active; 'I' for Inactive)
REMARK    1  A    between atoms: C_1  and  C_2
REMARK    2  A    between atoms: C_5  and  C_6
REMARK    3  A    between atoms: C_6  and  N_7
REMARK    4  A    between atoms: C_8  and  C_10
REMARK    5  A    between atoms: C_10  and  N_11
REMARK    6  A    between atoms: N_11  and  C_12
REMARK    7  A    between atoms: N_11  and  S_19
REMARK    8  A    between atoms: S_19  and  C_20
REMARK                            x       y       z     vdW  Elec       q    Type
REMARK                         _______ _______ _______ _____ _____    ______ ____
ROOT
ATOM      1  C   UNL     1       4.139   5.074  19.836  0.00  0.00    +0.000 C 
ENDROOT
BRANCH   1   3
ATOM      2  N   UNL     1       5.472   5.995  17.997  0.00  0.00    +0.000 N 
ATOM      3  C   UNL     1       5.397   5.039  18.982  0.00  0.00    +0.000 C 
ATOM      4  O   UNL     1       6.251   4.166  19.132  0.00  0.00    +0.000 OA
ATOM      5  H   UNL     1       4.836   6.793  18.038  0.00  0.00    +0.000 HD
BRANCH   2   6
ATOM      6  C   UNL     1       6.596   6.101  17.099  0.00  0.00    +0.000 C 
BRANCH   6  11
ATOM      7  C   UNL     1       5.763   3.195  12.112  0.00  0.00    +0.000 C 
ATOM      8  C   UNL     1       5.982   3.902  13.418  0.00  0.00    +0.000 A 
ATOM      9  C   UNL     1       4.986   3.932  14.398  0.00  0.00    +0.000 A 
ATOM     10  C   UNL     1       5.191   4.624  15.599  0.00  0.00    +0.000 A 
ATOM     11  C   UNL     1       6.391   5.307  15.835  0.00  0.00    +0.000 A 
ATOM     12  C   UNL     1       7.399   5.248  14.862  0.00  0.00    +0.000 A 
ATOM     13  C   UNL     1       7.196   4.557  13.661  0.00  0.00    +0.000 A 
ENDBRANCH   6  11
ENDBRANCH   2   6
ENDBRANCH   1   3
BRANCH   1  14
ATOM     14  N   UNL     1       2.892   5.315  19.072  0.00  0.00    +0.000 N 
BRANCH  14  15
ATOM     15  C   UNL     1       2.351   6.645  19.084  0.00  0.00    +0.000 A 
ATOM     16  C   UNL     1       2.338   7.379  17.896  0.00  0.00    +0.000 A 
ATOM     17  C   UNL     1       1.866   8.695  17.886  0.00  0.00    +0.000 A 
ATOM     18  C   UNL     1       1.394   9.274  19.064  0.00  0.00    +0.000 A 
ATOM     19  C   UNL     1       1.381   8.527  20.240  0.00  0.00    +0.000 A 
ATOM     20 CL   UNL     1       0.790   9.237  21.694  0.00  0.00    +0.000 Cl
ATOM     21  C   UNL     1       1.851   7.213  20.258  0.00  0.00    +0.000 A 
ENDBRANCH  14  15
BRANCH  14  22
ATOM     22  S   UNL     1       1.836   4.028  18.788  0.00  0.00    +0.000 S 
ATOM     23  C   UNL     1       2.913   2.606  18.787  0.00  0.00    +0.000 C 
ATOM     24  O   UNL     1       0.915   3.895  19.895  0.00  0.00    +0.000 OA
ATOM     25  O   UNL     1       1.344   4.167  17.431  0.00  0.00    +0.000 OA
ENDBRANCH  14  22
ENDBRANCH   1  14
TORSDOF 6
ENDMDL
MODEL 6
REMARK VINA RESULT:      -7.8      1.688      2.265
REMARK  Name = 
REMARK  8 active torsions:
REMARK  status: ('A' for Active; 'I' for Inactive)
REMARK    1  A    between atoms: C_1  and  C_2
REMARK    2  A    between atoms: C_5  and  C_6
REMARK    3  A    between atoms: C_6  and  N_7
REMARK    4  A    between atoms: C_8  and  C_10
REMARK    5  A    between atoms: C_10  and  N_11
REMARK    6  A    between atoms: N_11  and  C_12
REMARK    7  A    between atoms: N_11  and  S_19
REMARK    8  A    between atoms: S_19  and  C_20
REMARK                            x       y       z     vdW  Elec       q    Type
REMARK                         _______ _______ _______ _____ _____    ______ ____
ROOT
ATOM      1  C   UNL     1       2.613   4.772  18.849  0.00  0.00    +0.000 C 
ENDROOT
BRANCH   1   3
ATOM      2  N   UNL     1       2.306   6.905  20.016  0.00  0.00    +0.000 N 
ATOM      3  C   UNL     1       1.913   5.592  19.922  0.00  0.00    +0.000 C 
ATOM      4  O   UNL     1       1.099   5.081  20.691  0.00  0.00    +0.000 OA
ATOM      5  H   UNL     1       2.837   7.315  19.247  0.00  0.00    +0.000 HD
BRANCH   2   6
ATOM      6  C   UNL     1       1.743   7.820  20.980  0.00  0.00    +0.000 C 
BRANCH   6  11
ATOM      7  C   UNL     1      -1.236  12.123  18.407  0.00  0.00    +0.000 C 
ATOM      8  C   UNL     1      -0.432  11.043  19.070  0.00  0.00    +0.000 A 
ATOM      9  C   UNL     1       0.535  10.324  18.361  0.00  0.00    +0.000 A 
ATOM     10  C   UNL     1       1.255   9.296  18.983  0.00  0.00    +0.000 A 
ATOM     11  C   UNL     1       1.014   8.963  20.321  0.00  0.00    +0.000 A 
ATOM     12  C   UNL     1       0.066   9.707  21.038  0.00  0.00    +0.000 A 
ATOM     13  C   UNL     1      -0.655  10.735  20.418  0.00  0.00    +0.000 A 
ENDBRANCH   6  11
ENDBRANCH   2   6
ENDBRANCH   1   3
BRANCH   1  14
ATOM     14  N   UNL     1       3.877   4.140  19.295  0.00  0.00    +0.000 N 
BRANCH  14  15
ATOM     15  C   UNL     1       5.096   4.581  18.677  0.00  0.00    +0.000 A 
ATOM     16  C   UNL     1       6.007   5.322  19.434  0.00  0.00    +0.000 A 
ATOM     17  C   UNL     1       7.178   5.810  18.846  0.00  0.00    +0.000 A 
ATOM     18  C   UNL     1       7.445   5.545  17.503  0.00  0.00    +0.000 A 
ATOM     19  C   UNL     1       6.547   4.780  16.761  0.00  0.00    +0.000 A 
ATOM     20 CL   UNL     1       6.879   4.446  15.104  0.00  0.00    +0.000 Cl
ATOM     21  C   UNL     1       5.375   4.290  17.340  0.00  0.00    +0.000 A 
ENDBRANCH  14  15
BRANCH  14  22
ATOM     22  S   UNL     1       3.836   2.585  19.955  0.00  0.00    +0.000 S 
ATOM     23  C   UNL     1       3.037   1.622  18.682  0.00  0.00    +0.000 C 
ATOM     24  O   UNL     1       5.183   2.087  20.118  0.00  0.00    +0.000 OA
ATOM     25  O   UNL     1       2.918   2.618  21.077  0.00  0.00    +0.000 OA
ENDBRANCH  14  22
ENDBRANCH   1  14
TORSDOF 6
ENDMDL
MODEL 7
REMARK VINA RESULT:      -7.7      0.829      1.415
REMARK  Name = 
REMARK  8 active torsions:
REMARK  status: ('A' for Active; 'I' for Inactive)
REMARK    1  A    between atoms: C_1  and  C_2
REMARK    2  A    between atoms: C_5  and  C_6
REMARK    3  A    between atoms: C_6  and  N_7
REMARK    4  A    between atoms: C_8  and  C_10
REMARK    5  A    between atoms: C_10  and  N_11
REMARK    6  A    between atoms: N_11  and  C_12
REMARK    7  A    between atoms: N_11  and  S_19
REMARK    8  A    between atoms: S_19  and  C_20
REMARK                            x       y       z     vdW  Elec       q    Type
REMARK                         _______ _______ _______ _____ _____    ______ ____
ROOT
ATOM      1  C   UNL     1       3.235   4.756  19.478  0.00  0.00    +0.000 C 
ENDROOT
BRANCH   1   3
ATOM      2  N   UNL     1       2.772   7.093  18.903  0.00  0.00    +0.000 N 
ATOM      3  C   UNL     1       2.521   5.776  18.604  0.00  0.00    +0.000 C 
ATOM      4  O   UNL     1       1.722   5.429  17.735  0.00  0.00    +0.000 OA
ATOM      5  H   UNL     1       3.569   7.318  19.499  0.00  0.00    +0.000 HD
BRANCH   2   6
ATOM      6  C   UNL     1       2.175   8.186  18.173  0.00  0.00    +0.000 C 
BRANCH   6  11
ATOM      7  C   UNL     1      -0.758  11.838  21.647  0.00  0.00    +0.000 C 
ATOM      8  C   UNL     1       0.035  10.923  20.759  0.00  0.00    +0.000 A 
ATOM      9  C   UNL     1       0.418  11.318  19.475  0.00  0.00    +0.000 A 
ATOM     10  C   UNL     1       1.130  10.442  18.644  0.00  0.00    +0.000 A 
ATOM     11  C   UNL     1       1.461   9.154  19.081  0.00  0.00    +0.000 A 
ATOM     12  C   UNL     1       1.102   8.773  20.382  0.00  0.00    +0.000 A 
ATOM     13  C   UNL     1       0.391   9.647  21.213  0.00  0.00    +0.000 A 
ENDBRANCH   6  11
ENDBRANCH   2   6
ENDBRANCH   1   3
BRANCH   1  14
ATOM     14  N   UNL     1       3.876   3.653  18.724  0.00  0.00    +0.000 N 
BRANCH  14  15
ATOM     15  C   UNL     1       4.986   3.984  17.875  0.00  0.00    +0.000 A 
ATOM     16  C   UNL     1       6.133   4.538  18.449  0.00  0.00    +0.000 A 
ATOM     17  C   UNL     1       7.209   4.920  17.643  0.00  0.00    +0.000 A 
ATOM     18  C   UNL     1       7.145   4.734  16.262  0.00  0.00    +0.000 A 
ATOM     19  C   UNL     1       6.011   4.154  15.698  0.00  0.00    +0.000 A 
ATOM     20 CL   UNL     1       5.933   3.917  13.994  0.00  0.00    +0.000 Cl
ATOM     21  C   UNL     1       4.931   3.771  16.496  0.00  0.00    +0.000 A 
ENDBRANCH  14  15
BRANCH  14  22
ATOM     22  S   UNL     1       2.975   2.273  18.354  0.00  0.00    +0.000 S 
ATOM     23  C   UNL     1       1.797   2.182  19.691  0.00  0.00    +0.000 C 
ATOM     24  O   UNL     1       2.245   2.479  17.124  0.00  0.00    +0.000 OA
ATOM     25  O   UNL     1       3.855   1.130  18.510  0.00  0.00    +0.000 OA
ENDBRANCH  14  22
ENDBRANCH   1  14
TORSDOF 6
ENDMDL
MODEL 8
REMARK VINA RESULT:      -7.6      1.272      1.608
REMARK  Name = 
REMARK  8 active torsions:
REMARK  status: ('A' for Active; 'I' for Inactive)
REMARK    1  A    between atoms: C_1  and  C_2
REMARK    2  A    between atoms: C_5  and  C_6
REMARK    3  A    between atoms: C_6  and  N_7
REMARK    4  A    between atoms: C_8  and  C_10
REMARK    5  A    between atoms: C_10  and  N_11
REMARK    6  A    between atoms: N_11  and  C_12
REMARK    7  A    between atoms: N_11  and  S_19
REMARK    8  A    between atoms: S_19  and  C_20
REMARK                            x       y       z     vdW  Elec       q    Type
REMARK                         _______ _______ _______ _____ _____    ______ ____
ROOT
ATOM      1  C   UNL     1       2.815   5.306  20.102  0.00  0.00    +0.000 C 
ENDROOT
BRANCH   1   3
ATOM      2  N   UNL     1       1.938   7.591  20.226  0.00  0.00    +0.000 N 
ATOM      3  C   UNL     1       2.441   6.608  19.409  0.00  0.00    +0.000 C 
ATOM      4  O   UNL     1       2.528   6.733  18.188  0.00  0.00    +0.000 OA
ATOM      5  H   UNL     1       2.060   7.502  21.235  0.00  0.00    +0.000 HD
BRANCH   2   6
ATOM      6  C   UNL     1       1.533   8.885  19.730  0.00  0.00    +0.000 C 
BRANCH   6  11
ATOM      7  C   UNL     1      -1.979  11.726  23.417  0.00  0.00    +0.000 C 
ATOM      8  C   UNL     1      -1.107  10.963  22.463  0.00  0.00    +0.000 A 
ATOM      9  C   UNL     1      -0.482   9.774  22.850  0.00  0.00    +0.000 A 
ATOM     10  C   UNL     1       0.355   9.089  21.960  0.00  0.00    +0.000 A 
ATOM     11  C   UNL     1       0.589   9.586  20.672  0.00  0.00    +0.000 A 
ATOM     12  C   UNL     1      -0.066  10.761  20.277  0.00  0.00    +0.000 A 
ATOM     13  C   UNL     1      -0.903  11.447  21.165  0.00  0.00    +0.000 A 
ENDBRANCH   6  11
ENDBRANCH   2   6
ENDBRANCH   1   3
BRANCH   1  14
ATOM     14  N   UNL     1       3.236   4.226  19.179  0.00  0.00    +0.000 N 
BRANCH  14  15
ATOM     15  C   UNL     1       4.465   4.406  18.459  0.00  0.00    +0.000 A 
ATOM     16  C   UNL     1       4.524   4.017  17.118  0.00  0.00    +0.000 A 
ATOM     17  C   UNL     1       5.722   4.130  16.405  0.00  0.00    +0.000 A 
ATOM     18  C   UNL     1       6.858   4.646  17.029  0.00  0.00    +0.000 A 
ATOM     19  C   UNL     1       6.784   5.061  18.357  0.00  0.00    +0.000 A 
ATOM     20 CL   UNL     1       8.184   5.705  19.126  0.00  0.00    +0.000 Cl
ATOM     21  C   UNL     1       5.593   4.949  19.076  0.00  0.00    +0.000 A 
ENDBRANCH  14  15
BRANCH  14  22
ATOM     22  S   UNL     1       2.065   3.207  18.512  0.00  0.00    +0.000 S 
ATOM     23  C   UNL     1       0.886   3.015  19.838  0.00  0.00    +0.000 C 
ATOM     24  O   UNL     1       1.402   3.874  17.414  0.00  0.00    +0.000 OA
ATOM     25  O   UNL     1       2.681   1.908  18.325  0.00  0.00    +0.000 OA
ENDBRANCH  14  22
ENDBRANCH   1  14
TORSDOF 6
ENDMDL
MODEL 9
REMARK VINA RESULT:      -7.6      1.686      2.033
REMARK  Name = 
REMARK  8 active torsions:
REMARK  status: ('A' for Active; 'I' for Inactive)
REMARK    1  A    between atoms: C_1  and  C_2
REMARK    2  A    between atoms: C_5  and  C_6
REMARK    3  A    between atoms: C_6  and  N_7
REMARK    4  A    between atoms: C_8  and  C_10
REMARK    5  A    between atoms: C_10  and  N_11
REMARK    6  A    between atoms: N_11  and  C_12
REMARK    7  A    between atoms: N_11  and  S_19
REMARK    8  A    between atoms: S_19  and  C_20
REMARK                            x       y       z     vdW  Elec       q    Type
REMARK                         _______ _______ _______ _____ _____    ______ ____
ROOT
ATOM      1  C   UNL     1       2.235   5.243  18.094  0.00  0.00    +0.000 C 
ENDROOT
BRANCH   1   3
ATOM      2  N   UNL     1       2.242   7.678  17.813  0.00  0.00    +0.000 N 
ATOM      3  C   UNL     1       2.395   6.633  18.691  0.00  0.00    +0.000 C 
ATOM      4  O   UNL     1       2.706   6.792  19.871  0.00  0.00    +0.000 OA
ATOM      5  H   UNL     1       1.809   7.498  16.906  0.00  0.00    +0.000 HD
BRANCH   2   6
ATOM      6  C   UNL     1       2.362   9.059  18.216  0.00  0.00    +0.000 C 
BRANCH   6  11
ATOM      7  C   UNL     1      -2.792  11.697  18.914  0.00  0.00    +0.000 C 
ATOM      8  C   UNL     1      -1.475  10.991  18.770  0.00  0.00    +0.000 A 
ATOM      9  C   UNL     1      -0.431  11.221  19.670  0.00  0.00    +0.000 A 
ATOM     10  C   UNL     1       0.804  10.580  19.505  0.00  0.00    +0.000 A 
ATOM     11  C   UNL     1       1.018   9.707  18.433  0.00  0.00    +0.000 A 
ATOM     12  C   UNL     1      -0.042   9.453  17.551  0.00  0.00    +0.000 A 
ATOM     13  C   UNL     1      -1.277  10.093  17.714  0.00  0.00    +0.000 A 
ENDBRANCH   6  11
ENDBRANCH   2   6
ENDBRANCH   1   3
BRANCH   1  14
ATOM     14  N   UNL     1       3.265   4.272  18.531  0.00  0.00    +0.000 N 
BRANCH  14  15
ATOM     15  C   UNL     1       4.554   4.340  17.903  0.00  0.00    +0.000 A 
ATOM     16  C   UNL     1       5.656   4.739  18.665  0.00  0.00    +0.000 A 
ATOM     17  C   UNL     1       6.914   4.866  18.069  0.00  0.00    +0.000 A 
ATOM     18  C   UNL     1       7.075   4.582  16.713  0.00  0.00    +0.000 A 
ATOM     19  C   UNL     1       5.979   4.156  15.965  0.00  0.00    +0.000 A 
ATOM     20 CL   UNL     1       6.177   3.797  14.293  0.00  0.00    +0.000 Cl
ATOM     21  C   UNL     1       4.719   4.027  16.552  0.00  0.00    +0.000 A 
ENDBRANCH  14  15
BRANCH  14  22
ATOM     22  S   UNL     1       2.780   2.795  19.193  0.00  0.00    +0.000 S 
ATOM     23  C   UNL     1       2.308   3.229  20.859  0.00  0.00    +0.000 C 
ATOM     24  O   UNL     1       1.604   2.312  18.504  0.00  0.00    +0.000 OA
ATOM     25  O   UNL     1       3.963   1.966  19.309  0.00  0.00    +0.000 OA
ENDBRANCH  14  22
ENDBRANCH   1  14
TORSDOF 6
ENDMDL
