MODEL 1
REMARK VINA RESULT:      -9.4      0.000      0.000
REMARK  Name = 
REMARK  8 active torsions:
REMARK  status: ('A' for Active; 'I' for Inactive)
REMARK    1  A    between atoms: C_1  and  C_2
REMARK    2  A    between atoms: C_2  and  C_3
REMARK    3  A    between atoms: C_6  and  S_7
REMARK    4  A    between atoms: S_7  and  C_8
REMARK    5  A    between atoms: C_8  and  C_9
REMARK    6  A    between atoms: C_9  and  C_11
REMARK    7  A    between atoms: C_14  and  C_15
REMARK    8  A    between atoms: N_18  and  N_19
REMARK                            x       y       z     vdW  Elec       q    Type
REMARK                         _______ _______ _______ _____ _____    ______ ____
ROOT
ATOM      1  C   UNL     1       5.377   4.979  16.058  0.00  0.00    +0.000 A 
ATOM      2  N   UNL     1       5.611   6.273  15.910  0.00  0.00    +0.000 NA
ATOM      3  N   UNL     1       4.858   6.969  16.831  0.00  0.00    +0.000 NA
ATOM      4  C   UNL     1       4.193   6.085  17.540  0.00  0.00    +0.000 A 
ATOM      5  N   UNL     1       4.572   4.818  17.156  0.00  0.00    +0.000 N 
ENDROOT
BRANCH   5   6
ATOM      6  N   UNL     1       4.162   3.638  17.721  0.00  0.00    +0.000 N 
ATOM      7  C   UNL     1       4.536   3.432  19.028  0.00  0.00    +0.000 C 
ATOM      8  O   UNL     1       5.611   3.632  19.563  0.00  0.00    +0.000 OA
ATOM      9  C   UNL     1       3.318   3.068  19.756  0.00  0.00    +0.000 A 
ATOM     10  C   UNL     1       3.078   3.121  21.117  0.00  0.00    +0.000 A 
ATOM     11  C   UNL     1       1.740   3.121  21.527  0.00  0.00    +0.000 A 
ATOM     12  C   UNL     1       0.693   3.050  20.583  0.00  0.00    +0.000 A 
ATOM     13  C   UNL     1       0.963   2.973  19.214  0.00  0.00    +0.000 A 
ATOM     14  C   UNL     1       2.289   3.000  18.833  0.00  0.00    +0.000 A 
ATOM     15  C   UNL     1       2.853   3.288  17.513  0.00  0.00    +0.000 C 
ATOM     16  O   UNL     1       2.232   3.230  16.470  0.00  0.00    +0.000 OA
ENDBRANCH   5   6
BRANCH   1  18
ATOM     17  C   UNL     1       6.496   4.459  13.870  0.00  0.00    +0.000 C 
ATOM     18  C   UNL     1       5.801   3.922  15.106  0.00  0.00    +0.000 C 
ENDBRANCH   1  18
BRANCH   4  19
ATOM     19  S   UNL     1       3.024   6.455  18.766  0.00  0.00    +0.000 S 
BRANCH  19  20
ATOM     20  C   UNL     1       1.823   7.436  17.841  0.00  0.00    +0.000 C 
BRANCH  20  21
ATOM     21  C   UNL     1       1.825   8.907  18.218  0.00  0.00    +0.000 C 
ATOM     22  O   UNL     1       2.372   9.786  17.549  0.00  0.00    +0.000 OA
BRANCH  21  23
ATOM     23  C   UNL     1       1.087   9.296  19.469  0.00  0.00    +0.000 A 
ATOM     24  C   UNL     1       0.164  10.352  19.492  0.00  0.00    +0.000 A 
ATOM     25  C   UNL     1      -0.487  10.699  20.681  0.00  0.00    +0.000 A 
ATOM     26  C   UNL     1      -0.233   9.999  21.865  0.00  0.00    +0.000 A 
ATOM     27  C   UNL     1      -0.937  10.362  23.138  0.00  0.00    +0.000 C 
ATOM     28  C   UNL     1       0.687   8.949  21.844  0.00  0.00    +0.000 A 
ATOM     29  C   UNL     1       1.345   8.599  20.656  0.00  0.00    +0.000 A 
ENDBRANCH  21  23
ENDBRANCH  20  21
ENDBRANCH  19  20
ENDBRANCH   4  19
TORSDOF 6
ENDMDL
MODEL 2
REMARK VINA RESULT:      -9.3      0.461      1.004
REMARK  Name = 
REMARK  8 active torsions:
REMARK  status: ('A' for Active; 'I' for Inactive)
REMARK    1  A    between atoms: C_1  and  C_2
REMARK    2  A    between atoms: C_2  and  C_3
REMARK    3  A    between atoms: C_6  and  S_7
REMARK    4  A    between atoms: S_7  and  C_8
REMARK    5  A    between atoms: C_8  and  C_9
REMARK    6  A    between atoms: C_9  and  C_11
REMARK    7  A    between atoms: C_14  and  C_15
REMARK    8  A    between atoms: N_18  and  N_19
REMARK                            x       y       z     vdW  Elec       q    Type
REMARK                         _______ _______ _______ _____ _____    ______ ____
ROOT
ATOM      1  C   UNL     1       5.528   4.856  15.974  0.00  0.00    +0.000 A 
ATOM      2  N   UNL     1       5.721   6.145  15.743  0.00  0.00    +0.000 NA
ATOM      3  N   UNL     1       4.854   6.871  16.531  0.00  0.00    +0.000 NA
ATOM      4  C   UNL     1       4.161   6.014  17.245  0.00  0.00    +0.000 A 
ATOM      5  N   UNL     1       4.629   4.741  17.003  0.00  0.00    +0.000 N 
ENDROOT
BRANCH   5   6
ATOM      6  N   UNL     1       4.217   3.589  17.622  0.00  0.00    +0.000 N 
ATOM      7  C   UNL     1       4.577   3.450  18.941  0.00  0.00    +0.000 C 
ATOM      8  O   UNL     1       5.646   3.681  19.477  0.00  0.00    +0.000 OA
ATOM      9  C   UNL     1       3.353   3.120  19.674  0.00  0.00    +0.000 A 
ATOM     10  C   UNL     1       3.098   3.240  21.029  0.00  0.00    +0.000 A 
ATOM     11  C   UNL     1       1.757   3.255  21.424  0.00  0.00    +0.000 A 
ATOM     12  C   UNL     1       0.720   3.134  20.475  0.00  0.00    +0.000 A 
ATOM     13  C   UNL     1       1.004   2.989  19.113  0.00  0.00    +0.000 A 
ATOM     14  C   UNL     1       2.334   3.002  18.745  0.00  0.00    +0.000 A 
ATOM     15  C   UNL     1       2.911   3.225  17.419  0.00  0.00    +0.000 C 
ATOM     16  O   UNL     1       2.301   3.112  16.374  0.00  0.00    +0.000 OA
ENDBRANCH   5   6
BRANCH   1  18
ATOM     17  C   UNL     1       6.073   4.030  13.665  0.00  0.00    +0.000 C 
ATOM     18  C   UNL     1       6.085   3.751  15.155  0.00  0.00    +0.000 C 
ENDBRANCH   1  18
BRANCH   4  19
ATOM     19  S   UNL     1       2.866   6.418  18.324  0.00  0.00    +0.000 S 
BRANCH  19  20
ATOM     20  C   UNL     1       2.969   8.221  18.357  0.00  0.00    +0.000 C 
BRANCH  20  21
ATOM     21  C   UNL     1       1.618   8.907  18.259  0.00  0.00    +0.000 C 
ATOM     22  O   UNL     1       1.030   9.116  17.196  0.00  0.00    +0.000 OA
BRANCH  21  23
ATOM     23  C   UNL     1       0.963   9.320  19.548  0.00  0.00    +0.000 A 
ATOM     24  C   UNL     1       1.100   8.572  20.727  0.00  0.00    +0.000 A 
ATOM     25  C   UNL     1       0.457   8.977  21.902  0.00  0.00    +0.000 A 
ATOM     26  C   UNL     1      -0.329  10.134  21.924  0.00  0.00    +0.000 A 
ATOM     27  C   UNL     1      -1.010  10.575  23.185  0.00  0.00    +0.000 C 
ATOM     28  C   UNL     1      -0.468  10.878  20.752  0.00  0.00    +0.000 A 
ATOM     29  C   UNL     1       0.171  10.476  19.570  0.00  0.00    +0.000 A 
ENDBRANCH  21  23
ENDBRANCH  20  21
ENDBRANCH  19  20
ENDBRANCH   4  19
TORSDOF 6
ENDMDL
MODEL 3
REMARK VINA RESULT:      -8.8      1.297      1.891
REMARK  Name = 
REMARK  8 active torsions:
REMARK  status: ('A' for Active; 'I' for Inactive)
REMARK    1  A    between atoms: C_1  and  C_2
REMARK    2  A    between atoms: C_2  and  C_3
REMARK    3  A    between atoms: C_6  and  S_7
REMARK    4  A    between atoms: S_7  and  C_8
REMARK    5  A    between atoms: C_8  and  C_9
REMARK    6  A    between atoms: C_9  and  C_11
REMARK    7  A    between atoms: C_14  and  C_15
REMARK    8  A    between atoms: N_18  and  N_19
REMARK                            x       y       z     vdW  Elec       q    Type
REMARK                         _______ _______ _______ _____ _____    ______ ____
ROOT
ATOM      1  C   UNL     1       5.203   5.226  16.099  0.00  0.00    +0.000 A 
ATOM      2  N   UNL     1       5.437   6.527  16.042  0.00  0.00    +0.000 NA
ATOM      3  N   UNL     1       4.731   7.149  17.049  0.00  0.00    +0.000 NA
ATOM      4  C   UNL     1       4.095   6.213  17.717  0.00  0.00    +0.000 A 
ATOM      5  N   UNL     1       4.449   4.980  17.217  0.00  0.00    +0.000 N 
ENDROOT
BRANCH   5   6
ATOM      6  N   UNL     1       4.059   3.760  17.705  0.00  0.00    +0.000 N 
ATOM      7  C   UNL     1       4.516   3.438  18.961  0.00  0.00    +0.000 C 
ATOM      8  O   UNL     1       5.627   3.580  19.438  0.00  0.00    +0.000 OA
ATOM      9  C   UNL     1       3.344   3.025  19.736  0.00  0.00    +0.000 A 
ATOM     10  C   UNL     1       3.195   2.963  21.110  0.00  0.00    +0.000 A 
ATOM     11  C   UNL     1       1.888   2.940  21.608  0.00  0.00    +0.000 A 
ATOM     12  C   UNL     1       0.779   2.961  20.735  0.00  0.00    +0.000 A 
ATOM     13  C   UNL     1       0.956   3.000  19.348  0.00  0.00    +0.000 A 
ATOM     14  C   UNL     1       2.254   3.047  18.882  0.00  0.00    +0.000 A 
ATOM     15  C   UNL     1       2.734   3.442  17.557  0.00  0.00    +0.000 C 
ATOM     16  O   UNL     1       2.044   3.480  16.557  0.00  0.00    +0.000 OA
ENDBRANCH   5   6
BRANCH   1  18
ATOM     17  C   UNL     1       6.743   4.692  14.186  0.00  0.00    +0.000 C 
ATOM     18  C   UNL     1       5.577   4.247  15.047  0.00  0.00    +0.000 C 
ENDBRANCH   1  18
BRANCH   4  19
ATOM     19  S   UNL     1       2.986   6.487  19.021  0.00  0.00    +0.000 S 
BRANCH  19  20
ATOM     20  C   UNL     1       2.264   8.077  18.560  0.00  0.00    +0.000 C 
BRANCH  20  21
ATOM     21  C   UNL     1       1.477   8.732  19.680  0.00  0.00    +0.000 C 
ATOM     22  O   UNL     1       1.767   8.631  20.874  0.00  0.00    +0.000 OA
BRANCH  21  23
ATOM     23  C   UNL     1       0.293   9.572  19.286  0.00  0.00    +0.000 A 
ATOM     24  C   UNL     1      -0.362  10.412  20.200  0.00  0.00    +0.000 A 
ATOM     25  C   UNL     1      -1.474  11.162  19.801  0.00  0.00    +0.000 A 
ATOM     26  C   UNL     1      -1.950  11.091  18.487  0.00  0.00    +0.000 A 
ATOM     27  C   UNL     1      -3.135  11.902  18.056  0.00  0.00    +0.000 C 
ATOM     28  C   UNL     1      -1.301  10.256  17.579  0.00  0.00    +0.000 A 
ATOM     29  C   UNL     1      -0.187   9.498  17.972  0.00  0.00    +0.000 A 
ENDBRANCH  21  23
ENDBRANCH  20  21
ENDBRANCH  19  20
ENDBRANCH   4  19
TORSDOF 6
ENDMDL
MODEL 4
REMARK VINA RESULT:      -8.8      1.340      1.887
REMARK  Name = 
REMARK  8 active torsions:
REMARK  status: ('A' for Active; 'I' for Inactive)
REMARK    1  A    between atoms: C_1  and  C_2
REMARK    2  A    between atoms: C_2  and  C_3
REMARK    3  A    between atoms: C_6  and  S_7
REMARK    4  A    between atoms: S_7  and  C_8
REMARK    5  A    between atoms: C_8  and  C_9
REMARK    6  A    between atoms: C_9  and  C_11
REMARK    7  A    between atoms: C_14  and  C_15
REMARK    8  A    between atoms: N_18  and  N_19
REMARK                            x       y       z     vdW  Elec       q    Type
REMARK                         _______ _______ _______ _____ _____    ______ ____
ROOT
ATOM      1  C   UNL     1       5.125   5.272  16.027  0.00  0.00    +0.000 A 
ATOM      2  N   UNL     1       5.297   6.581  15.944  0.00  0.00    +0.000 NA
ATOM      3  N   UNL     1       4.558   7.188  16.937  0.00  0.00    +0.000 NA
ATOM      4  C   UNL     1       3.965   6.237  17.622  0.00  0.00    +0.000 A 
ATOM      5  N   UNL     1       4.380   5.012  17.148  0.00  0.00    +0.000 N 
ENDROOT
BRANCH   5   6
ATOM      6  N   UNL     1       4.048   3.785  17.660  0.00  0.00    +0.000 N 
ATOM      7  C   UNL     1       4.521   3.508  18.921  0.00  0.00    +0.000 C 
ATOM      8  O   UNL     1       5.625   3.711  19.392  0.00  0.00    +0.000 OA
ATOM      9  C   UNL     1       3.370   3.056  19.706  0.00  0.00    +0.000 A 
ATOM     10  C   UNL     1       3.225   3.012  21.081  0.00  0.00    +0.000 A 
ATOM     11  C   UNL     1       1.921   2.938  21.581  0.00  0.00    +0.000 A 
ATOM     12  C   UNL     1       0.812   2.891  20.710  0.00  0.00    +0.000 A 
ATOM     13  C   UNL     1       0.986   2.913  19.323  0.00  0.00    +0.000 A 
ATOM     14  C   UNL     1       2.280   3.011  18.853  0.00  0.00    +0.000 A 
ATOM     15  C   UNL     1       2.739   3.403  17.520  0.00  0.00    +0.000 C 
ATOM     16  O   UNL     1       2.047   3.390  16.521  0.00  0.00    +0.000 OA
ENDBRANCH   5   6
BRANCH   1  18
ATOM     17  C   UNL     1       6.871   4.633  14.336  0.00  0.00    +0.000 C 
ATOM     18  C   UNL     1       5.549   4.291  14.996  0.00  0.00    +0.000 C 
ENDBRANCH   1  18
BRANCH   4  19
ATOM     19  S   UNL     1       2.840   6.482  18.918  0.00  0.00    +0.000 S 
BRANCH  19  20
ATOM     20  C   UNL     1       2.155   8.102  18.504  0.00  0.00    +0.000 C 
BRANCH  20  21
ATOM     21  C   UNL     1       1.451   8.776  19.669  0.00  0.00    +0.000 C 
ATOM     22  O   UNL     1       1.260   8.237  20.760  0.00  0.00    +0.000 OA
BRANCH  21  23
ATOM     23  C   UNL     1       0.992  10.193  19.465  0.00  0.00    +0.000 A 
ATOM     24  C   UNL     1       1.702  11.098  18.660  0.00  0.00    +0.000 A 
ATOM     25  C   UNL     1       1.256  12.416  18.513  0.00  0.00    +0.000 A 
ATOM     26  C   UNL     1       0.096  12.854  19.159  0.00  0.00    +0.000 A 
ATOM     27  C   UNL     1      -0.389  14.263  18.994  0.00  0.00    +0.000 C 
ATOM     28  C   UNL     1      -0.610  11.957  19.961  0.00  0.00    +0.000 A 
ATOM     29  C   UNL     1      -0.167  10.635  20.116  0.00  0.00    +0.000 A 
ENDBRANCH  21  23
ENDBRANCH  20  21
ENDBRANCH  19  20
ENDBRANCH   4  19
TORSDOF 6
ENDMDL
MODEL 5
REMARK VINA RESULT:      -8.8      1.189      1.366
REMARK  Name = 
REMARK  8 active torsions:
REMARK  status: ('A' for Active; 'I' for Inactive)
REMARK    1  A    between atoms: C_1  and  C_2
REMARK    2  A    between atoms: C_2  and  C_3
REMARK    3  A    between atoms: C_6  and  S_7
REMARK    4  A    between atoms: S_7  and  C_8
REMARK    5  A    between atoms: C_8  and  C_9
REMARK    6  A    between atoms: C_9  and  C_11
REMARK    7  A    between atoms: C_14  and  C_15
REMARK    8  A    between atoms: N_18  and  N_19
REMARK                            x       y       z     vdW  Elec       q    Type
REMARK                         _______ _______ _______ _____ _____    ______ ____
ROOT
ATOM      1  C   UNL     1       5.685   5.333  16.502  0.00  0.00    +0.000 A 
ATOM      2  N   UNL     1       5.683   6.646  16.336  0.00  0.00    +0.000 NA
ATOM      3  N   UNL     1       4.517   7.158  16.864  0.00  0.00    +0.000 NA
ATOM      4  C   UNL     1       3.837   6.151  17.362  0.00  0.00    +0.000 A 
ATOM      5  N   UNL     1       4.585   4.999  17.250  0.00  0.00    +0.000 N 
ENDROOT
BRANCH   5   6
ATOM      6  N   UNL     1       4.251   3.760  17.731  0.00  0.00    +0.000 N 
ATOM      7  C   UNL     1       4.566   3.517  19.046  0.00  0.00    +0.000 C 
ATOM      8  O   UNL     1       5.586   3.780  19.656  0.00  0.00    +0.000 OA
ATOM      9  C   UNL     1       3.346   3.011  19.679  0.00  0.00    +0.000 A 
ATOM     10  C   UNL     1       3.024   2.970  21.024  0.00  0.00    +0.000 A 
ATOM     11  C   UNL     1       1.671   2.832  21.349  0.00  0.00    +0.000 A 
ATOM     12  C   UNL     1       0.690   2.721  20.341  0.00  0.00    +0.000 A 
ATOM     13  C   UNL     1       1.044   2.742  18.988  0.00  0.00    +0.000 A 
ATOM     14  C   UNL     1       2.382   2.904  18.692  0.00  0.00    +0.000 A 
ATOM     15  C   UNL     1       2.993   3.310  17.425  0.00  0.00    +0.000 C 
ATOM     16  O   UNL     1       2.440   3.254  16.344  0.00  0.00    +0.000 OA
ENDBRANCH   5   6
BRANCH   1  18
ATOM     17  C   UNL     1       6.192   3.912  14.493  0.00  0.00    +0.000 C 
ATOM     18  C   UNL     1       6.638   4.394  15.859  0.00  0.00    +0.000 C 
ENDBRANCH   1  18
BRANCH   4  19
ATOM     19  S   UNL     1       2.250   6.253  18.053  0.00  0.00    +0.000 S 
BRANCH  19  20
ATOM     20  C   UNL     1       2.447   7.620  19.217  0.00  0.00    +0.000 C 
BRANCH  20  21
ATOM     21  C   UNL     1       1.597   7.477  20.467  0.00  0.00    +0.000 C 
ATOM     22  O   UNL     1       1.467   6.423  21.092  0.00  0.00    +0.000 OA
BRANCH  21  23
ATOM     23  C   UNL     1       0.905   8.714  20.971  0.00  0.00    +0.000 A 
ATOM     24  C   UNL     1       0.606   9.796  20.129  0.00  0.00    +0.000 A 
ATOM     25  C   UNL     1      -0.018  10.939  20.639  0.00  0.00    +0.000 A 
ATOM     26  C   UNL     1      -0.359  11.023  21.994  0.00  0.00    +0.000 A 
ATOM     27  C   UNL     1      -1.038  12.244  22.540  0.00  0.00    +0.000 C 
ATOM     28  C   UNL     1      -0.061   9.949  22.832  0.00  0.00    +0.000 A 
ATOM     29  C   UNL     1       0.568   8.801  22.328  0.00  0.00    +0.000 A 
ENDBRANCH  21  23
ENDBRANCH  20  21
ENDBRANCH  19  20
ENDBRANCH   4  19
TORSDOF 6
ENDMDL
MODEL 6
REMARK VINA RESULT:      -8.7      0.872      1.321
REMARK  Name = 
REMARK  8 active torsions:
REMARK  status: ('A' for Active; 'I' for Inactive)
REMARK    1  A    between atoms: C_1  and  C_2
REMARK    2  A    between atoms: C_2  and  C_3
REMARK    3  A    between atoms: C_6  and  S_7
REMARK    4  A    between atoms: S_7  and  C_8
REMARK    5  A    between atoms: C_8  and  C_9
REMARK    6  A    between atoms: C_9  and  C_11
REMARK    7  A    between atoms: C_14  and  C_15
REMARK    8  A    between atoms: N_18  and  N_19
REMARK                            x       y       z     vdW  Elec       q    Type
REMARK                         _______ _______ _______ _____ _____    ______ ____
ROOT
ATOM      1  C   UNL     1       5.634   5.308  16.534  0.00  0.00    +0.000 A 
ATOM      2  N   UNL     1       5.641   6.625  16.407  0.00  0.00    +0.000 NA
ATOM      3  N   UNL     1       4.512   7.135  17.013  0.00  0.00    +0.000 NA
ATOM      4  C   UNL     1       3.847   6.121  17.517  0.00  0.00    +0.000 A 
ATOM      5  N   UNL     1       4.573   4.965  17.330  0.00  0.00    +0.000 N 
ENDROOT
BRANCH   5   6
ATOM      6  N   UNL     1       4.249   3.715  17.792  0.00  0.00    +0.000 N 
ATOM      7  C   UNL     1       4.551   3.460  19.108  0.00  0.00    +0.000 C 
ATOM      8  O   UNL     1       5.560   3.729  19.734  0.00  0.00    +0.000 OA
ATOM      9  C   UNL     1       3.330   2.931  19.720  0.00  0.00    +0.000 A 
ATOM     10  C   UNL     1       2.991   2.869  21.060  0.00  0.00    +0.000 A 
ATOM     11  C   UNL     1       1.636   2.709  21.366  0.00  0.00    +0.000 A 
ATOM     12  C   UNL     1       0.669   2.598  20.344  0.00  0.00    +0.000 A 
ATOM     13  C   UNL     1       1.040   2.640  18.997  0.00  0.00    +0.000 A 
ATOM     14  C   UNL     1       2.379   2.823  18.719  0.00  0.00    +0.000 A 
ATOM     15  C   UNL     1       3.000   3.253  17.466  0.00  0.00    +0.000 C 
ATOM     16  O   UNL     1       2.462   3.203  16.377  0.00  0.00    +0.000 OA
ENDBRANCH   5   6
BRANCH   1  18
ATOM     17  C   UNL     1       5.973   3.873  14.500  0.00  0.00    +0.000 C 
ATOM     18  C   UNL     1       6.539   4.379  15.812  0.00  0.00    +0.000 C 
ENDBRANCH   1  18
BRANCH   4  19
ATOM     19  S   UNL     1       2.302   6.220  18.297  0.00  0.00    +0.000 S 
BRANCH  19  20
ATOM     20  C   UNL     1       2.424   7.808  19.149  0.00  0.00    +0.000 C 
BRANCH  20  21
ATOM     21  C   UNL     1       1.800   8.958  18.378  0.00  0.00    +0.000 C 
ATOM     22  O   UNL     1       2.042   9.203  17.195  0.00  0.00    +0.000 OA
BRANCH  21  23
ATOM     23  C   UNL     1       0.808   9.817  19.113  0.00  0.00    +0.000 A 
ATOM     24  C   UNL     1       0.986  10.178  20.457  0.00  0.00    +0.000 A 
ATOM     25  C   UNL     1       0.030  10.960  21.114  0.00  0.00    +0.000 A 
ATOM     26  C   UNL     1      -1.116  11.401  20.443  0.00  0.00    +0.000 A 
ATOM     27  C   UNL     1      -2.136  12.249  21.142  0.00  0.00    +0.000 C 
ATOM     28  C   UNL     1      -1.295  11.042  19.106  0.00  0.00    +0.000 A 
ATOM     29  C   UNL     1      -0.342  10.255  18.443  0.00  0.00    +0.000 A 
ENDBRANCH  21  23
ENDBRANCH  20  21
ENDBRANCH  19  20
ENDBRANCH   4  19
TORSDOF 6
ENDMDL
MODEL 7
REMARK VINA RESULT:      -8.6      1.059      1.374
REMARK  Name = 
REMARK  8 active torsions:
REMARK  status: ('A' for Active; 'I' for Inactive)
REMARK    1  A    between atoms: C_1  and  C_2
REMARK    2  A    between atoms: C_2  and  C_3
REMARK    3  A    between atoms: C_6  and  S_7
REMARK    4  A    between atoms: S_7  and  C_8
REMARK    5  A    between atoms: C_8  and  C_9
REMARK    6  A    between atoms: C_9  and  C_11
REMARK    7  A    between atoms: C_14  and  C_15
REMARK    8  A    between atoms: N_18  and  N_19
REMARK                            x       y       z     vdW  Elec       q    Type
REMARK                         _______ _______ _______ _____ _____    ______ ____
ROOT
ATOM      1  C   UNL     1       5.501   5.009  16.257  0.00  0.00    +0.000 A 
ATOM      2  N   UNL     1       5.765   6.303  16.167  0.00  0.00    +0.000 NA
ATOM      3  N   UNL     1       4.951   6.983  17.047  0.00  0.00    +0.000 NA
ATOM      4  C   UNL     1       4.220   6.090  17.675  0.00  0.00    +0.000 A 
ATOM      5  N   UNL     1       4.611   4.828  17.284  0.00  0.00    +0.000 N 
ENDROOT
BRANCH   5   6
ATOM      6  N   UNL     1       4.141   3.640  17.779  0.00  0.00    +0.000 N 
ATOM      7  C   UNL     1       4.469   3.357  19.084  0.00  0.00    +0.000 C 
ATOM      8  O   UNL     1       5.534   3.490  19.657  0.00  0.00    +0.000 OA
ATOM      9  C   UNL     1       3.218   3.006  19.759  0.00  0.00    +0.000 A 
ATOM     10  C   UNL     1       2.939   3.003  21.114  0.00  0.00    +0.000 A 
ATOM     11  C   UNL     1       1.592   3.034  21.487  0.00  0.00    +0.000 A 
ATOM     12  C   UNL     1       0.571   3.048  20.513  0.00  0.00    +0.000 A 
ATOM     13  C   UNL     1       0.878   3.026  19.149  0.00  0.00    +0.000 A 
ATOM     14  C   UNL     1       2.214   3.021  18.806  0.00  0.00    +0.000 A 
ATOM     15  C   UNL     1       2.827   3.350  17.518  0.00  0.00    +0.000 C 
ATOM     16  O   UNL     1       2.235   3.366  16.457  0.00  0.00    +0.000 OA
ENDBRANCH   5   6
BRANCH   1  18
ATOM     17  C   UNL     1       5.540   4.202  13.878  0.00  0.00    +0.000 C 
ATOM     18  C   UNL     1       5.984   3.973  15.309  0.00  0.00    +0.000 C 
ENDBRANCH   1  18
BRANCH   4  19
ATOM     19  S   UNL     1       2.963   6.442  18.816  0.00  0.00    +0.000 S 
BRANCH  19  20
ATOM     20  C   UNL     1       1.791   7.364  17.796  0.00  0.00    +0.000 C 
BRANCH  20  21
ATOM     21  C   UNL     1       1.966   8.870  17.886  0.00  0.00    +0.000 C 
ATOM     22  O   UNL     1       2.998   9.462  17.567  0.00  0.00    +0.000 OA
BRANCH  21  23
ATOM     23  C   UNL     1       0.786   9.669  18.367  0.00  0.00    +0.000 A 
ATOM     24  C   UNL     1      -0.420   9.721  17.652  0.00  0.00    +0.000 A 
ATOM     25  C   UNL     1      -1.488  10.494  18.120  0.00  0.00    +0.000 A 
ATOM     26  C   UNL     1      -1.375  11.225  19.309  0.00  0.00    +0.000 A 
ATOM     27  C   UNL     1      -2.523  12.045  19.817  0.00  0.00    +0.000 C 
ATOM     28  C   UNL     1      -0.176  11.175  20.019  0.00  0.00    +0.000 A 
ATOM     29  C   UNL     1       0.900  10.404  19.554  0.00  0.00    +0.000 A 
ENDBRANCH  21  23
ENDBRANCH  20  21
ENDBRANCH  19  20
ENDBRANCH   4  19
TORSDOF 6
ENDMDL
MODEL 8
REMARK VINA RESULT:      -8.3      0.870      1.010
REMARK  Name = 
REMARK  8 active torsions:
REMARK  status: ('A' for Active; 'I' for Inactive)
REMARK    1  A    between atoms: C_1  and  C_2
REMARK    2  A    between atoms: C_2  and  C_3
REMARK    3  A    between atoms: C_6  and  S_7
REMARK    4  A    between atoms: S_7  and  C_8
REMARK    5  A    between atoms: C_8  and  C_9
REMARK    6  A    between atoms: C_9  and  C_11
REMARK    7  A    between atoms: C_14  and  C_15
REMARK    8  A    between atoms: N_18  and  N_19
REMARK                            x       y       z     vdW  Elec       q    Type
REMARK                         _______ _______ _______ _____ _____    ______ ____
ROOT
ATOM      1  C   UNL     1       5.515   5.636  16.633  0.00  0.00    +0.000 A 
ATOM      2  N   UNL     1       5.439   6.954  16.538  0.00  0.00    +0.000 NA
ATOM      3  N   UNL     1       4.272   7.374  17.139  0.00  0.00    +0.000 NA
ATOM      4  C   UNL     1       3.667   6.307  17.609  0.00  0.00    +0.000 A 
ATOM      5  N   UNL     1       4.468   5.205  17.405  0.00  0.00    +0.000 N 
ENDROOT
BRANCH   5   6
ATOM      6  N   UNL     1       4.219   3.927  17.832  0.00  0.00    +0.000 N 
ATOM      7  C   UNL     1       4.600   3.635  19.120  0.00  0.00    +0.000 C 
ATOM      8  O   UNL     1       5.630   3.922  19.703  0.00  0.00    +0.000 OA
ATOM      9  C   UNL     1       3.436   3.031  19.771  0.00  0.00    +0.000 A 
ATOM     10  C   UNL     1       3.171   2.904  21.123  0.00  0.00    +0.000 A 
ATOM     11  C   UNL     1       1.842   2.676  21.492  0.00  0.00    +0.000 A 
ATOM     12  C   UNL     1       0.828   2.563  20.517  0.00  0.00    +0.000 A 
ATOM     13  C   UNL     1       1.124   2.672  19.155  0.00  0.00    +0.000 A 
ATOM     14  C   UNL     1       2.439   2.922  18.817  0.00  0.00    +0.000 A 
ATOM     15  C   UNL     1       2.975   3.425  17.552  0.00  0.00    +0.000 C 
ATOM     16  O   UNL     1       2.382   3.394  16.491  0.00  0.00    +0.000 OA
ENDBRANCH   5   6
BRANCH   1  18
ATOM     17  C   UNL     1       7.657   4.328  16.752  0.00  0.00    +0.000 C 
ATOM     18  C   UNL     1       6.488   4.785  15.902  0.00  0.00    +0.000 C 
ENDBRANCH   1  18
BRANCH   4  19
ATOM     19  S   UNL     1       2.108   6.288  18.368  0.00  0.00    +0.000 S 
BRANCH  19  20
ATOM     20  C   UNL     1       2.258   7.651  19.544  0.00  0.00    +0.000 C 
BRANCH  20  21
ATOM     21  C   UNL     1       1.514   8.904  19.116  0.00  0.00    +0.000 C 
ATOM     22  O   UNL     1       1.540   9.361  17.972  0.00  0.00    +0.000 OA
BRANCH  21  23
ATOM     23  C   UNL     1       0.679   9.595  20.158  0.00  0.00    +0.000 A 
ATOM     24  C   UNL     1       0.119  10.863  19.944  0.00  0.00    +0.000 A 
ATOM     25  C   UNL     1      -0.634  11.484  20.946  0.00  0.00    +0.000 A 
ATOM     26  C   UNL     1      -0.845  10.852  22.177  0.00  0.00    +0.000 A 
ATOM     27  C   UNL     1      -1.661  11.512  23.248  0.00  0.00    +0.000 C 
ATOM     28  C   UNL     1      -0.288   9.592  22.392  0.00  0.00    +0.000 A 
ATOM     29  C   UNL     1       0.471   8.965  21.392  0.00  0.00    +0.000 A 
ENDBRANCH  21  23
ENDBRANCH  20  21
ENDBRANCH  19  20
ENDBRANCH   4  19
TORSDOF 6
ENDMDL
MODEL 9
REMARK VINA RESULT:      -8.3      2.117      6.542
REMARK  Name = 
REMARK  8 active torsions:
REMARK  status: ('A' for Active; 'I' for Inactive)
REMARK    1  A    between atoms: C_1  and  C_2
REMARK    2  A    between atoms: C_2  and  C_3
REMARK    3  A    between atoms: C_6  and  S_7
REMARK    4  A    between atoms: S_7  and  C_8
REMARK    5  A    between atoms: C_8  and  C_9
REMARK    6  A    between atoms: C_9  and  C_11
REMARK    7  A    between atoms: C_14  and  C_15
REMARK    8  A    between atoms: N_18  and  N_19
REMARK                            x       y       z     vdW  Elec       q    Type
REMARK                         _______ _______ _______ _____ _____    ______ ____
ROOT
ATOM      1  C   UNL     1       2.227   7.473  19.091  0.00  0.00    +0.000 A 
ATOM      2  N   UNL     1       2.238   8.711  18.621  0.00  0.00    +0.000 NA
ATOM      3  N   UNL     1       3.076   8.761  17.527  0.00  0.00    +0.000 NA
ATOM      4  C   UNL     1       3.544   7.548  17.335  0.00  0.00    +0.000 A 
ATOM      5  N   UNL     1       2.951   6.687  18.233  0.00  0.00    +0.000 N 
ENDROOT
BRANCH   5   6
ATOM      6  N   UNL     1       3.119   5.328  18.290  0.00  0.00    +0.000 N 
ATOM      7  C   UNL     1       3.881   4.856  19.332  0.00  0.00    +0.000 C 
ATOM      8  O   UNL     1       4.935   5.280  19.769  0.00  0.00    +0.000 OA
ATOM      9  C   UNL     1       3.097   3.802  19.977  0.00  0.00    +0.000 A 
ATOM     10  C   UNL     1       3.233   3.280  21.251  0.00  0.00    +0.000 A 
ATOM     11  C   UNL     1       2.135   2.593  21.778  0.00  0.00    +0.000 A 
ATOM     12  C   UNL     1       0.952   2.430  21.025  0.00  0.00    +0.000 A 
ATOM     13  C   UNL     1       0.847   2.947  19.730  0.00  0.00    +0.000 A 
ATOM     14  C   UNL     1       1.935   3.642  19.242  0.00  0.00    +0.000 A 
ATOM     15  C   UNL     1       1.991   4.570  18.111  0.00  0.00    +0.000 C 
ATOM     16  O   UNL     1       1.163   4.626  17.223  0.00  0.00    +0.000 OA
ENDBRANCH   5   6
BRANCH   1  18
ATOM     17  C   UNL     1       1.070   8.215  21.194  0.00  0.00    +0.000 C 
ATOM     18  C   UNL     1       1.648   7.064  20.395  0.00  0.00    +0.000 C 
ENDBRANCH   1  18
BRANCH   4  19
ATOM     19  S   UNL     1       4.719   7.101  16.142  0.00  0.00    +0.000 S 
BRANCH  19  20
ATOM     20  C   UNL     1       6.208   6.917  17.147  0.00  0.00    +0.000 C 
BRANCH  20  21
ATOM     21  C   UNL     1       6.985   5.647  16.850  0.00  0.00    +0.000 C 
ATOM     22  O   UNL     1       7.808   5.149  17.620  0.00  0.00    +0.000 OA
BRANCH  21  23
ATOM     23  C   UNL     1       6.697   4.956  15.546  0.00  0.00    +0.000 A 
ATOM     24  C   UNL     1       7.418   5.240  14.376  0.00  0.00    +0.000 A 
ATOM     25  C   UNL     1       7.106   4.593  13.176  0.00  0.00    +0.000 A 
ATOM     26  C   UNL     1       6.074   3.650  13.120  0.00  0.00    +0.000 A 
ATOM     27  C   UNL     1       5.745   2.948  11.837  0.00  0.00    +0.000 C 
ATOM     28  C   UNL     1       5.355   3.367  14.281  0.00  0.00    +0.000 A 
ATOM     29  C   UNL     1       5.661   4.015  15.488  0.00  0.00    +0.000 A 
ENDBRANCH  21  23
ENDBRANCH  20  21
ENDBRANCH  19  20
ENDBRANCH   4  19
TORSDOF 6
ENDMDL
