MODEL 1
REMARK VINA RESULT:      -5.7      0.000      0.000
REMARK  Name = 
REMARK  7 active torsions:
REMARK  status: ('A' for Active; 'I' for Inactive)
REMARK    1  A    between atoms: C_1  and  O_2
REMARK    2  A    between atoms: O_2  and  C_3
REMARK    3  A    between atoms: C_3  and  O_4
REMARK    4  A    between atoms: C_3  and  C_6
REMARK    5  A    between atoms: O_4  and  C_5
REMARK    6  A    between atoms: C_9  and  C_10
REMARK    7  A    between atoms: C_12  and  O_13
REMARK                            x       y       z     vdW  Elec       q    Type
REMARK                         _______ _______ _______ _____ _____    ______ ____
ROOT
ATOM      1  C   UNL     1       5.876   5.231  18.036  0.00  0.00    +0.000 A 
ATOM      2  C   UNL     1       4.694   5.964  17.910  0.00  0.00    +0.000 A 
ATOM      3  C   UNL     1       3.520   5.472  18.475  0.00  0.00    +0.000 A 
ATOM      4  C   UNL     1       3.544   4.262  19.161  0.00  0.00    +0.000 A 
ATOM      5  C   UNL     1       4.757   3.589  19.252  0.00  0.00    +0.000 A 
ATOM      6  N   UNL     1       5.904   4.044  18.703  0.00  0.00    +0.000 NA
ENDROOT
BRANCH   4   7
ATOM      7  C   UNL     1       2.346   3.749  19.741  0.00  0.00    +0.000 C 
ATOM      8  N   UNL     1       1.393   3.318  20.238  0.00  0.00    +0.000 NA
ENDBRANCH   4   7
BRANCH   5   9
ATOM      9  O   UNL     1       4.909   2.399  19.905  0.00  0.00    +0.000 OA
ATOM     10  H   UNL     1       5.649   1.894  19.532  0.00  0.00    +0.000 HD
ENDBRANCH   5   9
BRANCH   1  11
ATOM     11  C   UNL     1       7.186   5.745  17.413  0.00  0.00    +0.000 C 
BRANCH  11  13
ATOM     12  C   UNL     1       6.995   4.784  15.245  0.00  0.00    +0.000 C 
ATOM     13  O   UNL     1       7.703   4.787  16.476  0.00  0.00    +0.000 OA
ENDBRANCH  11  13
BRANCH  11  14
ATOM     14  O   UNL     1       7.086   7.051  16.831  0.00  0.00    +0.000 OA
ATOM     15  C   UNL     1       7.756   8.064  17.565  0.00  0.00    +0.000 C 
ENDBRANCH  11  14
ENDBRANCH   1  11
TORSDOF 5
ENDMDL
MODEL 2
REMARK VINA RESULT:      -5.5      0.492      1.832
REMARK  Name = 
REMARK  7 active torsions:
REMARK  status: ('A' for Active; 'I' for Inactive)
REMARK    1  A    between atoms: C_1  and  O_2
REMARK    2  A    between atoms: O_2  and  C_3
REMARK    3  A    between atoms: C_3  and  O_4
REMARK    4  A    between atoms: C_3  and  C_6
REMARK    5  A    between atoms: O_4  and  C_5
REMARK    6  A    between atoms: C_9  and  C_10
REMARK    7  A    between atoms: C_12  and  O_13
REMARK                            x       y       z     vdW  Elec       q    Type
REMARK                         _______ _______ _______ _____ _____    ______ ____
ROOT
ATOM      1  C   UNL     1       5.608   5.282  18.014  0.00  0.00    +0.000 A 
ATOM      2  C   UNL     1       4.375   5.936  18.066  0.00  0.00    +0.000 A 
ATOM      3  C   UNL     1       3.321   5.356  18.767  0.00  0.00    +0.000 A 
ATOM      4  C   UNL     1       3.514   4.136  19.408  0.00  0.00    +0.000 A 
ATOM      5  C   UNL     1       4.768   3.544  19.318  0.00  0.00    +0.000 A 
ATOM      6  N   UNL     1       5.800   4.086  18.636  0.00  0.00    +0.000 NA
ENDROOT
BRANCH   4   7
ATOM      7  C   UNL     1       2.439   3.532  20.126  0.00  0.00    +0.000 C 
ATOM      8  N   UNL     1       1.561   3.020  20.681  0.00  0.00    +0.000 NA
ENDBRANCH   4   7
BRANCH   5   9
ATOM      9  O   UNL     1       5.082   2.354  19.909  0.00  0.00    +0.000 OA
ATOM     10  H   UNL     1       5.979   2.379  20.279  0.00  0.00    +0.000 HD
ENDBRANCH   5   9
BRANCH   1  11
ATOM     11  C   UNL     1       6.787   5.896  17.238  0.00  0.00    +0.000 C 
BRANCH  11  13
ATOM     12  C   UNL     1       7.828   7.993  17.659  0.00  0.00    +0.000 C 
ATOM     13  O   UNL     1       7.619   6.667  18.120  0.00  0.00    +0.000 OA
ENDBRANCH  11  13
BRANCH  11  14
ATOM     14  O   UNL     1       7.552   4.947  16.486  0.00  0.00    +0.000 OA
ATOM     15  C   UNL     1       6.986   4.611  15.230  0.00  0.00    +0.000 C 
ENDBRANCH  11  14
ENDBRANCH   1  11
TORSDOF 5
ENDMDL
MODEL 3
REMARK VINA RESULT:      -5.5      2.125      5.148
REMARK  Name = 
REMARK  7 active torsions:
REMARK  status: ('A' for Active; 'I' for Inactive)
REMARK    1  A    between atoms: C_1  and  O_2
REMARK    2  A    between atoms: O_2  and  C_3
REMARK    3  A    between atoms: C_3  and  O_4
REMARK    4  A    between atoms: C_3  and  C_6
REMARK    5  A    between atoms: O_4  and  C_5
REMARK    6  A    between atoms: C_9  and  C_10
REMARK    7  A    between atoms: C_12  and  O_13
REMARK                            x       y       z     vdW  Elec       q    Type
REMARK                         _______ _______ _______ _____ _____    ______ ____
ROOT
ATOM      1  C   UNL     1       3.736   4.420  18.778  0.00  0.00    +0.000 A 
ATOM      2  C   UNL     1       3.552   5.138  17.595  0.00  0.00    +0.000 A 
ATOM      3  C   UNL     1       4.565   5.977  17.137  0.00  0.00    +0.000 A 
ATOM      4  C   UNL     1       5.747   6.083  17.865  0.00  0.00    +0.000 A 
ATOM      5  C   UNL     1       5.863   5.337  19.031  0.00  0.00    +0.000 A 
ATOM      6  N   UNL     1       4.889   4.525  19.496  0.00  0.00    +0.000 NA
ENDROOT
BRANCH   4   7
ATOM      7  C   UNL     1       6.789   6.942  17.406  0.00  0.00    +0.000 C 
ATOM      8  N   UNL     1       7.631   7.626  17.000  0.00  0.00    +0.000 NA
ENDBRANCH   4   7
BRANCH   5   9
ATOM      9  O   UNL     1       6.974   5.351  19.825  0.00  0.00    +0.000 OA
ATOM     10  H   UNL     1       7.769   5.537  19.302  0.00  0.00    +0.000 HD
ENDBRANCH   5   9
BRANCH   1  11
ATOM     11  C   UNL     1       2.629   3.494  19.312  0.00  0.00    +0.000 C 
BRANCH  11  13
ATOM     12  C   UNL     1       3.483   1.471  18.396  0.00  0.00    +0.000 C 
ATOM     13  O   UNL     1       2.411   2.401  18.405  0.00  0.00    +0.000 OA
ENDBRANCH  11  13
BRANCH  11  14
ATOM     14  O   UNL     1       2.845   3.033  20.651  0.00  0.00    +0.000 OA
ATOM     15  C   UNL     1       1.656   2.887  21.412  0.00  0.00    +0.000 C 
ENDBRANCH  11  14
ENDBRANCH   1  11
TORSDOF 5
ENDMDL
MODEL 4
REMARK VINA RESULT:      -5.5      2.173      5.298
REMARK  Name = 
REMARK  7 active torsions:
REMARK  status: ('A' for Active; 'I' for Inactive)
REMARK    1  A    between atoms: C_1  and  O_2
REMARK    2  A    between atoms: O_2  and  C_3
REMARK    3  A    between atoms: C_3  and  O_4
REMARK    4  A    between atoms: C_3  and  C_6
REMARK    5  A    between atoms: O_4  and  C_5
REMARK    6  A    between atoms: C_9  and  C_10
REMARK    7  A    between atoms: C_12  and  O_13
REMARK                            x       y       z     vdW  Elec       q    Type
REMARK                         _______ _______ _______ _____ _____    ______ ____
ROOT
ATOM      1  C   UNL     1       4.764   4.387  18.347  0.00  0.00    +0.000 A 
ATOM      2  C   UNL     1       4.153   4.851  17.180  0.00  0.00    +0.000 A 
ATOM      3  C   UNL     1       4.930   5.103  16.053  0.00  0.00    +0.000 A 
ATOM      4  C   UNL     1       6.303   4.883  16.104  0.00  0.00    +0.000 A 
ATOM      5  C   UNL     1       6.843   4.416  17.296  0.00  0.00    +0.000 A 
ATOM      6  N   UNL     1       6.108   4.174  18.403  0.00  0.00    +0.000 NA
ENDROOT
BRANCH   4   7
ATOM      7  C   UNL     1       7.108   5.140  14.955  0.00  0.00    +0.000 C 
ATOM      8  N   UNL     1       7.757   5.384  14.027  0.00  0.00    +0.000 NA
ENDBRANCH   4   7
BRANCH   5   9
ATOM      9  O   UNL     1       8.173   4.155  17.468  0.00  0.00    +0.000 OA
ATOM     10  H   UNL     1       8.371   3.227  17.265  0.00  0.00    +0.000 HD
ENDBRANCH   5   9
BRANCH   1  11
ATOM     11  C   UNL     1       3.931   4.111  19.611  0.00  0.00    +0.000 C 
BRANCH  11  13
ATOM     12  C   UNL     1       2.057   5.245  20.539  0.00  0.00    +0.000 C 
ATOM     13  O   UNL     1       2.574   4.542  19.419  0.00  0.00    +0.000 OA
ENDBRANCH  11  13
BRANCH  11  14
ATOM     14  O   UNL     1       3.993   2.756  20.070  0.00  0.00    +0.000 OA
ATOM     15  C   UNL     1       3.515   1.804  19.134  0.00  0.00    +0.000 C 
ENDBRANCH  11  14
ENDBRANCH   1  11
TORSDOF 5
ENDMDL
MODEL 5
REMARK VINA RESULT:      -5.4      2.187      5.455
REMARK  Name = 
REMARK  7 active torsions:
REMARK  status: ('A' for Active; 'I' for Inactive)
REMARK    1  A    between atoms: C_1  and  O_2
REMARK    2  A    between atoms: O_2  and  C_3
REMARK    3  A    between atoms: C_3  and  O_4
REMARK    4  A    between atoms: C_3  and  C_6
REMARK    5  A    between atoms: O_4  and  C_5
REMARK    6  A    between atoms: C_9  and  C_10
REMARK    7  A    between atoms: C_12  and  O_13
REMARK                            x       y       z     vdW  Elec       q    Type
REMARK                         _______ _______ _______ _____ _____    ______ ____
ROOT
ATOM      1  C   UNL     1       4.052   3.892  18.482  0.00  0.00    +0.000 A 
ATOM      2  C   UNL     1       3.648   4.189  17.179  0.00  0.00    +0.000 A 
ATOM      3  C   UNL     1       4.602   4.554  16.232  0.00  0.00    +0.000 A 
ATOM      4  C   UNL     1       5.944   4.613  16.599  0.00  0.00    +0.000 A 
ATOM      5  C   UNL     1       6.273   4.301  17.912  0.00  0.00    +0.000 A 
ATOM      6  N   UNL     1       5.362   3.953  18.847  0.00  0.00    +0.000 NA
ENDROOT
BRANCH   4   7
ATOM      7  C   UNL     1       6.928   4.989  15.637  0.00  0.00    +0.000 C 
ATOM      8  N   UNL     1       7.700   5.301  14.833  0.00  0.00    +0.000 NA
ENDBRANCH   4   7
BRANCH   5   9
ATOM      9  O   UNL     1       7.553   4.315  18.390  0.00  0.00    +0.000 OA
ATOM     10  H   UNL     1       8.182   4.062  17.696  0.00  0.00    +0.000 HD
ENDBRANCH   5   9
BRANCH   1  11
ATOM     11  C   UNL     1       3.018   3.496  19.551  0.00  0.00    +0.000 C 
BRANCH  11  13
ATOM     12  C   UNL     1       2.051   5.310  20.748  0.00  0.00    +0.000 C 
ATOM     13  O   UNL     1       1.961   4.468  19.609  0.00  0.00    +0.000 OA
ENDBRANCH  11  13
BRANCH  11  14
ATOM     14  O   UNL     1       2.504   2.167  19.406  0.00  0.00    +0.000 OA
ATOM     15  C   UNL     1       1.181   2.109  18.897  0.00  0.00    +0.000 C 
ENDBRANCH  11  14
ENDBRANCH   1  11
TORSDOF 5
ENDMDL
MODEL 6
REMARK VINA RESULT:      -5.4      1.422      2.378
REMARK  Name = 
REMARK  7 active torsions:
REMARK  status: ('A' for Active; 'I' for Inactive)
REMARK    1  A    between atoms: C_1  and  O_2
REMARK    2  A    between atoms: O_2  and  C_3
REMARK    3  A    between atoms: C_3  and  O_4
REMARK    4  A    between atoms: C_3  and  C_6
REMARK    5  A    between atoms: O_4  and  C_5
REMARK    6  A    between atoms: C_9  and  C_10
REMARK    7  A    between atoms: C_12  and  O_13
REMARK                            x       y       z     vdW  Elec       q    Type
REMARK                         _______ _______ _______ _____ _____    ______ ____
ROOT
ATOM      1  C   UNL     1       4.265   4.563  17.551  0.00  0.00    +0.000 A 
ATOM      2  C   UNL     1       3.023   5.067  17.941  0.00  0.00    +0.000 A 
ATOM      3  C   UNL     1       2.426   4.593  19.107  0.00  0.00    +0.000 A 
ATOM      4  C   UNL     1       3.080   3.628  19.867  0.00  0.00    +0.000 A 
ATOM      5  C   UNL     1       4.316   3.175  19.421  0.00  0.00    +0.000 A 
ATOM      6  N   UNL     1       4.907   3.616  18.290  0.00  0.00    +0.000 NA
ENDROOT
BRANCH   4   7
ATOM      7  C   UNL     1       2.476   3.133  21.061  0.00  0.00    +0.000 C 
ATOM      8  N   UNL     1       1.960   2.758  22.028  0.00  0.00    +0.000 NA
ENDBRANCH   4   7
BRANCH   5   9
ATOM      9  O   UNL     1       5.057   2.238  20.083  0.00  0.00    +0.000 OA
ATOM     10  H   UNL     1       4.988   2.360  21.043  0.00  0.00    +0.000 HD
ENDBRANCH   5   9
BRANCH   1  11
ATOM     11  C   UNL     1       4.943   5.062  16.262  0.00  0.00    +0.000 C 
BRANCH  11  13
ATOM     12  C   UNL     1       6.273   6.799  17.195  0.00  0.00    +0.000 C 
ATOM     13  O   UNL     1       5.187   6.476  16.341  0.00  0.00    +0.000 OA
ENDBRANCH  11  13
BRANCH  11  14
ATOM     14  O   UNL     1       6.128   4.341  15.905  0.00  0.00    +0.000 OA
ATOM     15  C   UNL     1       6.247   4.075  14.517  0.00  0.00    +0.000 C 
ENDBRANCH  11  14
ENDBRANCH   1  11
TORSDOF 5
ENDMDL
MODEL 7
REMARK VINA RESULT:      -5.4      2.270      5.274
REMARK  Name = 
REMARK  7 active torsions:
REMARK  status: ('A' for Active; 'I' for Inactive)
REMARK    1  A    between atoms: C_1  and  O_2
REMARK    2  A    between atoms: O_2  and  C_3
REMARK    3  A    between atoms: C_3  and  O_4
REMARK    4  A    between atoms: C_3  and  C_6
REMARK    5  A    between atoms: O_4  and  C_5
REMARK    6  A    between atoms: C_9  and  C_10
REMARK    7  A    between atoms: C_12  and  O_13
REMARK                            x       y       z     vdW  Elec       q    Type
REMARK                         _______ _______ _______ _____ _____    ______ ____
ROOT
ATOM      1  C   UNL     1       3.782   4.394  18.691  0.00  0.00    +0.000 A 
ATOM      2  C   UNL     1       3.616   5.114  17.506  0.00  0.00    +0.000 A 
ATOM      3  C   UNL     1       4.627   5.970  17.077  0.00  0.00    +0.000 A 
ATOM      4  C   UNL     1       5.789   6.091  17.832  0.00  0.00    +0.000 A 
ATOM      5  C   UNL     1       5.888   5.341  18.998  0.00  0.00    +0.000 A 
ATOM      6  N   UNL     1       4.916   4.513  19.436  0.00  0.00    +0.000 NA
ENDROOT
BRANCH   4   7
ATOM      7  C   UNL     1       6.829   6.968  17.402  0.00  0.00    +0.000 C 
ATOM      8  N   UNL     1       7.672   7.695  17.084  0.00  0.00    +0.000 NA
ENDBRANCH   4   7
BRANCH   5   9
ATOM      9  O   UNL     1       6.980   5.368  19.818  0.00  0.00    +0.000 OA
ATOM     10  H   UNL     1       7.775   5.629  19.327  0.00  0.00    +0.000 HD
ENDBRANCH   5   9
BRANCH   1  11
ATOM     11  C   UNL     1       2.677   3.449  19.195  0.00  0.00    +0.000 C 
BRANCH  11  13
ATOM     12  C   UNL     1       1.481   4.949  20.602  0.00  0.00    +0.000 C 
ATOM     13  O   UNL     1       1.457   4.177  19.411  0.00  0.00    +0.000 OA
ENDBRANCH  11  13
BRANCH  11  14
ATOM     14  O   UNL     1       2.465   2.300  18.367  0.00  0.00    +0.000 OA
ATOM     15  C   UNL     1       3.568   1.408  18.321  0.00  0.00    +0.000 C 
ENDBRANCH  11  14
ENDBRANCH   1  11
TORSDOF 5
ENDMDL
MODEL 8
REMARK VINA RESULT:      -5.3      2.439      5.266
REMARK  Name = 
REMARK  7 active torsions:
REMARK  status: ('A' for Active; 'I' for Inactive)
REMARK    1  A    between atoms: C_1  and  O_2
REMARK    2  A    between atoms: O_2  and  C_3
REMARK    3  A    between atoms: C_3  and  O_4
REMARK    4  A    between atoms: C_3  and  C_6
REMARK    5  A    between atoms: O_4  and  C_5
REMARK    6  A    between atoms: C_9  and  C_10
REMARK    7  A    between atoms: C_12  and  O_13
REMARK                            x       y       z     vdW  Elec       q    Type
REMARK                         _______ _______ _______ _____ _____    ______ ____
ROOT
ATOM      1  C   UNL     1       3.120   4.549  18.915  0.00  0.00    +0.000 A 
ATOM      2  C   UNL     1       3.144   4.214  17.560  0.00  0.00    +0.000 A 
ATOM      3  C   UNL     1       4.358   4.206  16.877  0.00  0.00    +0.000 A 
ATOM      4  C   UNL     1       5.529   4.528  17.558  0.00  0.00    +0.000 A 
ATOM      5  C   UNL     1       5.431   4.848  18.907  0.00  0.00    +0.000 A 
ATOM      6  N   UNL     1       4.262   4.869  19.584  0.00  0.00    +0.000 NA
ENDROOT
BRANCH   4   7
ATOM      7  C   UNL     1       6.777   4.526  16.866  0.00  0.00    +0.000 C 
ATOM      8  N   UNL     1       7.775   4.544  16.279  0.00  0.00    +0.000 NA
ENDBRANCH   4   7
BRANCH   5   9
ATOM      9  O   UNL     1       6.507   5.173  19.683  0.00  0.00    +0.000 OA
ATOM     10  H   UNL     1       6.257   5.811  20.369  0.00  0.00    +0.000 HD
ENDBRANCH   5   9
BRANCH   1  11
ATOM     11  C   UNL     1       1.792   4.575  19.692  0.00  0.00    +0.000 C 
BRANCH  11  13
ATOM     12  C   UNL     1       1.395   2.891  21.323  0.00  0.00    +0.000 C 
ATOM     13  O   UNL     1       1.336   3.237  19.948  0.00  0.00    +0.000 OA
ENDBRANCH  11  13
BRANCH  11  14
ATOM     14  O   UNL     1       1.828   5.359  20.890  0.00  0.00    +0.000 OA
ATOM     15  C   UNL     1       1.572   6.740  20.687  0.00  0.00    +0.000 C 
ENDBRANCH  11  14
ENDBRANCH   1  11
TORSDOF 5
ENDMDL
MODEL 9
REMARK VINA RESULT:      -5.3      2.172      5.520
REMARK  Name = 
REMARK  7 active torsions:
REMARK  status: ('A' for Active; 'I' for Inactive)
REMARK    1  A    between atoms: C_1  and  O_2
REMARK    2  A    between atoms: O_2  and  C_3
REMARK    3  A    between atoms: C_3  and  O_4
REMARK    4  A    between atoms: C_3  and  C_6
REMARK    5  A    between atoms: O_4  and  C_5
REMARK    6  A    between atoms: C_9  and  C_10
REMARK    7  A    between atoms: C_12  and  O_13
REMARK                            x       y       z     vdW  Elec       q    Type
REMARK                         _______ _______ _______ _____ _____    ______ ____
ROOT
ATOM      1  C   UNL     1       3.879   3.495  18.801  0.00  0.00    +0.000 A 
ATOM      2  C   UNL     1       3.784   3.677  17.419  0.00  0.00    +0.000 A 
ATOM      3  C   UNL     1       4.732   4.458  16.764  0.00  0.00    +0.000 A 
ATOM      4  C   UNL     1       5.763   5.041  17.496  0.00  0.00    +0.000 A 
ATOM      5  C   UNL     1       5.799   4.813  18.866  0.00  0.00    +0.000 A 
ATOM      6  N   UNL     1       4.883   4.066  19.521  0.00  0.00    +0.000 NA
ENDROOT
BRANCH   4   7
ATOM      7  C   UNL     1       6.738   5.845  16.834  0.00  0.00    +0.000 C 
ATOM      8  N   UNL     1       7.546   6.468  16.287  0.00  0.00    +0.000 NA
ENDBRANCH   4   7
BRANCH   5   9
ATOM      9  O   UNL     1       6.763   5.323  19.688  0.00  0.00    +0.000 OA
ATOM     10  H   UNL     1       7.470   4.675  19.832  0.00  0.00    +0.000 HD
ENDBRANCH   5   9
BRANCH   1  11
ATOM     11  C   UNL     1       2.839   2.645  19.552  0.00  0.00    +0.000 C 
BRANCH  11  13
ATOM     12  C   UNL     1       2.209   2.870  21.834  0.00  0.00    +0.000 C 
ATOM     13  O   UNL     1       3.226   2.479  20.925  0.00  0.00    +0.000 OA
ENDBRANCH  11  13
BRANCH  11  14
ATOM     14  O   UNL     1       1.495   3.126  19.438  0.00  0.00    +0.000 OA
ATOM     15  C   UNL     1       0.642   2.289  18.673  0.00  0.00    +0.000 C 
ENDBRANCH  11  14
ENDBRANCH   1  11
TORSDOF 5
ENDMDL
