MODEL 1
REMARK VINA RESULT:      -8.7      0.000      0.000
REMARK  Name = 
REMARK  8 active torsions:
REMARK  status: ('A' for Active; 'I' for Inactive)
REMARK    1  A    between atoms: C_1  and  C_2
REMARK    2  A    between atoms: C_2  and  C_20
REMARK    3  A    between atoms: N_3  and  N_4
REMARK    4  A    between atoms: C_5  and  C_7
REMARK    5  A    between atoms: C_7  and  N_8
REMARK    6  A    between atoms: N_8  and  C_9
REMARK    7  A    between atoms: N_8  and  S_16
REMARK    8  A    between atoms: S_16  and  C_17
REMARK                            x       y       z     vdW  Elec       q    Type
REMARK                         _______ _______ _______ _____ _____    ______ ____
ROOT
ATOM      1  N   UNL     1       7.785   6.851  18.144  0.00  0.00    +0.000 N 
ATOM      2  C   UNL     1       7.403   5.765  18.923  0.00  0.00    +0.000 C 
ATOM      3  O   UNL     1       7.708   5.622  20.116  0.00  0.00    +0.000 OA
ATOM      4  H   UNL     1       7.920   6.673  17.147  0.00  0.00    +0.000 HD
ENDROOT
BRANCH   1   7
ATOM      5  C   UNL     1       7.305   9.520  17.175  0.00  0.00    +0.000 C 
ATOM      6  C   UNL     1       8.315   9.131  18.242  0.00  0.00    +0.000 C 
ATOM      7  N   UNL     1       8.546   7.900  18.641  0.00  0.00    +0.000 NA
BRANCH   6   8
ATOM      8  C   UNL     1       9.096  10.281  18.840  0.00  0.00    +0.000 A 
ATOM      9  C   UNL     1       9.146  10.460  20.240  0.00  0.00    +0.000 A 
ATOM     10  C   UNL     1       9.885  11.491  20.813  0.00  0.00    +0.000 A 
ATOM     11  C   UNL     1      10.592  12.369  20.007  0.00  0.00    +0.000 A 
ATOM     12  C   UNL     1      10.562  12.209  18.618  0.00  0.00    +0.000 A 
ATOM     13  C   UNL     1       9.812  11.180  18.035  0.00  0.00    +0.000 A 
ATOM     14  O   UNL     1      11.243  13.040  17.765  0.00  0.00    +0.000 OA
ATOM     15  C   UNL     1      12.252  13.789  18.457  0.00  0.00    +0.000 C 
ATOM     16  C   UNL     1      11.712  14.378  19.749  0.00  0.00    +0.000 C 
ATOM     17  O   UNL     1      11.304  13.346  20.648  0.00  0.00    +0.000 OA
ENDBRANCH   6   8
ENDBRANCH   1   7
BRANCH   2  18
ATOM     18  C   UNL     1       6.621   4.666  18.245  0.00  0.00    +0.000 C 
BRANCH  18  19
ATOM     19  N   UNL     1       5.594   5.025  17.248  0.00  0.00    +0.000 N 
BRANCH  19  20
ATOM     20  C   UNL     1       4.235   4.586  17.455  0.00  0.00    +0.000 A 
ATOM     21  C   UNL     1       3.909   3.224  17.367  0.00  0.00    +0.000 A 
ATOM     22  C   UNL     1       2.615   2.778  17.674  0.00  0.00    +0.000 A 
ATOM     23  C   UNL     1       1.644   3.684  18.093  0.00  0.00    +0.000 A 
ATOM     24  C   UNL     1       1.946   5.044  18.154  0.00  0.00    +0.000 A 
ATOM     25  C   UNL     1       3.225   5.497  17.805  0.00  0.00    +0.000 A 
ATOM     26 BR   UNL     1       3.520   7.373  17.814  0.00  0.00    +0.000 Br
ENDBRANCH  19  20
BRANCH  19  27
ATOM     27  S   UNL     1       6.109   5.412  15.695  0.00  0.00    +0.000 S 
ATOM     28  C   UNL     1       5.652   3.969  14.743  0.00  0.00    +0.000 C 
ATOM     29  O   UNL     1       5.355   6.535  15.184  0.00  0.00    +0.000 OA
ATOM     30  O   UNL     1       7.558   5.439  15.755  0.00  0.00    +0.000 OA
ENDBRANCH  19  27
ENDBRANCH  18  19
ENDBRANCH   2  18
TORSDOF 6
ENDMDL
MODEL 2
REMARK VINA RESULT:      -8.2      1.968      2.759
REMARK  Name = 
REMARK  8 active torsions:
REMARK  status: ('A' for Active; 'I' for Inactive)
REMARK    1  A    between atoms: C_1  and  C_2
REMARK    2  A    between atoms: C_2  and  C_20
REMARK    3  A    between atoms: N_3  and  N_4
REMARK    4  A    between atoms: C_5  and  C_7
REMARK    5  A    between atoms: C_7  and  N_8
REMARK    6  A    between atoms: N_8  and  C_9
REMARK    7  A    between atoms: N_8  and  S_16
REMARK    8  A    between atoms: S_16  and  C_17
REMARK                            x       y       z     vdW  Elec       q    Type
REMARK                         _______ _______ _______ _____ _____    ______ ____
ROOT
ATOM      1  N   UNL     1       8.562   8.689  18.601  0.00  0.00    +0.000 N 
ATOM      2  C   UNL     1       7.669   7.881  17.907  0.00  0.00    +0.000 C 
ATOM      3  O   UNL     1       7.160   8.181  16.817  0.00  0.00    +0.000 OA
ATOM      4  H   UNL     1       8.545   8.619  19.621  0.00  0.00    +0.000 HD
ENDROOT
BRANCH   1   7
ATOM      5  C   UNL     1       9.345  10.729  20.476  0.00  0.00    +0.000 C 
ATOM      6  C   UNL     1       9.385  10.852  18.962  0.00  0.00    +0.000 C 
ATOM      7  N   UNL     1       8.985   9.923  18.125  0.00  0.00    +0.000 NA
BRANCH   6   8
ATOM      8  C   UNL     1       9.916  12.169  18.436  0.00  0.00    +0.000 A 
ATOM      9  C   UNL     1      11.037  12.197  17.579  0.00  0.00    +0.000 A 
ATOM     10  C   UNL     1      11.522  13.393  17.057  0.00  0.00    +0.000 A 
ATOM     11  C   UNL     1      10.902  14.591  17.376  0.00  0.00    +0.000 A 
ATOM     12  C   UNL     1       9.786  14.588  18.219  0.00  0.00    +0.000 A 
ATOM     13  C   UNL     1       9.301  13.389  18.756  0.00  0.00    +0.000 A 
ATOM     14  O   UNL     1       9.124  15.737  18.570  0.00  0.00    +0.000 OA
ATOM     15  C   UNL     1       9.451  16.821  17.690  0.00  0.00    +0.000 C 
ATOM     16  C   UNL     1      10.949  16.903  17.451  0.00  0.00    +0.000 C 
ATOM     17  O   UNL     1      11.430  15.720  16.813  0.00  0.00    +0.000 OA
ENDBRANCH   6   8
ENDBRANCH   1   7
BRANCH   2  18
ATOM     18  C   UNL     1       7.251   6.587  18.563  0.00  0.00    +0.000 C 
BRANCH  18  19
ATOM     19  N   UNL     1       6.387   5.651  17.817  0.00  0.00    +0.000 N 
BRANCH  19  20
ATOM     20  C   UNL     1       5.204   5.130  18.459  0.00  0.00    +0.000 A 
ATOM     21  C   UNL     1       5.256   3.917  19.163  0.00  0.00    +0.000 A 
ATOM     22  C   UNL     1       4.141   3.459  19.880  0.00  0.00    +0.000 A 
ATOM     23  C   UNL     1       2.973   4.218  19.918  0.00  0.00    +0.000 A 
ATOM     24  C   UNL     1       2.898   5.409  19.196  0.00  0.00    +0.000 A 
ATOM     25  C   UNL     1       3.996   5.846  18.443  0.00  0.00    +0.000 A 
ATOM     26 BR   UNL     1       3.773   7.421  17.406  0.00  0.00    +0.000 Br
ENDBRANCH  19  20
BRANCH  19  27
ATOM     27  S   UNL     1       7.069   4.809  16.532  0.00  0.00    +0.000 S 
ATOM     28  C   UNL     1       5.775   3.669  16.060  0.00  0.00    +0.000 C 
ATOM     29  O   UNL     1       7.299   5.701  15.417  0.00  0.00    +0.000 OA
ATOM     30  O   UNL     1       8.143   4.020  17.102  0.00  0.00    +0.000 OA
ENDBRANCH  19  27
ENDBRANCH  18  19
ENDBRANCH   2  18
TORSDOF 6
ENDMDL
MODEL 3
REMARK VINA RESULT:      -8.2      6.524      9.402
REMARK  Name = 
REMARK  8 active torsions:
REMARK  status: ('A' for Active; 'I' for Inactive)
REMARK    1  A    between atoms: C_1  and  C_2
REMARK    2  A    between atoms: C_2  and  C_20
REMARK    3  A    between atoms: N_3  and  N_4
REMARK    4  A    between atoms: C_5  and  C_7
REMARK    5  A    between atoms: C_7  and  N_8
REMARK    6  A    between atoms: N_8  and  C_9
REMARK    7  A    between atoms: N_8  and  S_16
REMARK    8  A    between atoms: S_16  and  C_17
REMARK                            x       y       z     vdW  Elec       q    Type
REMARK                         _______ _______ _______ _____ _____    ______ ____
ROOT
ATOM      1  N   UNL     1       1.220   9.414  20.485  0.00  0.00    +0.000 N 
ATOM      2  C   UNL     1       0.038   9.354  21.214  0.00  0.00    +0.000 C 
ATOM      3  O   UNL     1      -0.586   8.309  21.445  0.00  0.00    +0.000 OA
ATOM      4  H   UNL     1       1.386  10.271  19.953  0.00  0.00    +0.000 HD
ENDROOT
BRANCH   1   7
ATOM      5  C   UNL     1       1.923   9.388  17.693  0.00  0.00    +0.000 C 
ATOM      6  C   UNL     1       2.196   8.271  18.688  0.00  0.00    +0.000 C 
ATOM      7  N   UNL     1       1.830   8.288  19.949  0.00  0.00    +0.000 NA
BRANCH   6   8
ATOM      8  C   UNL     1       2.927   7.071  18.126  0.00  0.00    +0.000 A 
ATOM      9  C   UNL     1       2.454   5.764  18.376  0.00  0.00    +0.000 A 
ATOM     10  C   UNL     1       3.092   4.649  17.841  0.00  0.00    +0.000 A 
ATOM     11  C   UNL     1       4.215   4.806  17.044  0.00  0.00    +0.000 A 
ATOM     12  C   UNL     1       4.699   6.091  16.779  0.00  0.00    +0.000 A 
ATOM     13  C   UNL     1       4.069   7.217  17.322  0.00  0.00    +0.000 A 
ATOM     14  O   UNL     1       5.803   6.316  15.995  0.00  0.00    +0.000 OA
ATOM     15  C   UNL     1       6.126   5.166  15.202  0.00  0.00    +0.000 C 
ATOM     16  C   UNL     1       6.087   3.896  16.034  0.00  0.00    +0.000 C 
ATOM     17  O   UNL     1       4.776   3.662  16.547  0.00  0.00    +0.000 OA
ENDBRANCH   6   8
ENDBRANCH   1   7
BRANCH   2  18
ATOM     18  C   UNL     1      -0.547  10.660  21.694  0.00  0.00    +0.000 C 
BRANCH  18  19
ATOM     19  N   UNL     1      -0.714  11.769  20.734  0.00  0.00    +0.000 N 
BRANCH  19  20
ATOM     20  C   UNL     1      -1.619  11.601  19.622  0.00  0.00    +0.000 A 
ATOM     21  C   UNL     1      -1.227  10.862  18.495  0.00  0.00    +0.000 A 
ATOM     22  C   UNL     1      -2.136  10.603  17.460  0.00  0.00    +0.000 A 
ATOM     23  C   UNL     1      -3.449  11.057  17.552  0.00  0.00    +0.000 A 
ATOM     24  C   UNL     1      -3.843  11.820  18.651  0.00  0.00    +0.000 A 
ATOM     25  C   UNL     1      -2.923  12.118  19.666  0.00  0.00    +0.000 A 
ATOM     26 BR   UNL     1      -3.512  13.249  21.073  0.00  0.00    +0.000 Br
ENDBRANCH  19  20
BRANCH  19  27
ATOM     27  S   UNL     1       0.516  12.910  20.633  0.00  0.00    +0.000 S 
ATOM     28  C   UNL     1      -0.182  14.169  19.572  0.00  0.00    +0.000 C 
ATOM     29  O   UNL     1       0.751  13.507  21.929  0.00  0.00    +0.000 OA
ATOM     30  O   UNL     1       1.586  12.274  19.889  0.00  0.00    +0.000 OA
ENDBRANCH  19  27
ENDBRANCH  18  19
ENDBRANCH   2  18
TORSDOF 6
ENDMDL
MODEL 4
REMARK VINA RESULT:      -8.1      6.706     10.048
REMARK  Name = 
REMARK  8 active torsions:
REMARK  status: ('A' for Active; 'I' for Inactive)
REMARK    1  A    between atoms: C_1  and  C_2
REMARK    2  A    between atoms: C_2  and  C_20
REMARK    3  A    between atoms: N_3  and  N_4
REMARK    4  A    between atoms: C_5  and  C_7
REMARK    5  A    between atoms: C_7  and  N_8
REMARK    6  A    between atoms: N_8  and  C_9
REMARK    7  A    between atoms: N_8  and  S_16
REMARK    8  A    between atoms: S_16  and  C_17
REMARK                            x       y       z     vdW  Elec       q    Type
REMARK                         _______ _______ _______ _____ _____    ______ ____
ROOT
ATOM      1  N   UNL     1       1.207   9.529  20.476  0.00  0.00    +0.000 N 
ATOM      2  C   UNL     1       0.055   9.734  21.225  0.00  0.00    +0.000 C 
ATOM      3  O   UNL     1      -0.680   8.825  21.637  0.00  0.00    +0.000 OA
ATOM      4  H   UNL     1       1.454  10.261  19.807  0.00  0.00    +0.000 HD
ENDROOT
BRANCH   1   7
ATOM      5  C   UNL     1       2.031   9.036  17.761  0.00  0.00    +0.000 C 
ATOM      6  C   UNL     1       2.076   8.029  18.900  0.00  0.00    +0.000 C 
ATOM      7  N   UNL     1       1.657   8.264  20.122  0.00  0.00    +0.000 NA
BRANCH   6   8
ATOM      8  C   UNL     1       2.636   6.671  18.537  0.00  0.00    +0.000 A 
ATOM      9  C   UNL     1       3.712   6.561  17.629  0.00  0.00    +0.000 A 
ATOM     10  C   UNL     1       4.264   5.324  17.306  0.00  0.00    +0.000 A 
ATOM     11  C   UNL     1       3.760   4.167  17.880  0.00  0.00    +0.000 A 
ATOM     12  C   UNL     1       2.698   4.253  18.786  0.00  0.00    +0.000 A 
ATOM     13  C   UNL     1       2.131   5.492  19.106  0.00  0.00    +0.000 A 
ATOM     14  O   UNL     1       2.156   3.147  19.393  0.00  0.00    +0.000 OA
ATOM     15  C   UNL     1       3.031   2.015  19.298  0.00  0.00    +0.000 C 
ATOM     16  C   UNL     1       3.581   1.860  17.890  0.00  0.00    +0.000 C 
ATOM     17  O   UNL     1       4.366   2.995  17.522  0.00  0.00    +0.000 OA
ENDBRANCH   6   8
ENDBRANCH   1   7
BRANCH   2  18
ATOM     18  C   UNL     1      -0.352  11.163  21.495  0.00  0.00    +0.000 C 
BRANCH  18  19
ATOM     19  N   UNL     1      -0.588  12.069  20.354  0.00  0.00    +0.000 N 
BRANCH  19  20
ATOM     20  C   UNL     1      -1.553  11.692  19.349  0.00  0.00    +0.000 A 
ATOM     21  C   UNL     1      -1.180  10.855  18.287  0.00  0.00    +0.000 A 
ATOM     22  C   UNL     1      -2.135  10.397  17.369  0.00  0.00    +0.000 A 
ATOM     23  C   UNL     1      -3.474  10.750  17.518  0.00  0.00    +0.000 A 
ATOM     24  C   UNL     1      -3.853  11.607  18.551  0.00  0.00    +0.000 A 
ATOM     25  C   UNL     1      -2.893  12.102  19.442  0.00  0.00    +0.000 A 
ATOM     26 BR   UNL     1      -3.477  13.345  20.753  0.00  0.00    +0.000 Br
ENDBRANCH  19  20
BRANCH  19  27
ATOM     27  S   UNL     1       0.619  13.173  19.966  0.00  0.00    +0.000 S 
ATOM     28  C   UNL     1       0.847  14.079  21.491  0.00  0.00    +0.000 C 
ATOM     29  O   UNL     1       1.855  12.479  19.676  0.00  0.00    +0.000 OA
ATOM     30  O   UNL     1       0.025  14.089  19.012  0.00  0.00    +0.000 OA
ENDBRANCH  19  27
ENDBRANCH  18  19
ENDBRANCH   2  18
TORSDOF 6
ENDMDL
MODEL 5
REMARK VINA RESULT:      -8.0      6.775      9.414
REMARK  Name = 
REMARK  8 active torsions:
REMARK  status: ('A' for Active; 'I' for Inactive)
REMARK    1  A    between atoms: C_1  and  C_2
REMARK    2  A    between atoms: C_2  and  C_20
REMARK    3  A    between atoms: N_3  and  N_4
REMARK    4  A    between atoms: C_5  and  C_7
REMARK    5  A    between atoms: C_7  and  N_8
REMARK    6  A    between atoms: N_8  and  C_9
REMARK    7  A    between atoms: N_8  and  S_16
REMARK    8  A    between atoms: S_16  and  C_17
REMARK                            x       y       z     vdW  Elec       q    Type
REMARK                         _______ _______ _______ _____ _____    ______ ____
ROOT
ATOM      1  N   UNL     1       0.661   9.450  20.471  0.00  0.00    +0.000 N 
ATOM      2  C   UNL     1       0.610   9.997  21.747  0.00  0.00    +0.000 C 
ATOM      3  O   UNL     1       1.339   9.644  22.686  0.00  0.00    +0.000 OA
ATOM      4  H   UNL     1      -0.217   9.428  19.947  0.00  0.00    +0.000 HD
ENDROOT
BRANCH   1   7
ATOM      5  C   UNL     1       1.388   9.123  17.704  0.00  0.00    +0.000 C 
ATOM      6  C   UNL     1       1.932   8.310  18.867  0.00  0.00    +0.000 C 
ATOM      7  N   UNL     1       1.556   8.449  20.118  0.00  0.00    +0.000 NA
BRANCH   6   8
ATOM      8  C   UNL     1       2.964   7.266  18.496  0.00  0.00    +0.000 A 
ATOM      9  C   UNL     1       3.146   6.122  19.304  0.00  0.00    +0.000 A 
ATOM     10  C   UNL     1       4.065   5.134  18.964  0.00  0.00    +0.000 A 
ATOM     11  C   UNL     1       4.827   5.260  17.813  0.00  0.00    +0.000 A 
ATOM     12  C   UNL     1       4.660   6.382  16.995  0.00  0.00    +0.000 A 
ATOM     13  C   UNL     1       3.745   7.385  17.336  0.00  0.00    +0.000 A 
ATOM     14  O   UNL     1       5.378   6.566  15.839  0.00  0.00    +0.000 OA
ATOM     15  C   UNL     1       5.981   5.342  15.397  0.00  0.00    +0.000 C 
ATOM     16  C   UNL     1       6.652   4.611  16.548  0.00  0.00    +0.000 C 
ATOM     17  O   UNL     1       5.697   4.241  17.542  0.00  0.00    +0.000 OA
ENDBRANCH   6   8
ENDBRANCH   1   7
BRANCH   2  18
ATOM     18  C   UNL     1      -0.447  11.041  22.013  0.00  0.00    +0.000 C 
BRANCH  18  19
ATOM     19  N   UNL     1      -0.651  12.123  21.029  0.00  0.00    +0.000 N 
BRANCH  19  20
ATOM     20  C   UNL     1      -1.823  12.090  20.188  0.00  0.00    +0.000 A 
ATOM     21  C   UNL     1      -1.811  11.371  18.983  0.00  0.00    +0.000 A 
ATOM     22  C   UNL     1      -2.977  11.244  18.214  0.00  0.00    +0.000 A 
ATOM     23  C   UNL     1      -4.170  11.813  18.654  0.00  0.00    +0.000 A 
ATOM     24  C   UNL     1      -4.188  12.557  19.833  0.00  0.00    +0.000 A 
ATOM     25  C   UNL     1      -3.014  12.723  20.579  0.00  0.00    +0.000 A 
ATOM     26 BR   UNL     1      -3.104  13.838  22.114  0.00  0.00    +0.000 Br
ENDBRANCH  19  20
BRANCH  19  27
ATOM     27  S   UNL     1       0.696  12.999  20.535  0.00  0.00    +0.000 S 
ATOM     28  C   UNL     1      -0.018  14.462  19.796  0.00  0.00    +0.000 C 
ATOM     29  O   UNL     1       1.468  13.417  21.685  0.00  0.00    +0.000 OA
ATOM     30  O   UNL     1       1.295  12.230  19.462  0.00  0.00    +0.000 OA
ENDBRANCH  19  27
ENDBRANCH  18  19
ENDBRANCH   2  18
TORSDOF 6
ENDMDL
MODEL 6
REMARK VINA RESULT:      -7.8      6.672      9.690
REMARK  Name = 
REMARK  8 active torsions:
REMARK  status: ('A' for Active; 'I' for Inactive)
REMARK    1  A    between atoms: C_1  and  C_2
REMARK    2  A    between atoms: C_2  and  C_20
REMARK    3  A    between atoms: N_3  and  N_4
REMARK    4  A    between atoms: C_5  and  C_7
REMARK    5  A    between atoms: C_7  and  N_8
REMARK    6  A    between atoms: N_8  and  C_9
REMARK    7  A    between atoms: N_8  and  S_16
REMARK    8  A    between atoms: S_16  and  C_17
REMARK                            x       y       z     vdW  Elec       q    Type
REMARK                         _______ _______ _______ _____ _____    ______ ____
ROOT
ATOM      1  N   UNL     1       1.243  10.363  18.625  0.00  0.00    +0.000 N 
ATOM      2  C   UNL     1       1.637  11.691  18.524  0.00  0.00    +0.000 C 
ATOM      3  O   UNL     1       2.681  12.069  17.972  0.00  0.00    +0.000 OA
ATOM      4  H   UNL     1       0.695  10.109  19.450  0.00  0.00    +0.000 HD
ENDROOT
BRANCH   1   7
ATOM      5  C   UNL     1       1.658   7.991  20.205  0.00  0.00    +0.000 C 
ATOM      6  C   UNL     1       2.154   8.210  18.785  0.00  0.00    +0.000 C 
ATOM      7  N   UNL     1       1.987   9.316  18.097  0.00  0.00    +0.000 NA
BRANCH   6   8
ATOM      8  C   UNL     1       2.902   7.043  18.177  0.00  0.00    +0.000 A 
ATOM      9  C   UNL     1       2.471   5.719  18.409  0.00  0.00    +0.000 A 
ATOM     10  C   UNL     1       3.124   4.633  17.833  0.00  0.00    +0.000 A 
ATOM     11  C   UNL     1       4.221   4.838  17.012  0.00  0.00    +0.000 A 
ATOM     12  C   UNL     1       4.663   6.142  16.763  0.00  0.00    +0.000 A 
ATOM     13  C   UNL     1       4.018   7.238  17.348  0.00  0.00    +0.000 A 
ATOM     14  O   UNL     1       5.739   6.414  15.956  0.00  0.00    +0.000 OA
ATOM     15  C   UNL     1       6.073   5.291  15.129  0.00  0.00    +0.000 C 
ATOM     16  C   UNL     1       6.089   4.002  15.933  0.00  0.00    +0.000 C 
ATOM     17  O   UNL     1       4.798   3.721  16.474  0.00  0.00    +0.000 OA
ENDBRANCH   6   8
ENDBRANCH   1   7
BRANCH   2  18
ATOM     18  C   UNL     1       0.763  12.727  19.190  0.00  0.00    +0.000 C 
BRANCH  18  19
ATOM     19  N   UNL     1       0.844  12.901  20.653  0.00  0.00    +0.000 N 
BRANCH  19  20
ATOM     20  C   UNL     1      -0.264  12.468  21.471  0.00  0.00    +0.000 A 
ATOM     21  C   UNL     1      -0.186  11.266  22.191  0.00  0.00    +0.000 A 
ATOM     22  C   UNL     1      -1.212  10.892  23.071  0.00  0.00    +0.000 A 
ATOM     23  C   UNL     1      -2.312  11.726  23.257  0.00  0.00    +0.000 A 
ATOM     24  C   UNL     1      -2.417  12.908  22.524  0.00  0.00    +0.000 A 
ATOM     25  C   UNL     1      -1.414  13.261  21.611  0.00  0.00    +0.000 A 
ATOM     26 BR   UNL     1      -1.687  14.831  20.579  0.00  0.00    +0.000 Br
ENDBRANCH  19  20
BRANCH  19  27
ATOM     27  S   UNL     1       1.905  14.062  21.248  0.00  0.00    +0.000 S 
ATOM     28  C   UNL     1       1.986  15.257  19.920  0.00  0.00    +0.000 C 
ATOM     29  O   UNL     1       1.330  14.720  22.400  0.00  0.00    +0.000 OA
ATOM     30  O   UNL     1       3.200  13.414  21.316  0.00  0.00    +0.000 OA
ENDBRANCH  19  27
ENDBRANCH  18  19
ENDBRANCH   2  18
TORSDOF 6
ENDMDL
MODEL 7
REMARK VINA RESULT:      -7.7      1.435      1.571
REMARK  Name = 
REMARK  8 active torsions:
REMARK  status: ('A' for Active; 'I' for Inactive)
REMARK    1  A    between atoms: C_1  and  C_2
REMARK    2  A    between atoms: C_2  and  C_20
REMARK    3  A    between atoms: N_3  and  N_4
REMARK    4  A    between atoms: C_5  and  C_7
REMARK    5  A    between atoms: C_7  and  N_8
REMARK    6  A    between atoms: N_8  and  C_9
REMARK    7  A    between atoms: N_8  and  S_16
REMARK    8  A    between atoms: S_16  and  C_17
REMARK                            x       y       z     vdW  Elec       q    Type
REMARK                         _______ _______ _______ _____ _____    ______ ____
ROOT
ATOM      1  N   UNL     1       7.844   6.614  18.294  0.00  0.00    +0.000 N 
ATOM      2  C   UNL     1       7.406   5.613  19.152  0.00  0.00    +0.000 C 
ATOM      3  O   UNL     1       7.610   5.604  20.375  0.00  0.00    +0.000 OA
ATOM      4  H   UNL     1       8.065   6.331  17.336  0.00  0.00    +0.000 HD
ENDROOT
BRANCH   1   7
ATOM      5  C   UNL     1       7.219   9.206  17.205  0.00  0.00    +0.000 C 
ATOM      6  C   UNL     1       8.255   8.920  18.281  0.00  0.00    +0.000 C 
ATOM      7  N   UNL     1       8.552   7.724  18.734  0.00  0.00    +0.000 NA
BRANCH   6   8
ATOM      8  C   UNL     1       8.977  10.137  18.818  0.00  0.00    +0.000 A 
ATOM      9  C   UNL     1       9.199  10.282  20.205  0.00  0.00    +0.000 A 
ATOM     10  C   UNL     1       9.891  11.376  20.717  0.00  0.00    +0.000 A 
ATOM     11  C   UNL     1      10.379  12.352  19.863  0.00  0.00    +0.000 A 
ATOM     12  C   UNL     1      10.176  12.227  18.485  0.00  0.00    +0.000 A 
ATOM     13  C   UNL     1       9.471  11.135  17.963  0.00  0.00    +0.000 A 
ATOM     14  O   UNL     1      10.636  13.154  17.584  0.00  0.00    +0.000 OA
ATOM     15  C   UNL     1      11.641  13.996  18.166  0.00  0.00    +0.000 C 
ATOM     16  C   UNL     1      11.222  14.483  19.543  0.00  0.00    +0.000 C 
ATOM     17  O   UNL     1      11.059  13.387  20.443  0.00  0.00    +0.000 OA
ENDBRANCH   6   8
ENDBRANCH   1   7
BRANCH   2  18
ATOM     18  C   UNL     1       6.693   4.433  18.536  0.00  0.00    +0.000 C 
BRANCH  18  19
ATOM     19  N   UNL     1       5.311   4.605  18.046  0.00  0.00    +0.000 N 
BRANCH  19  20
ATOM     20  C   UNL     1       4.217   4.453  18.976  0.00  0.00    +0.000 A 
ATOM     21  C   UNL     1       4.035   3.243  19.664  0.00  0.00    +0.000 A 
ATOM     22  C   UNL     1       3.042   3.124  20.647  0.00  0.00    +0.000 A 
ATOM     23  C   UNL     1       2.240   4.216  20.967  0.00  0.00    +0.000 A 
ATOM     24  C   UNL     1       2.389   5.413  20.269  0.00  0.00    +0.000 A 
ATOM     25  C   UNL     1       3.351   5.521  19.255  0.00  0.00    +0.000 A 
ATOM     26 BR   UNL     1       3.416   7.152  18.283  0.00  0.00    +0.000 Br
ENDBRANCH  19  20
BRANCH  19  27
ATOM     27  S   UNL     1       5.031   4.406  16.401  0.00  0.00    +0.000 S 
ATOM     28  C   UNL     1       5.237   6.059  15.751  0.00  0.00    +0.000 C 
ATOM     29  O   UNL     1       6.058   3.571  15.817  0.00  0.00    +0.000 OA
ATOM     30  O   UNL     1       3.625   4.073  16.277  0.00  0.00    +0.000 OA
ENDBRANCH  19  27
ENDBRANCH  18  19
ENDBRANCH   2  18
TORSDOF 6
ENDMDL
MODEL 8
REMARK VINA RESULT:      -7.7      7.409     10.732
REMARK  Name = 
REMARK  8 active torsions:
REMARK  status: ('A' for Active; 'I' for Inactive)
REMARK    1  A    between atoms: C_1  and  C_2
REMARK    2  A    between atoms: C_2  and  C_20
REMARK    3  A    between atoms: N_3  and  N_4
REMARK    4  A    between atoms: C_5  and  C_7
REMARK    5  A    between atoms: C_7  and  N_8
REMARK    6  A    between atoms: N_8  and  C_9
REMARK    7  A    between atoms: N_8  and  S_16
REMARK    8  A    between atoms: S_16  and  C_17
REMARK                            x       y       z     vdW  Elec       q    Type
REMARK                         _______ _______ _______ _____ _____    ______ ____
ROOT
ATOM      1  N   UNL     1       1.123  10.374  19.322  0.00  0.00    +0.000 N 
ATOM      2  C   UNL     1      -0.176  10.817  19.104  0.00  0.00    +0.000 C 
ATOM      3  O   UNL     1      -1.103  10.091  18.716  0.00  0.00    +0.000 OA
ATOM      4  H   UNL     1       1.871  11.053  19.162  0.00  0.00    +0.000 HD
ENDROOT
BRANCH   1   7
ATOM      5  C   UNL     1       1.423   8.658  21.615  0.00  0.00    +0.000 C 
ATOM      6  C   UNL     1       1.611   8.243  20.165  0.00  0.00    +0.000 C 
ATOM      7  N   UNL     1       1.508   9.053  19.136  0.00  0.00    +0.000 NA
BRANCH   6   8
ATOM      8  C   UNL     1       1.957   6.785  19.952  0.00  0.00    +0.000 A 
ATOM      9  C   UNL     1       1.471   5.798  20.837  0.00  0.00    +0.000 A 
ATOM     10  C   UNL     1       1.750   4.449  20.640  0.00  0.00    +0.000 A 
ATOM     11  C   UNL     1       2.518   4.048  19.558  0.00  0.00    +0.000 A 
ATOM     12  C   UNL     1       3.006   5.008  18.665  0.00  0.00    +0.000 A 
ATOM     13  C   UNL     1       2.738   6.368  18.863  0.00  0.00    +0.000 A 
ATOM     14  O   UNL     1       3.768   4.678  17.573  0.00  0.00    +0.000 OA
ATOM     15  C   UNL     1       3.658   3.283  17.258  0.00  0.00    +0.000 C 
ATOM     16  C   UNL     1       3.789   2.426  18.506  0.00  0.00    +0.000 C 
ATOM     17  O   UNL     1       2.735   2.704  19.428  0.00  0.00    +0.000 OA
ENDBRANCH   6   8
ENDBRANCH   1   7
BRANCH   2  18
ATOM     18  C   UNL     1      -0.447  12.290  19.292  0.00  0.00    +0.000 C 
BRANCH  18  19
ATOM     19  N   UNL     1      -0.448  12.851  20.657  0.00  0.00    +0.000 N 
BRANCH  19  20
ATOM     20  C   UNL     1      -1.710  13.122  21.302  0.00  0.00    +0.000 A 
ATOM     21  C   UNL     1      -2.505  14.198  20.879  0.00  0.00    +0.000 A 
ATOM     22  C   UNL     1      -3.780  14.402  21.426  0.00  0.00    +0.000 A 
ATOM     23  C   UNL     1      -4.282  13.520  22.380  0.00  0.00    +0.000 A 
ATOM     24  C   UNL     1      -3.490  12.465  22.831  0.00  0.00    +0.000 A 
ATOM     25  C   UNL     1      -2.198  12.286  22.319  0.00  0.00    +0.000 A 
ATOM     26 BR   UNL     1      -1.149  10.890  23.064  0.00  0.00    +0.000 Br
ENDBRANCH  19  20
BRANCH  19  27
ATOM     27  S   UNL     1       0.933  13.660  21.173  0.00  0.00    +0.000 S 
ATOM     28  C   UNL     1       1.165  14.911  19.916  0.00  0.00    +0.000 C 
ATOM     29  O   UNL     1       0.677  14.336  22.426  0.00  0.00    +0.000 OA
ATOM     30  O   UNL     1       2.021  12.712  21.034  0.00  0.00    +0.000 OA
ENDBRANCH  19  27
ENDBRANCH  18  19
ENDBRANCH   2  18
TORSDOF 6
ENDMDL
MODEL 9
REMARK VINA RESULT:      -7.6      7.129     10.114
REMARK  Name = 
REMARK  8 active torsions:
REMARK  status: ('A' for Active; 'I' for Inactive)
REMARK    1  A    between atoms: C_1  and  C_2
REMARK    2  A    between atoms: C_2  and  C_20
REMARK    3  A    between atoms: N_3  and  N_4
REMARK    4  A    between atoms: C_5  and  C_7
REMARK    5  A    between atoms: C_7  and  N_8
REMARK    6  A    between atoms: N_8  and  C_9
REMARK    7  A    between atoms: N_8  and  S_16
REMARK    8  A    between atoms: S_16  and  C_17
REMARK                            x       y       z     vdW  Elec       q    Type
REMARK                         _______ _______ _______ _____ _____    ______ ____
ROOT
ATOM      1  N   UNL     1       1.128  10.719  18.886  0.00  0.00    +0.000 N 
ATOM      2  C   UNL     1      -0.247  10.902  18.802  0.00  0.00    +0.000 C 
ATOM      3  O   UNL     1      -1.025  10.103  18.260  0.00  0.00    +0.000 OA
ATOM      4  H   UNL     1       1.702  11.565  18.888  0.00  0.00    +0.000 HD
ENDROOT
BRANCH   1   7
ATOM      5  C   UNL     1       1.538   8.431  20.585  0.00  0.00    +0.000 C 
ATOM      6  C   UNL     1       1.930   8.531  19.120  0.00  0.00    +0.000 C 
ATOM      7  N   UNL     1       1.769   9.600  18.374  0.00  0.00    +0.000 NA
BRANCH   6   8
ATOM      8  C   UNL     1       2.562   7.286  18.536  0.00  0.00    +0.000 A 
ATOM      9  C   UNL     1       2.055   6.008  18.858  0.00  0.00    +0.000 A 
ATOM     10  C   UNL     1       2.600   4.852  18.306  0.00  0.00    +0.000 A 
ATOM     11  C   UNL     1       3.662   4.939  17.421  0.00  0.00    +0.000 A 
ATOM     12  C   UNL     1       4.178   6.194  17.083  0.00  0.00    +0.000 A 
ATOM     13  C   UNL     1       3.642   7.360  17.642  0.00  0.00    +0.000 A 
ATOM     14  O   UNL     1       5.225   6.350  16.209  0.00  0.00    +0.000 OA
ATOM     15  C   UNL     1       5.436   5.168  15.426  0.00  0.00    +0.000 C 
ATOM     16  C   UNL     1       5.408   3.921  16.293  0.00  0.00    +0.000 C 
ATOM     17  O   UNL     1       4.132   3.759  16.913  0.00  0.00    +0.000 OA
ENDBRANCH   6   8
ENDBRANCH   1   7
BRANCH   2  18
ATOM     18  C   UNL     1      -0.811  12.190  19.352  0.00  0.00    +0.000 C 
BRANCH  18  19
ATOM     19  N   UNL     1      -0.520  12.562  20.751  0.00  0.00    +0.000 N 
BRANCH  19  20
ATOM     20  C   UNL     1      -1.620  12.746  21.667  0.00  0.00    +0.000 A 
ATOM     21  C   UNL     1      -2.490  13.837  21.519  0.00  0.00    +0.000 A 
ATOM     22  C   UNL     1      -3.622  13.964  22.337  0.00  0.00    +0.000 A 
ATOM     23  C   UNL     1      -3.907  12.992  23.293  0.00  0.00    +0.000 A 
ATOM     24  C   UNL     1      -3.032  11.920  23.473  0.00  0.00    +0.000 A 
ATOM     25  C   UNL     1      -1.877  11.816  22.687  0.00  0.00    +0.000 A 
ATOM     26 BR   UNL     1      -0.688  10.385  23.068  0.00  0.00    +0.000 Br
ENDBRANCH  19  20
BRANCH  19  27
ATOM     27  S   UNL     1       0.960  13.288  21.078  0.00  0.00    +0.000 S 
ATOM     28  C   UNL     1       1.278  14.247  19.603  0.00  0.00    +0.000 C 
ATOM     29  O   UNL     1       0.829  14.211  22.184  0.00  0.00    +0.000 OA
ATOM     30  O   UNL     1       1.931  12.212  21.103  0.00  0.00    +0.000 OA
ENDBRANCH  19  27
ENDBRANCH  18  19
ENDBRANCH   2  18
TORSDOF 6
ENDMDL
