MODEL 1
REMARK VINA RESULT:      -8.7      0.000      0.000
REMARK  Name = 
REMARK  13 active torsions:
REMARK  status: ('A' for Active; 'I' for Inactive)
REMARK    1  A    between atoms: C_1  and  C_2
REMARK    2  A    between atoms: C_4  and  O_5
REMARK    3  A    between atoms: O_5  and  C_6
REMARK    4  A    between atoms: C_6  and  C_7
REMARK    5  A    between atoms: C_7  and  C_8
REMARK    6  A    between atoms: C_13  and  C_14
REMARK    7  A    between atoms: C_15  and  C_16
REMARK    8  A    between atoms: C_20  and  C_21
REMARK    9  A    between atoms: C_21  and  O_22
REMARK   10  A    between atoms: O_22  and  C_23
REMARK   11  A    between atoms: C_31  and  C_32
REMARK   12  A    between atoms: C_32  and  C_33
REMARK   13  A    between atoms: C_33  and  O_35
REMARK                            x       y       z     vdW  Elec       q    Type
REMARK                         _______ _______ _______ _____ _____    ______ ____
ROOT
ATOM      1  C   UNL     1       1.200   9.409  19.851  0.00  0.00    +0.000 A 
ATOM      2  C   UNL     1       1.349   9.673  18.477  0.00  0.00    +0.000 A 
ATOM      3  C   UNL     1       2.029   8.801  17.615  0.00  0.00    +0.000 A 
ATOM      4  C   UNL     1       2.461   7.570  18.081  0.00  0.00    +0.000 A 
ATOM      5  C   UNL     1       2.260   7.237  19.420  0.00  0.00    +0.000 A 
ATOM      6  C   UNL     1       1.728   8.190  20.299  0.00  0.00    +0.000 A 
ENDROOT
BRANCH   1  14
ATOM      7  C   UNL     1       1.611  12.433  19.704  0.00  0.00    +0.000 C 
ATOM      8  C   UNL     1       0.679  11.760  20.686  0.00  0.00    +0.000 A 
ATOM      9  C   UNL     1      -0.004  12.632  21.558  0.00  0.00    +0.000 A 
ATOM     10  C   UNL     1      -0.752  12.166  22.632  0.00  0.00    +0.000 A 
ATOM     11  C   UNL     1      -0.901  10.795  22.778  0.00  0.00    +0.000 A 
ATOM     12  C   UNL     1      -0.324   9.882  21.862  0.00  0.00    +0.000 A 
ATOM     13  C   UNL     1      -0.645   8.425  22.110  0.00  0.00    +0.000 C 
ATOM     14  C   UNL     1       0.514  10.350  20.797  0.00  0.00    +0.000 A 
BRANCH  10  15
ATOM     15  O   UNL     1      -1.348  12.953  23.588  0.00  0.00    +0.000 OA
BRANCH  15  16
ATOM     16  C   UNL     1      -2.298  13.901  23.080  0.00  0.00    +0.000 C 
BRANCH  16  17
ATOM     17  C   UNL     1      -3.726  13.367  23.197  0.00  0.00    +0.000 C 
ATOM     18  C   UNL     1      -3.940  12.417  24.361  0.00  0.00    +0.000 C 
ATOM     19  C   UNL     1      -4.184  12.815  21.833  0.00  0.00    +0.000 C 
ATOM     20  O   UNL     1      -4.993  13.990  21.588  0.00  0.00    +0.000 OA
ATOM     21  C   UNL     1      -4.844  14.402  22.971  0.00  0.00    +0.000 C 
ENDBRANCH  16  17
ENDBRANCH  15  16
ENDBRANCH  10  15
ENDBRANCH   1  14
BRANCH   5  22
ATOM     22  C   UNL     1       2.613   5.873  19.935  0.00  0.00    +0.000 C 
BRANCH  22  23
ATOM     23  O   UNL     1       4.032   5.615  19.896  0.00  0.00    +0.000 OA
BRANCH  23  24
ATOM     24  C   UNL     1       4.434   5.117  18.675  0.00  0.00    +0.000 A 
ATOM     25  C   UNL     1       3.706   4.073  18.063  0.00  0.00    +0.000 A 
ATOM     26  C   UNL     1       3.987   3.644  16.725  0.00  0.00    +0.000 A 
ATOM     27  C   UNL     1       4.961   4.311  16.010  0.00  0.00    +0.000 A 
ATOM     28  C   UNL     1       5.686   5.303  16.684  0.00  0.00    +0.000 A 
ATOM     29  C   UNL     1       5.503   5.658  17.998  0.00  0.00    +0.000 A 
ATOM     30  O   UNL     1       6.592   5.984  15.917  0.00  0.00    +0.000 OA
ATOM     31  C   UNL     1       6.090   5.682  14.612  0.00  0.00    +0.000 C 
ATOM     32  C   UNL     1       5.675   4.205  14.681  0.00  0.00    +0.000 C 
BRANCH  32  33
ATOM     33  C   UNL     1       5.350   3.658  13.288  0.00  0.00    +0.000 C 
BRANCH  33  34
ATOM     34  C   UNL     1       6.504   3.442  12.329  0.00  0.00    +0.000 C 
ATOM     35  O   UNL     1       7.305   4.299  11.996  0.00  0.00    +0.000 OA
BRANCH  34  36
ATOM     36  O   UNL     1       6.580   2.176  11.846  0.00  0.00    +0.000 OA
ATOM     37  H   UNL     1       7.421   1.701  11.997  0.00  0.00    +0.000 HD
ENDBRANCH  34  36
ENDBRANCH  33  34
ENDBRANCH  32  33
ENDBRANCH  23  24
ENDBRANCH  22  23
ENDBRANCH   5  22
TORSDOF 10
ENDMDL
MODEL 2
REMARK VINA RESULT:      -8.7      2.861      4.152
REMARK  Name = 
REMARK  13 active torsions:
REMARK  status: ('A' for Active; 'I' for Inactive)
REMARK    1  A    between atoms: C_1  and  C_2
REMARK    2  A    between atoms: C_4  and  O_5
REMARK    3  A    between atoms: O_5  and  C_6
REMARK    4  A    between atoms: C_6  and  C_7
REMARK    5  A    between atoms: C_7  and  C_8
REMARK    6  A    between atoms: C_13  and  C_14
REMARK    7  A    between atoms: C_15  and  C_16
REMARK    8  A    between atoms: C_20  and  C_21
REMARK    9  A    between atoms: C_21  and  O_22
REMARK   10  A    between atoms: O_22  and  C_23
REMARK   11  A    between atoms: C_31  and  C_32
REMARK   12  A    between atoms: C_32  and  C_33
REMARK   13  A    between atoms: C_33  and  O_35
REMARK                            x       y       z     vdW  Elec       q    Type
REMARK                         _______ _______ _______ _____ _____    ______ ____
ROOT
ATOM      1  C   UNL     1       2.138   6.540  19.878  0.00  0.00    +0.000 A 
ATOM      2  C   UNL     1       1.230   5.679  20.524  0.00  0.00    +0.000 A 
ATOM      3  C   UNL     1       1.529   4.336  20.788  0.00  0.00    +0.000 A 
ATOM      4  C   UNL     1       2.802   3.851  20.534  0.00  0.00    +0.000 A 
ATOM      5  C   UNL     1       3.755   4.696  19.967  0.00  0.00    +0.000 A 
ATOM      6  C   UNL     1       3.384   5.985  19.561  0.00  0.00    +0.000 A 
ENDROOT
BRANCH   1  14
ATOM      7  C   UNL     1       2.896   7.788  17.194  0.00  0.00    +0.000 C 
ATOM      8  C   UNL     1       2.137   8.522  18.277  0.00  0.00    +0.000 A 
ATOM      9  C   UNL     1       1.795   9.855  17.970  0.00  0.00    +0.000 A 
ATOM     10  C   UNL     1       1.261  10.718  18.918  0.00  0.00    +0.000 A 
ATOM     11  C   UNL     1       0.972  10.208  20.175  0.00  0.00    +0.000 A 
ATOM     12  C   UNL     1       1.196   8.847  20.495  0.00  0.00    +0.000 A 
ATOM     13  C   UNL     1       0.753   8.425  21.879  0.00  0.00    +0.000 C 
ATOM     14  C   UNL     1       1.819   7.968  19.549  0.00  0.00    +0.000 A 
BRANCH  10  15
ATOM     15  O   UNL     1       1.010  12.055  18.727  0.00  0.00    +0.000 OA
BRANCH  15  16
ATOM     16  C   UNL     1       2.181  12.873  18.589  0.00  0.00    +0.000 C 
BRANCH  16  17
ATOM     17  C   UNL     1       2.089  14.120  19.467  0.00  0.00    +0.000 C 
ATOM     18  C   UNL     1       2.124  15.427  18.696  0.00  0.00    +0.000 C 
ATOM     19  C   UNL     1       3.123  14.027  20.606  0.00  0.00    +0.000 C 
ATOM     20  O   UNL     1       2.093  13.678  21.562  0.00  0.00    +0.000 OA
ATOM     21  C   UNL     1       1.061  14.054  20.613  0.00  0.00    +0.000 C 
ENDBRANCH  16  17
ENDBRANCH  15  16
ENDBRANCH  10  15
ENDBRANCH   1  14
BRANCH   5  22
ATOM     22  C   UNL     1       5.172   4.241  19.781  0.00  0.00    +0.000 C 
BRANCH  22  23
ATOM     23  O   UNL     1       5.933   5.130  18.936  0.00  0.00    +0.000 OA
BRANCH  23  24
ATOM     24  C   UNL     1       6.043   4.651  17.647  0.00  0.00    +0.000 A 
ATOM     25  C   UNL     1       5.046   3.800  17.122  0.00  0.00    +0.000 A 
ATOM     26  C   UNL     1       5.035   3.419  15.741  0.00  0.00    +0.000 A 
ATOM     27  C   UNL     1       5.997   3.945  14.904  0.00  0.00    +0.000 A 
ATOM     28  C   UNL     1       6.991   4.742  15.489  0.00  0.00    +0.000 A 
ATOM     29  C   UNL     1       7.080   5.034  16.828  0.00  0.00    +0.000 A 
ATOM     30  O   UNL     1       7.882   5.297  14.612  0.00  0.00    +0.000 OA
ATOM     31  C   UNL     1       7.140   5.180  13.395  0.00  0.00    +0.000 C 
ATOM     32  C   UNL     1       6.469   3.802  13.474  0.00  0.00    +0.000 C 
BRANCH  32  33
ATOM     33  C   UNL     1       5.838   3.419  12.132  0.00  0.00    +0.000 C 
BRANCH  33  34
ATOM     34  C   UNL     1       6.242   2.093  11.517  0.00  0.00    +0.000 C 
ATOM     35  O   UNL     1       5.468   1.217  11.173  0.00  0.00    +0.000 OA
BRANCH  34  36
ATOM     36  O   UNL     1       7.585   1.947  11.375  0.00  0.00    +0.000 OA
ATOM     37  H   UNL     1       8.127   2.749  11.503  0.00  0.00    +0.000 HD
ENDBRANCH  34  36
ENDBRANCH  33  34
ENDBRANCH  32  33
ENDBRANCH  23  24
ENDBRANCH  22  23
ENDBRANCH   5  22
TORSDOF 10
ENDMDL
MODEL 3
REMARK VINA RESULT:      -8.4      2.249     11.360
REMARK  Name = 
REMARK  13 active torsions:
REMARK  status: ('A' for Active; 'I' for Inactive)
REMARK    1  A    between atoms: C_1  and  C_2
REMARK    2  A    between atoms: C_4  and  O_5
REMARK    3  A    between atoms: O_5  and  C_6
REMARK    4  A    between atoms: C_6  and  C_7
REMARK    5  A    between atoms: C_7  and  C_8
REMARK    6  A    between atoms: C_13  and  C_14
REMARK    7  A    between atoms: C_15  and  C_16
REMARK    8  A    between atoms: C_20  and  C_21
REMARK    9  A    between atoms: C_21  and  O_22
REMARK   10  A    between atoms: O_22  and  C_23
REMARK   11  A    between atoms: C_31  and  C_32
REMARK   12  A    between atoms: C_32  and  C_33
REMARK   13  A    between atoms: C_33  and  O_35
REMARK                            x       y       z     vdW  Elec       q    Type
REMARK                         _______ _______ _______ _____ _____    ______ ____
ROOT
ATOM      1  C   UNL     1       0.961   8.883  20.640  0.00  0.00    +0.000 A 
ATOM      2  C   UNL     1       0.059   8.243  21.511  0.00  0.00    +0.000 A 
ATOM      3  C   UNL     1      -0.707   8.947  22.449  0.00  0.00    +0.000 A 
ATOM      4  C   UNL     1      -0.693  10.333  22.447  0.00  0.00    +0.000 A 
ATOM      5  C   UNL     1       0.128  11.008  21.546  0.00  0.00    +0.000 A 
ATOM      6  C   UNL     1       1.008  10.281  20.732  0.00  0.00    +0.000 A 
ENDROOT
BRANCH   1  14
ATOM      7  C   UNL     1       1.742  10.084  17.942  0.00  0.00    +0.000 C 
ATOM      8  C   UNL     1       2.216   8.732  18.427  0.00  0.00    +0.000 A 
ATOM      9  C   UNL     1       3.058   8.036  17.536  0.00  0.00    +0.000 A 
ATOM     10  C   UNL     1       3.429   6.715  17.750  0.00  0.00    +0.000 A 
ATOM     11  C   UNL     1       3.030   6.108  18.932  0.00  0.00    +0.000 A 
ATOM     12  C   UNL     1       2.276   6.804  19.907  0.00  0.00    +0.000 A 
ATOM     13  C   UNL     1       1.989   6.032  21.177  0.00  0.00    +0.000 C 
ATOM     14  C   UNL     1       1.822   8.142  19.661  0.00  0.00    +0.000 A 
BRANCH  10  15
ATOM     15  O   UNL     1       4.148   5.938  16.874  0.00  0.00    +0.000 OA
BRANCH  15  16
ATOM     16  C   UNL     1       5.135   5.097  17.487  0.00  0.00    +0.000 C 
BRANCH  16  17
ATOM     17  C   UNL     1       6.547   5.609  17.207  0.00  0.00    +0.000 C 
ATOM     18  C   UNL     1       6.705   7.111  17.362  0.00  0.00    +0.000 C 
ATOM     19  C   UNL     1       7.040   5.055  15.856  0.00  0.00    +0.000 C 
ATOM     20  O   UNL     1       7.879   4.080  16.520  0.00  0.00    +0.000 OA
ATOM     21  C   UNL     1       7.692   4.759  17.789  0.00  0.00    +0.000 C 
ENDBRANCH  16  17
ENDBRANCH  15  16
ENDBRANCH  10  15
ENDBRANCH   1  14
BRANCH   5  22
ATOM     22  C   UNL     1       0.088  12.503  21.438  0.00  0.00    +0.000 C 
BRANCH  22  23
ATOM     23  O   UNL     1      -0.358  12.955  20.142  0.00  0.00    +0.000 OA
BRANCH  23  24
ATOM     24  C   UNL     1      -1.730  12.895  20.017  0.00  0.00    +0.000 A 
ATOM     25  C   UNL     1      -2.314  12.073  19.028  0.00  0.00    +0.000 A 
ATOM     26  C   UNL     1      -3.729  11.853  18.975  0.00  0.00    +0.000 A 
ATOM     27  C   UNL     1      -4.522  12.421  19.950  0.00  0.00    +0.000 A 
ATOM     28  C   UNL     1      -3.895  13.267  20.875  0.00  0.00    +0.000 A 
ATOM     29  C   UNL     1      -2.556  13.575  20.880  0.00  0.00    +0.000 A 
ATOM     30  O   UNL     1      -4.707  13.752  21.864  0.00  0.00    +0.000 OA
ATOM     31  C   UNL     1      -5.783  12.814  21.784  0.00  0.00    +0.000 C 
ATOM     32  C   UNL     1      -5.990  12.576  20.281  0.00  0.00    +0.000 C 
BRANCH  32  33
ATOM     33  C   UNL     1      -7.275  11.785  20.019  0.00  0.00    +0.000 C 
BRANCH  33  34
ATOM     34  C   UNL     1      -7.186  10.272  20.038  0.00  0.00    +0.000 C 
ATOM     35  O   UNL     1      -6.842   9.580  19.095  0.00  0.00    +0.000 OA
BRANCH  34  36
ATOM     36  O   UNL     1      -7.536   9.721  21.229  0.00  0.00    +0.000 OA
ATOM     37  H   UNL     1      -7.244  10.195  22.031  0.00  0.00    +0.000 HD
ENDBRANCH  34  36
ENDBRANCH  33  34
ENDBRANCH  32  33
ENDBRANCH  23  24
ENDBRANCH  22  23
ENDBRANCH   5  22
TORSDOF 10
ENDMDL
MODEL 4
REMARK VINA RESULT:      -8.4      2.698      3.726
REMARK  Name = 
REMARK  13 active torsions:
REMARK  status: ('A' for Active; 'I' for Inactive)
REMARK    1  A    between atoms: C_1  and  C_2
REMARK    2  A    between atoms: C_4  and  O_5
REMARK    3  A    between atoms: O_5  and  C_6
REMARK    4  A    between atoms: C_6  and  C_7
REMARK    5  A    between atoms: C_7  and  C_8
REMARK    6  A    between atoms: C_13  and  C_14
REMARK    7  A    between atoms: C_15  and  C_16
REMARK    8  A    between atoms: C_20  and  C_21
REMARK    9  A    between atoms: C_21  and  O_22
REMARK   10  A    between atoms: O_22  and  C_23
REMARK   11  A    between atoms: C_31  and  C_32
REMARK   12  A    between atoms: C_32  and  C_33
REMARK   13  A    between atoms: C_33  and  O_35
REMARK                            x       y       z     vdW  Elec       q    Type
REMARK                         _______ _______ _______ _____ _____    ______ ____
ROOT
ATOM      1  C   UNL     1       1.851   7.268  20.112  0.00  0.00    +0.000 A 
ATOM      2  C   UNL     1       1.127   6.282  20.808  0.00  0.00    +0.000 A 
ATOM      3  C   UNL     1       1.515   4.935  20.820  0.00  0.00    +0.000 A 
ATOM      4  C   UNL     1       2.720   4.561  20.247  0.00  0.00    +0.000 A 
ATOM      5  C   UNL     1       3.505   5.524  19.616  0.00  0.00    +0.000 A 
ATOM      6  C   UNL     1       3.018   6.831  19.473  0.00  0.00    +0.000 A 
ENDROOT
BRANCH   1  14
ATOM      7  C   UNL     1       1.811   8.833  17.488  0.00  0.00    +0.000 C 
ATOM      8  C   UNL     1       1.369   9.408  18.814  0.00  0.00    +0.000 A 
ATOM      9  C   UNL     1       0.930  10.748  18.770  0.00  0.00    +0.000 A 
ATOM     10  C   UNL     1       0.665  11.476  19.923  0.00  0.00    +0.000 A 
ATOM     11  C   UNL     1       0.745  10.820  21.143  0.00  0.00    +0.000 A 
ATOM     12  C   UNL     1       1.075   9.446  21.228  0.00  0.00    +0.000 A 
ATOM     13  C   UNL     1       1.042   8.856  22.621  0.00  0.00    +0.000 C 
ATOM     14  C   UNL     1       1.427   8.706  20.051  0.00  0.00    +0.000 A 
BRANCH  10  15
ATOM     15  O   UNL     1       0.346  12.812  19.965  0.00  0.00    +0.000 OA
BRANCH  15  16
ATOM     16  C   UNL     1       1.204  13.609  20.793  0.00  0.00    +0.000 C 
BRANCH  16  17
ATOM     17  C   UNL     1       1.829  14.754  19.997  0.00  0.00    +0.000 C 
ATOM     18  C   UNL     1       3.294  14.548  19.659  0.00  0.00    +0.000 C 
ATOM     19  C   UNL     1       1.520  16.095  20.691  0.00  0.00    +0.000 C 
ATOM     20  O   UNL     1       0.499  16.408  19.713  0.00  0.00    +0.000 OA
ATOM     21  C   UNL     1       0.961  15.327  18.860  0.00  0.00    +0.000 C 
ENDBRANCH  16  17
ENDBRANCH  15  16
ENDBRANCH  10  15
ENDBRANCH   1  14
BRANCH   5  22
ATOM     22  C   UNL     1       4.864   5.180  19.082  0.00  0.00    +0.000 C 
BRANCH  22  23
ATOM     23  O   UNL     1       5.304   6.092  18.053  0.00  0.00    +0.000 OA
BRANCH  23  24
ATOM     24  C   UNL     1       5.681   5.431  16.904  0.00  0.00    +0.000 A 
ATOM     25  C   UNL     1       4.800   4.509  16.296  0.00  0.00    +0.000 A 
ATOM     26  C   UNL     1       5.083   3.932  15.016  0.00  0.00    +0.000 A 
ATOM     27  C   UNL     1       6.220   4.335  14.348  0.00  0.00    +0.000 A 
ATOM     28  C   UNL     1       7.083   5.212  15.019  0.00  0.00    +0.000 A 
ATOM     29  C   UNL     1       6.883   5.695  16.289  0.00  0.00    +0.000 A 
ATOM     30  O   UNL     1       8.162   5.637  14.293  0.00  0.00    +0.000 OA
ATOM     31  C   UNL     1       7.704   5.342  12.971  0.00  0.00    +0.000 C 
ATOM     32  C   UNL     1       6.992   3.987  13.093  0.00  0.00    +0.000 C 
BRANCH  32  33
ATOM     33  C   UNL     1       6.661   3.411  11.713  0.00  0.00    +0.000 C 
BRANCH  33  34
ATOM     34  C   UNL     1       5.459   2.494  11.602  0.00  0.00    +0.000 C 
ATOM     35  O   UNL     1       4.298   2.866  11.570  0.00  0.00    +0.000 OA
BRANCH  34  36
ATOM     36  O   UNL     1       5.782   1.177  11.545  0.00  0.00    +0.000 OA
ATOM     37  H   UNL     1       5.040   0.549  11.455  0.00  0.00    +0.000 HD
ENDBRANCH  34  36
ENDBRANCH  33  34
ENDBRANCH  32  33
ENDBRANCH  23  24
ENDBRANCH  22  23
ENDBRANCH   5  22
TORSDOF 10
ENDMDL
MODEL 5
REMARK VINA RESULT:      -8.3      0.833      1.121
REMARK  Name = 
REMARK  13 active torsions:
REMARK  status: ('A' for Active; 'I' for Inactive)
REMARK    1  A    between atoms: C_1  and  C_2
REMARK    2  A    between atoms: C_4  and  O_5
REMARK    3  A    between atoms: O_5  and  C_6
REMARK    4  A    between atoms: C_6  and  C_7
REMARK    5  A    between atoms: C_7  and  C_8
REMARK    6  A    between atoms: C_13  and  C_14
REMARK    7  A    between atoms: C_15  and  C_16
REMARK    8  A    between atoms: C_20  and  C_21
REMARK    9  A    between atoms: C_21  and  O_22
REMARK   10  A    between atoms: O_22  and  C_23
REMARK   11  A    between atoms: C_31  and  C_32
REMARK   12  A    between atoms: C_32  and  C_33
REMARK   13  A    between atoms: C_33  and  O_35
REMARK                            x       y       z     vdW  Elec       q    Type
REMARK                         _______ _______ _______ _____ _____    ______ ____
ROOT
ATOM      1  C   UNL     1       1.209   9.418  19.786  0.00  0.00    +0.000 A 
ATOM      2  C   UNL     1       1.355   9.659  18.406  0.00  0.00    +0.000 A 
ATOM      3  C   UNL     1       2.028   8.772  17.556  0.00  0.00    +0.000 A 
ATOM      4  C   UNL     1       2.458   7.547  18.041  0.00  0.00    +0.000 A 
ATOM      5  C   UNL     1       2.261   7.237  19.386  0.00  0.00    +0.000 A 
ATOM      6  C   UNL     1       1.735   8.205  20.251  0.00  0.00    +0.000 A 
ENDROOT
BRANCH   1  14
ATOM      7  C   UNL     1       1.629  12.438  19.588  0.00  0.00    +0.000 C 
ATOM      8  C   UNL     1       0.699  11.784  20.584  0.00  0.00    +0.000 A 
ATOM      9  C   UNL     1       0.022  12.672  21.445  0.00  0.00    +0.000 A 
ATOM     10  C   UNL     1      -0.724  12.226  22.528  0.00  0.00    +0.000 A 
ATOM     11  C   UNL     1      -0.876  10.858  22.698  0.00  0.00    +0.000 A 
ATOM     12  C   UNL     1      -0.306   9.929  21.794  0.00  0.00    +0.000 A 
ATOM     13  C   UNL     1      -0.630   8.477  22.067  0.00  0.00    +0.000 C 
ATOM     14  C   UNL     1       0.530  10.377  20.718  0.00  0.00    +0.000 A 
BRANCH  10  15
ATOM     15  O   UNL     1      -1.314  13.030  23.473  0.00  0.00    +0.000 OA
BRANCH  15  16
ATOM     16  C   UNL     1      -2.512  13.690  23.039  0.00  0.00    +0.000 C 
BRANCH  16  17
ATOM     17  C   UNL     1      -3.511  13.829  24.187  0.00  0.00    +0.000 C 
ATOM     18  C   UNL     1      -4.191  12.530  24.580  0.00  0.00    +0.000 C 
ATOM     19  C   UNL     1      -4.481  14.989  23.890  0.00  0.00    +0.000 C 
ATOM     20  O   UNL     1      -3.790  15.854  24.822  0.00  0.00    +0.000 OA
ATOM     21  C   UNL     1      -3.060  14.721  25.359  0.00  0.00    +0.000 C 
ENDBRANCH  16  17
ENDBRANCH  15  16
ENDBRANCH  10  15
ENDBRANCH   1  14
BRANCH   5  22
ATOM     22  C   UNL     1       2.611   5.880  19.921  0.00  0.00    +0.000 C 
BRANCH  22  23
ATOM     23  O   UNL     1       4.030   5.616  19.880  0.00  0.00    +0.000 OA
BRANCH  23  24
ATOM     24  C   UNL     1       4.428   5.121  18.656  0.00  0.00    +0.000 A 
ATOM     25  C   UNL     1       3.651   4.138  18.004  0.00  0.00    +0.000 A 
ATOM     26  C   UNL     1       3.936   3.723  16.662  0.00  0.00    +0.000 A 
ATOM     27  C   UNL     1       4.965   4.344  15.985  0.00  0.00    +0.000 A 
ATOM     28  C   UNL     1       5.733   5.274  16.697  0.00  0.00    +0.000 A 
ATOM     29  C   UNL     1       5.543   5.610  18.016  0.00  0.00    +0.000 A 
ATOM     30  O   UNL     1       6.697   5.914  15.966  0.00  0.00    +0.000 OA
ATOM     31  C   UNL     1       6.208   5.673  14.645  0.00  0.00    +0.000 C 
ATOM     32  C   UNL     1       5.702   4.224  14.669  0.00  0.00    +0.000 C 
BRANCH  32  33
ATOM     33  C   UNL     1       5.375   3.729  13.257  0.00  0.00    +0.000 C 
BRANCH  33  34
ATOM     34  C   UNL     1       6.536   3.466  12.317  0.00  0.00    +0.000 C 
ATOM     35  O   UNL     1       6.750   2.407  11.752  0.00  0.00    +0.000 OA
BRANCH  34  36
ATOM     36  O   UNL     1       7.353   4.536  12.149  0.00  0.00    +0.000 OA
ATOM     37  H   UNL     1       6.920   5.389  11.952  0.00  0.00    +0.000 HD
ENDBRANCH  34  36
ENDBRANCH  33  34
ENDBRANCH  32  33
ENDBRANCH  23  24
ENDBRANCH  22  23
ENDBRANCH   5  22
TORSDOF 10
ENDMDL
MODEL 6
REMARK VINA RESULT:      -8.3      4.697      9.510
REMARK  Name = 
REMARK  13 active torsions:
REMARK  status: ('A' for Active; 'I' for Inactive)
REMARK    1  A    between atoms: C_1  and  C_2
REMARK    2  A    between atoms: C_4  and  O_5
REMARK    3  A    between atoms: O_5  and  C_6
REMARK    4  A    between atoms: C_6  and  C_7
REMARK    5  A    between atoms: C_7  and  C_8
REMARK    6  A    between atoms: C_13  and  C_14
REMARK    7  A    between atoms: C_15  and  C_16
REMARK    8  A    between atoms: C_20  and  C_21
REMARK    9  A    between atoms: C_21  and  O_22
REMARK   10  A    between atoms: O_22  and  C_23
REMARK   11  A    between atoms: C_31  and  C_32
REMARK   12  A    between atoms: C_32  and  C_33
REMARK   13  A    between atoms: C_33  and  O_35
REMARK                            x       y       z     vdW  Elec       q    Type
REMARK                         _______ _______ _______ _____ _____    ______ ____
ROOT
ATOM      1  C   UNL     1       0.463  10.740  19.302  0.00  0.00    +0.000 A 
ATOM      2  C   UNL     1      -0.867  10.954  18.894  0.00  0.00    +0.000 A 
ATOM      3  C   UNL     1      -1.353  12.224  18.554  0.00  0.00    +0.000 A 
ATOM      4  C   UNL     1      -0.479  13.298  18.481  0.00  0.00    +0.000 A 
ATOM      5  C   UNL     1       0.864  13.110  18.801  0.00  0.00    +0.000 A 
ATOM      6  C   UNL     1       1.291  11.870  19.297  0.00  0.00    +0.000 A 
ENDROOT
BRANCH   1  14
ATOM      7  C   UNL     1       2.151   9.022  17.421  0.00  0.00    +0.000 C 
ATOM      8  C   UNL     1       1.811   8.627  18.841  0.00  0.00    +0.000 A 
ATOM      9  C   UNL     1       2.329   7.383  19.257  0.00  0.00    +0.000 A 
ATOM     10  C   UNL     1       1.961   6.796  20.460  0.00  0.00    +0.000 A 
ATOM     11  C   UNL     1       1.133   7.513  21.311  0.00  0.00    +0.000 A 
ATOM     12  C   UNL     1       0.677   8.813  20.984  0.00  0.00    +0.000 A 
ATOM     13  C   UNL     1      -0.150   9.497  22.050  0.00  0.00    +0.000 C 
ATOM     14  C   UNL     1       0.988   9.396  19.711  0.00  0.00    +0.000 A 
BRANCH  10  15
ATOM     15  O   UNL     1       2.331   5.541  20.879  0.00  0.00    +0.000 OA
BRANCH  15  16
ATOM     16  C   UNL     1       2.979   4.739  19.881  0.00  0.00    +0.000 C 
BRANCH  16  17
ATOM     17  C   UNL     1       2.000   3.751  19.247  0.00  0.00    +0.000 C 
ATOM     18  C   UNL     1       1.575   4.117  17.836  0.00  0.00    +0.000 C 
ATOM     19  C   UNL     1       0.831   3.489  20.215  0.00  0.00    +0.000 C 
ATOM     20  O   UNL     1       1.379   2.202  20.587  0.00  0.00    +0.000 OA
ATOM     21  C   UNL     1       2.314   2.261  19.479  0.00  0.00    +0.000 C 
ENDBRANCH  16  17
ENDBRANCH  15  16
ENDBRANCH  10  15
ENDBRANCH   1  14
BRANCH   5  22
ATOM     22  C   UNL     1       1.859  14.219  18.628  0.00  0.00    +0.000 C 
BRANCH  22  23
ATOM     23  O   UNL     1       2.582  14.510  19.843  0.00  0.00    +0.000 OA
BRANCH  23  24
ATOM     24  C   UNL     1       3.936  14.650  19.618  0.00  0.00    +0.000 A 
ATOM     25  C   UNL     1       4.424  14.771  18.298  0.00  0.00    +0.000 A 
ATOM     26  C   UNL     1       5.796  15.086  18.032  0.00  0.00    +0.000 A 
ATOM     27  C   UNL     1       6.637  15.326  19.098  0.00  0.00    +0.000 A 
ATOM     28  C   UNL     1       6.111  15.142  20.385  0.00  0.00    +0.000 A 
ATOM     29  C   UNL     1       4.828  14.738  20.661  0.00  0.00    +0.000 A 
ATOM     30  O   UNL     1       6.959  15.458  21.411  0.00  0.00    +0.000 OA
ATOM     31  C   UNL     1       7.898  16.280  20.713  0.00  0.00    +0.000 C 
ATOM     32  C   UNL     1       8.105  15.585  19.360  0.00  0.00    +0.000 C 
BRANCH  32  33
ATOM     33  C   UNL     1       9.275  16.207  18.593  0.00  0.00    +0.000 C 
BRANCH  33  34
ATOM     34  C   UNL     1      10.028  15.321  17.619  0.00  0.00    +0.000 C 
ATOM     35  O   UNL     1      10.368  14.171  17.840  0.00  0.00    +0.000 OA
BRANCH  34  36
ATOM     36  O   UNL     1      10.311  15.929  16.439  0.00  0.00    +0.000 OA
ATOM     37  H   UNL     1      10.865  15.426  15.811  0.00  0.00    +0.000 HD
ENDBRANCH  34  36
ENDBRANCH  33  34
ENDBRANCH  32  33
ENDBRANCH  23  24
ENDBRANCH  22  23
ENDBRANCH   5  22
TORSDOF 10
ENDMDL
MODEL 7
REMARK VINA RESULT:      -8.3      1.754      2.662
REMARK  Name = 
REMARK  13 active torsions:
REMARK  status: ('A' for Active; 'I' for Inactive)
REMARK    1  A    between atoms: C_1  and  C_2
REMARK    2  A    between atoms: C_4  and  O_5
REMARK    3  A    between atoms: O_5  and  C_6
REMARK    4  A    between atoms: C_6  and  C_7
REMARK    5  A    between atoms: C_7  and  C_8
REMARK    6  A    between atoms: C_13  and  C_14
REMARK    7  A    between atoms: C_15  and  C_16
REMARK    8  A    between atoms: C_20  and  C_21
REMARK    9  A    between atoms: C_21  and  O_22
REMARK   10  A    between atoms: O_22  and  C_23
REMARK   11  A    between atoms: C_31  and  C_32
REMARK   12  A    between atoms: C_32  and  C_33
REMARK   13  A    between atoms: C_33  and  O_35
REMARK                            x       y       z     vdW  Elec       q    Type
REMARK                         _______ _______ _______ _____ _____    ______ ____
ROOT
ATOM      1  C   UNL     1       0.605  10.058  19.253  0.00  0.00    +0.000 A 
ATOM      2  C   UNL     1       1.246  10.000  18.001  0.00  0.00    +0.000 A 
ATOM      3  C   UNL     1       2.175   9.002  17.679  0.00  0.00    +0.000 A 
ATOM      4  C   UNL     1       2.387   7.950  18.557  0.00  0.00    +0.000 A 
ATOM      5  C   UNL     1       1.711   7.930  19.776  0.00  0.00    +0.000 A 
ATOM      6  C   UNL     1       0.914   9.022  20.145  0.00  0.00    +0.000 A 
ENDROOT
BRANCH   1  14
ATOM      7  C   UNL     1      -2.267  10.104  18.211  0.00  0.00    +0.000 C 
ATOM      8  C   UNL     1      -1.707  11.127  19.174  0.00  0.00    +0.000 A 
ATOM      9  C   UNL     1      -2.611  12.134  19.571  0.00  0.00    +0.000 A 
ATOM     10  C   UNL     1      -2.206  13.243  20.303  0.00  0.00    +0.000 A 
ATOM     11  C   UNL     1      -0.888  13.297  20.732  0.00  0.00    +0.000 A 
ATOM     12  C   UNL     1       0.028  12.254  20.451  0.00  0.00    +0.000 A 
ATOM     13  C   UNL     1       1.405  12.420  21.057  0.00  0.00    +0.000 C 
ATOM     14  C   UNL     1      -0.359  11.143  19.631  0.00  0.00    +0.000 A 
BRANCH  10  15
ATOM     15  O   UNL     1      -3.000  14.317  20.626  0.00  0.00    +0.000 OA
BRANCH  15  16
ATOM     16  C   UNL     1      -2.415  15.239  21.556  0.00  0.00    +0.000 C 
BRANCH  16  17
ATOM     17  C   UNL     1      -3.142  15.203  22.900  0.00  0.00    +0.000 C 
ATOM     18  C   UNL     1      -2.388  14.471  23.995  0.00  0.00    +0.000 C 
ATOM     19  C   UNL     1      -4.589  14.717  22.691  0.00  0.00    +0.000 C 
ATOM     20  O   UNL     1      -5.100  16.065  22.822  0.00  0.00    +0.000 OA
ATOM     21  C   UNL     1      -3.818  16.520  23.327  0.00  0.00    +0.000 C 
ENDBRANCH  16  17
ENDBRANCH  15  16
ENDBRANCH  10  15
ENDBRANCH   1  14
BRANCH   5  22
ATOM     22  C   UNL     1       1.829   6.756  20.701  0.00  0.00    +0.000 C 
BRANCH  22  23
ATOM     23  O   UNL     1       1.612   5.496  20.031  0.00  0.00    +0.000 OA
BRANCH  23  24
ATOM     24  C   UNL     1       2.731   5.077  19.342  0.00  0.00    +0.000 A 
ATOM     25  C   UNL     1       2.619   4.667  17.995  0.00  0.00    +0.000 A 
ATOM     26  C   UNL     1       3.776   4.388  17.197  0.00  0.00    +0.000 A 
ATOM     27  C   UNL     1       5.023   4.579  17.753  0.00  0.00    +0.000 A 
ATOM     28  C   UNL     1       5.074   4.938  19.108  0.00  0.00    +0.000 A 
ATOM     29  C   UNL     1       3.979   5.108  19.919  0.00  0.00    +0.000 A 
ATOM     30  O   UNL     1       6.327   5.184  19.598  0.00  0.00    +0.000 OA
ATOM     31  C   UNL     1       7.035   5.403  18.374  0.00  0.00    +0.000 C 
ATOM     32  C   UNL     1       6.477   4.353  17.403  0.00  0.00    +0.000 C 
BRANCH  32  33
ATOM     33  C   UNL     1       7.311   4.290  16.120  0.00  0.00    +0.000 C 
BRANCH  33  34
ATOM     34  C   UNL     1       6.623   4.641  14.815  0.00  0.00    +0.000 C 
ATOM     35  O   UNL     1       6.493   3.883  13.868  0.00  0.00    +0.000 OA
BRANCH  34  36
ATOM     36  O   UNL     1       6.147   5.911  14.776  0.00  0.00    +0.000 OA
ATOM     37  H   UNL     1       5.422   6.125  15.394  0.00  0.00    +0.000 HD
ENDBRANCH  34  36
ENDBRANCH  33  34
ENDBRANCH  32  33
ENDBRANCH  23  24
ENDBRANCH  22  23
ENDBRANCH   5  22
TORSDOF 10
ENDMDL
MODEL 8
REMARK VINA RESULT:      -8.2      1.662      2.564
REMARK  Name = 
REMARK  13 active torsions:
REMARK  status: ('A' for Active; 'I' for Inactive)
REMARK    1  A    between atoms: C_1  and  C_2
REMARK    2  A    between atoms: C_4  and  O_5
REMARK    3  A    between atoms: O_5  and  C_6
REMARK    4  A    between atoms: C_6  and  C_7
REMARK    5  A    between atoms: C_7  and  C_8
REMARK    6  A    between atoms: C_13  and  C_14
REMARK    7  A    between atoms: C_15  and  C_16
REMARK    8  A    between atoms: C_20  and  C_21
REMARK    9  A    between atoms: C_21  and  O_22
REMARK   10  A    between atoms: O_22  and  C_23
REMARK   11  A    between atoms: C_31  and  C_32
REMARK   12  A    between atoms: C_32  and  C_33
REMARK   13  A    between atoms: C_33  and  O_35
REMARK                            x       y       z     vdW  Elec       q    Type
REMARK                         _______ _______ _______ _____ _____    ______ ____
ROOT
ATOM      1  C   UNL     1       0.418   9.714  20.302  0.00  0.00    +0.000 A 
ATOM      2  C   UNL     1       0.941   9.983  19.023  0.00  0.00    +0.000 A 
ATOM      3  C   UNL     1       1.854   9.128  18.390  0.00  0.00    +0.000 A 
ATOM      4  C   UNL     1       2.163   7.905  18.965  0.00  0.00    +0.000 A 
ATOM      5  C   UNL     1       1.603   7.567  20.196  0.00  0.00    +0.000 A 
ATOM      6  C   UNL     1       0.825   8.507  20.885  0.00  0.00    +0.000 A 
ENDROOT
BRANCH   1  14
ATOM      7  C   UNL     1      -0.004   9.584  23.325  0.00  0.00    +0.000 C 
ATOM      8  C   UNL     1      -0.677  10.597  22.427  0.00  0.00    +0.000 A 
ATOM      9  C   UNL     1      -1.538  11.501  23.082  0.00  0.00    +0.000 A 
ATOM     10  C   UNL     1      -2.366  12.370  22.384  0.00  0.00    +0.000 A 
ATOM     11  C   UNL     1      -2.259  12.406  21.002  0.00  0.00    +0.000 A 
ATOM     12  C   UNL     1      -1.329  11.596  20.307  0.00  0.00    +0.000 A 
ATOM     13  C   UNL     1      -1.274  11.809  18.810  0.00  0.00    +0.000 C 
ATOM     14  C   UNL     1      -0.525  10.639  21.012  0.00  0.00    +0.000 A 
BRANCH  10  15
ATOM     15  O   UNL     1      -3.311  13.195  22.947  0.00  0.00    +0.000 OA
BRANCH  15  16
ATOM     16  C   UNL     1      -4.004  14.039  22.017  0.00  0.00    +0.000 C 
BRANCH  16  17
ATOM     17  C   UNL     1      -5.516  13.845  22.117  0.00  0.00    +0.000 C 
ATOM     18  C   UNL     1      -6.028  12.591  21.431  0.00  0.00    +0.000 C 
ATOM     19  C   UNL     1      -6.233  15.140  21.690  0.00  0.00    +0.000 C 
ATOM     20  O   UNL     1      -6.515  15.482  23.068  0.00  0.00    +0.000 OA
ATOM     21  C   UNL     1      -6.137  14.147  23.494  0.00  0.00    +0.000 C 
ENDBRANCH  16  17
ENDBRANCH  15  16
ENDBRANCH  10  15
ENDBRANCH   1  14
BRANCH   5  22
ATOM     22  C   UNL     1       1.826   6.210  20.796  0.00  0.00    +0.000 C 
BRANCH  22  23
ATOM     23  O   UNL     1       1.656   5.145  19.837  0.00  0.00    +0.000 OA
BRANCH  23  24
ATOM     24  C   UNL     1       2.818   4.885  19.141  0.00  0.00    +0.000 A 
ATOM     25  C   UNL     1       2.785   4.748  17.736  0.00  0.00    +0.000 A 
ATOM     26  C   UNL     1       3.987   4.648  16.963  0.00  0.00    +0.000 A 
ATOM     27  C   UNL     1       5.199   4.741  17.614  0.00  0.00    +0.000 A 
ATOM     28  C   UNL     1       5.173   4.825  19.013  0.00  0.00    +0.000 A 
ATOM     29  C   UNL     1       4.034   4.817  19.781  0.00  0.00    +0.000 A 
ATOM     30  O   UNL     1       6.393   4.985  19.610  0.00  0.00    +0.000 OA
ATOM     31  C   UNL     1       7.157   5.451  18.494  0.00  0.00    +0.000 C 
ATOM     32  C   UNL     1       6.675   4.607  17.305  0.00  0.00    +0.000 C 
BRANCH  32  33
ATOM     33  C   UNL     1       7.575   4.811  16.083  0.00  0.00    +0.000 C 
BRANCH  33  34
ATOM     34  C   UNL     1       6.976   4.544  14.716  0.00  0.00    +0.000 C 
ATOM     35  O   UNL     1       6.149   3.681  14.472  0.00  0.00    +0.000 OA
BRANCH  34  36
ATOM     36  O   UNL     1       7.450   5.365  13.745  0.00  0.00    +0.000 OA
ATOM     37  H   UNL     1       7.712   4.941  12.904  0.00  0.00    +0.000 HD
ENDBRANCH  34  36
ENDBRANCH  33  34
ENDBRANCH  32  33
ENDBRANCH  23  24
ENDBRANCH  22  23
ENDBRANCH   5  22
TORSDOF 10
ENDMDL
MODEL 9
REMARK VINA RESULT:      -8.2      2.740     11.024
REMARK  Name = 
REMARK  13 active torsions:
REMARK  status: ('A' for Active; 'I' for Inactive)
REMARK    1  A    between atoms: C_1  and  C_2
REMARK    2  A    between atoms: C_4  and  O_5
REMARK    3  A    between atoms: O_5  and  C_6
REMARK    4  A    between atoms: C_6  and  C_7
REMARK    5  A    between atoms: C_7  and  C_8
REMARK    6  A    between atoms: C_13  and  C_14
REMARK    7  A    between atoms: C_15  and  C_16
REMARK    8  A    between atoms: C_20  and  C_21
REMARK    9  A    between atoms: C_21  and  O_22
REMARK   10  A    between atoms: O_22  and  C_23
REMARK   11  A    between atoms: C_31  and  C_32
REMARK   12  A    between atoms: C_32  and  C_33
REMARK   13  A    between atoms: C_33  and  O_35
REMARK                            x       y       z     vdW  Elec       q    Type
REMARK                         _______ _______ _______ _____ _____    ______ ____
ROOT
ATOM      1  C   UNL     1       1.080   8.540  20.545  0.00  0.00    +0.000 A 
ATOM      2  C   UNL     1       0.174   8.031  21.494  0.00  0.00    +0.000 A 
ATOM      3  C   UNL     1      -0.511   8.857  22.396  0.00  0.00    +0.000 A 
ATOM      4  C   UNL     1      -0.411  10.234  22.281  0.00  0.00    +0.000 A 
ATOM      5  C   UNL     1       0.417  10.780  21.300  0.00  0.00    +0.000 A 
ATOM      6  C   UNL     1       1.218   9.934  20.520  0.00  0.00    +0.000 A 
ENDROOT
BRANCH   1  14
ATOM      7  C   UNL     1       1.826   5.661  21.247  0.00  0.00    +0.000 C 
ATOM      8  C   UNL     1       2.155   6.314  19.923  0.00  0.00    +0.000 A 
ATOM      9  C   UNL     1       2.849   5.497  19.008  0.00  0.00    +0.000 A 
ATOM     10  C   UNL     1       3.382   5.999  17.827  0.00  0.00    +0.000 A 
ATOM     11  C   UNL     1       3.130   7.325  17.508  0.00  0.00    +0.000 A 
ATOM     12  C   UNL     1       2.343   8.154  18.344  0.00  0.00    +0.000 A 
ATOM     13  C   UNL     1       2.090   9.550  17.818  0.00  0.00    +0.000 C 
ATOM     14  C   UNL     1       1.855   7.669  19.602  0.00  0.00    +0.000 A 
BRANCH  10  15
ATOM     15  O   UNL     1       4.166   5.294  16.945  0.00  0.00    +0.000 OA
BRANCH  15  16
ATOM     16  C   UNL     1       5.090   6.092  16.192  0.00  0.00    +0.000 C 
BRANCH  16  17
ATOM     17  C   UNL     1       6.526   5.612  16.394  0.00  0.00    +0.000 C 
ATOM     18  C   UNL     1       7.160   5.009  15.154  0.00  0.00    +0.000 C 
ATOM     19  C   UNL     1       6.600   4.714  17.645  0.00  0.00    +0.000 C 
ATOM     20  O   UNL     1       7.195   5.782  18.421  0.00  0.00    +0.000 OA
ATOM     21  C   UNL     1       7.434   6.550  17.213  0.00  0.00    +0.000 C 
ENDBRANCH  16  17
ENDBRANCH  15  16
ENDBRANCH  10  15
ENDBRANCH   1  14
BRANCH   5  22
ATOM     22  C   UNL     1       0.466  12.261  21.073  0.00  0.00    +0.000 C 
BRANCH  22  23
ATOM     23  O   UNL     1       0.065  12.631  19.736  0.00  0.00    +0.000 OA
BRANCH  23  24
ATOM     24  C   UNL     1      -1.238  12.271  19.469  0.00  0.00    +0.000 A 
ATOM     25  C   UNL     1      -2.292  12.800  20.247  0.00  0.00    +0.000 A 
ATOM     26  C   UNL     1      -3.665  12.586  19.897  0.00  0.00    +0.000 A 
ATOM     27  C   UNL     1      -3.950  11.890  18.741  0.00  0.00    +0.000 A 
ATOM     28  C   UNL     1      -2.867  11.345  18.036  0.00  0.00    +0.000 A 
ATOM     29  C   UNL     1      -1.550  11.449  18.411  0.00  0.00    +0.000 A 
ATOM     30  O   UNL     1      -3.192  10.723  16.862  0.00  0.00    +0.000 OA
ATOM     31  C   UNL     1      -4.484  11.290  16.628  0.00  0.00    +0.000 C 
ATOM     32  C   UNL     1      -5.152  11.333  18.010  0.00  0.00    +0.000 C 
BRANCH  32  33
ATOM     33  C   UNL     1      -6.638  11.684  17.893  0.00  0.00    +0.000 C 
BRANCH  33  34
ATOM     34  C   UNL     1      -7.058  13.096  18.249  0.00  0.00    +0.000 C 
ATOM     35  O   UNL     1      -7.909  13.386  19.072  0.00  0.00    +0.000 OA
BRANCH  34  36
ATOM     36  O   UNL     1      -6.393  14.053  17.551  0.00  0.00    +0.000 OA
ATOM     37  H   UNL     1      -6.337  13.928  16.584  0.00  0.00    +0.000 HD
ENDBRANCH  34  36
ENDBRANCH  33  34
ENDBRANCH  32  33
ENDBRANCH  23  24
ENDBRANCH  22  23
ENDBRANCH   5  22
TORSDOF 10
ENDMDL
