MODEL 1
REMARK VINA RESULT:      -6.2      0.000      0.000
REMARK  Name = 
REMARK  5 active torsions:
REMARK  status: ('A' for Active; 'I' for Inactive)
REMARK    1  A    between atoms: C_1  and  O_2
REMARK    2  A    between atoms: O_2  and  C_3
REMARK    3  A    between atoms: C_7  and  C_8
REMARK    4  A    between atoms: C_8  and  C_9
REMARK    5  A    between atoms: N_11  and  C_12
REMARK                            x       y       z     vdW  Elec       q    Type
REMARK                         _______ _______ _______ _____ _____    ______ ____
ROOT
ATOM      1  C   UNL     1       3.199   5.810  17.437  0.00  0.00    +0.000 C 
ENDROOT
BRANCH   1   6
ATOM      2  C   UNL     1       6.876   6.285  16.545  0.00  0.00    +0.000 A 
ATOM      3  C   UNL     1       7.130   5.114  15.826  0.00  0.00    +0.000 A 
ATOM      4  C   UNL     1       6.122   4.173  15.612  0.00  0.00    +0.000 A 
ATOM      5  C   UNL     1       4.845   4.389  16.131  0.00  0.00    +0.000 A 
ATOM      6  C   UNL     1       4.562   5.565  16.840  0.00  0.00    +0.000 A 
ATOM      7  C   UNL     1       5.589   6.499  17.049  0.00  0.00    +0.000 A 
BRANCH   2   9
ATOM      8  C   UNL     1       7.801   8.192  17.613  0.00  0.00    +0.000 C 
ATOM      9  O   UNL     1       7.943   7.119  16.690  0.00  0.00    +0.000 OA
ENDBRANCH   2   9
ENDBRANCH   1   6
BRANCH   1  10
ATOM     10  C   UNL     1       2.901   5.222  18.806  0.00  0.00    +0.000 C 
ATOM     11  O   UNL     1       3.061   5.919  19.808  0.00  0.00    +0.000 OA
ATOM     12  N   UNL     1       2.462   3.912  18.847  0.00  0.00    +0.000 N 
ATOM     13  H   UNL     1       2.594   3.310  18.045  0.00  0.00    +0.000 HD
BRANCH  12  14
ATOM     14  C   UNL     1       2.206   3.312  20.059  0.00  0.00    +0.000 A 
ATOM     15  C   UNL     1       1.102   3.218  20.876  0.00  0.00    +0.000 A 
ATOM     16  N   UNL     1       1.326   2.577  22.085  0.00  0.00    +0.000 NA
ATOM     17  N   UNL     1       2.585   2.178  22.199  0.00  0.00    +0.000 NA
ATOM     18  S   UNL     1       3.497   2.508  20.830  0.00  0.00    +0.000 S 
ENDBRANCH  12  14
ENDBRANCH   1  10
TORSDOF 4
ENDMDL
MODEL 2
REMARK VINA RESULT:      -6.2      3.090      4.328
REMARK  Name = 
REMARK  5 active torsions:
REMARK  status: ('A' for Active; 'I' for Inactive)
REMARK    1  A    between atoms: C_1  and  O_2
REMARK    2  A    between atoms: O_2  and  C_3
REMARK    3  A    between atoms: C_7  and  C_8
REMARK    4  A    between atoms: C_8  and  C_9
REMARK    5  A    between atoms: N_11  and  C_12
REMARK                            x       y       z     vdW  Elec       q    Type
REMARK                         _______ _______ _______ _____ _____    ______ ____
ROOT
ATOM      1  C   UNL     1       6.632   4.810  16.095  0.00  0.00    +0.000 C 
ENDROOT
BRANCH   1   6
ATOM      2  C   UNL     1       6.035   3.507  12.561  0.00  0.00    +0.000 A 
ATOM      3  C   UNL     1       6.969   4.255  11.839  0.00  0.00    +0.000 A 
ATOM      4  C   UNL     1       7.803   5.170  12.482  0.00  0.00    +0.000 A 
ATOM      5  C   UNL     1       7.701   5.358  13.861  0.00  0.00    +0.000 A 
ATOM      6  C   UNL     1       6.784   4.606  14.608  0.00  0.00    +0.000 A 
ATOM      7  C   UNL     1       5.949   3.693  13.944  0.00  0.00    +0.000 A 
BRANCH   2   9
ATOM      8  C   UNL     1       4.102   3.190  11.221  0.00  0.00    +0.000 C 
ATOM      9  O   UNL     1       5.276   2.654  11.817  0.00  0.00    +0.000 OA
ENDBRANCH   2   9
ENDBRANCH   1   6
BRANCH   1  10
ATOM     10  C   UNL     1       5.266   4.567  16.714  0.00  0.00    +0.000 C 
ATOM     11  O   UNL     1       4.415   5.456  16.664  0.00  0.00    +0.000 OA
ATOM     12  N   UNL     1       5.054   3.339  17.311  0.00  0.00    +0.000 N 
ATOM     13  H   UNL     1       5.842   2.754  17.556  0.00  0.00    +0.000 HD
BRANCH  12  14
ATOM     14  C   UNL     1       3.848   3.070  17.919  0.00  0.00    +0.000 A 
ATOM     15  C   UNL     1       2.610   2.669  17.470  0.00  0.00    +0.000 A 
ATOM     16  N   UNL     1       1.628   2.609  18.448  0.00  0.00    +0.000 NA
ATOM     17  N   UNL     1       2.103   2.956  19.636  0.00  0.00    +0.000 NA
ATOM     18  S   UNL     1       3.746   3.294  19.605  0.00  0.00    +0.000 S 
ENDBRANCH  12  14
ENDBRANCH   1  10
TORSDOF 4
ENDMDL
MODEL 3
REMARK VINA RESULT:      -6.1      3.349      6.292
REMARK  Name = 
REMARK  5 active torsions:
REMARK  status: ('A' for Active; 'I' for Inactive)
REMARK    1  A    between atoms: C_1  and  O_2
REMARK    2  A    between atoms: O_2  and  C_3
REMARK    3  A    between atoms: C_7  and  C_8
REMARK    4  A    between atoms: C_8  and  C_9
REMARK    5  A    between atoms: N_11  and  C_12
REMARK                            x       y       z     vdW  Elec       q    Type
REMARK                         _______ _______ _______ _____ _____    ______ ____
ROOT
ATOM      1  C   UNL     1       4.554   2.865  19.595  0.00  0.00    +0.000 C 
ENDROOT
BRANCH   1   6
ATOM      2  C   UNL     1       1.800   5.349  20.485  0.00  0.00    +0.000 A 
ATOM      3  C   UNL     1       0.672   4.526  20.435  0.00  0.00    +0.000 A 
ATOM      4  C   UNL     1       0.789   3.170  20.129  0.00  0.00    +0.000 A 
ATOM      5  C   UNL     1       2.042   2.622  19.854  0.00  0.00    +0.000 A 
ATOM      6  C   UNL     1       3.190   3.424  19.917  0.00  0.00    +0.000 A 
ATOM      7  C   UNL     1       3.054   4.788  20.222  0.00  0.00    +0.000 A 
BRANCH   2   9
ATOM      8  C   UNL     1       2.013   7.628  19.860  0.00  0.00    +0.000 C 
ATOM      9  O   UNL     1       1.553   6.654  20.788  0.00  0.00    +0.000 OA
ENDBRANCH   2   9
ENDBRANCH   1   6
BRANCH   1  10
ATOM     10  C   UNL     1       5.509   3.729  18.788  0.00  0.00    +0.000 C 
ATOM     11  O   UNL     1       6.306   4.459  19.379  0.00  0.00    +0.000 OA
ATOM     12  N   UNL     1       5.424   3.645  17.412  0.00  0.00    +0.000 N 
ATOM     13  H   UNL     1       4.602   3.244  16.979  0.00  0.00    +0.000 HD
BRANCH  12  14
ATOM     14  C   UNL     1       6.240   4.426  16.625  0.00  0.00    +0.000 A 
ATOM     15  C   UNL     1       7.008   5.548  16.846  0.00  0.00    +0.000 A 
ATOM     16  N   UNL     1       7.610   6.073  15.713  0.00  0.00    +0.000 NA
ATOM     17  N   UNL     1       7.314   5.366  14.632  0.00  0.00    +0.000 NA
ATOM     18  S   UNL     1       6.365   4.025  14.974  0.00  0.00    +0.000 S 
ENDBRANCH  12  14
ENDBRANCH   1  10
TORSDOF 4
ENDMDL
MODEL 4
REMARK VINA RESULT:      -6.0      1.609      2.191
REMARK  Name = 
REMARK  5 active torsions:
REMARK  status: ('A' for Active; 'I' for Inactive)
REMARK    1  A    between atoms: C_1  and  O_2
REMARK    2  A    between atoms: O_2  and  C_3
REMARK    3  A    between atoms: C_7  and  C_8
REMARK    4  A    between atoms: C_8  and  C_9
REMARK    5  A    between atoms: N_11  and  C_12
REMARK                            x       y       z     vdW  Elec       q    Type
REMARK                         _______ _______ _______ _____ _____    ______ ____
ROOT
ATOM      1  C   UNL     1       4.746   5.295  16.725  0.00  0.00    +0.000 C 
ENDROOT
BRANCH   1   6
ATOM      2  C   UNL     1       7.571   7.697  17.617  0.00  0.00    +0.000 A 
ATOM      3  C   UNL     1       8.197   7.000  18.655  0.00  0.00    +0.000 A 
ATOM      4  C   UNL     1       7.726   5.752  19.064  0.00  0.00    +0.000 A 
ATOM      5  C   UNL     1       6.608   5.191  18.446  0.00  0.00    +0.000 A 
ATOM      6  C   UNL     1       5.975   5.864  17.391  0.00  0.00    +0.000 A 
ATOM      7  C   UNL     1       6.459   7.121  16.995  0.00  0.00    +0.000 A 
BRANCH   2   9
ATOM      8  C   UNL     1       8.630   9.670  18.404  0.00  0.00    +0.000 C 
ATOM      9  O   UNL     1       8.122   8.907  17.317  0.00  0.00    +0.000 OA
ENDBRANCH   2   9
ENDBRANCH   1   6
BRANCH   1  10
ATOM     10  C   UNL     1       3.571   4.904  17.606  0.00  0.00    +0.000 C 
ATOM     11  O   UNL     1       2.745   5.760  17.922  0.00  0.00    +0.000 OA
ATOM     12  N   UNL     1       3.499   3.584  18.011  0.00  0.00    +0.000 N 
ATOM     13  H   UNL     1       4.317   2.991  17.949  0.00  0.00    +0.000 HD
BRANCH  12  14
ATOM     14  C   UNL     1       2.477   3.175  18.836  0.00  0.00    +0.000 A 
ATOM     15  C   UNL     1       1.170   2.789  18.635  0.00  0.00    +0.000 A 
ATOM     16  N   UNL     1       0.452   2.541  19.796  0.00  0.00    +0.000 NA
ATOM     17  N   UNL     1       1.195   2.729  20.877  0.00  0.00    +0.000 NA
ATOM     18  S   UNL     1       2.780   3.140  20.512  0.00  0.00    +0.000 S 
ENDBRANCH  12  14
ENDBRANCH   1  10
TORSDOF 4
ENDMDL
MODEL 5
REMARK VINA RESULT:      -6.0      4.066      6.322
REMARK  Name = 
REMARK  5 active torsions:
REMARK  status: ('A' for Active; 'I' for Inactive)
REMARK    1  A    between atoms: C_1  and  O_2
REMARK    2  A    between atoms: O_2  and  C_3
REMARK    3  A    between atoms: C_7  and  C_8
REMARK    4  A    between atoms: C_8  and  C_9
REMARK    5  A    between atoms: N_11  and  C_12
REMARK                            x       y       z     vdW  Elec       q    Type
REMARK                         _______ _______ _______ _____ _____    ______ ____
ROOT
ATOM      1  C   UNL     1       2.851   5.712  19.523  0.00  0.00    +0.000 C 
ENDROOT
BRANCH   1   6
ATOM      2  C   UNL     1       1.263   9.095  20.284  0.00  0.00    +0.000 A 
ATOM      3  C   UNL     1       1.238   9.671  19.011  0.00  0.00    +0.000 A 
ATOM      4  C   UNL     1       1.718   8.974  17.902  0.00  0.00    +0.000 A 
ATOM      5  C   UNL     1       2.243   7.691  18.057  0.00  0.00    +0.000 A 
ATOM      6  C   UNL     1       2.262   7.086  19.321  0.00  0.00    +0.000 A 
ATOM      7  C   UNL     1       1.779   7.803  20.428  0.00  0.00    +0.000 A 
BRANCH   2   9
ATOM      8  C   UNL     1       0.538  11.247  20.973  0.00  0.00    +0.000 C 
ATOM      9  O   UNL     1       0.773   9.879  21.285  0.00  0.00    +0.000 OA
ENDBRANCH   2   9
ENDBRANCH   1   6
BRANCH   1  10
ATOM     10  C   UNL     1       3.825   5.191  18.480  0.00  0.00    +0.000 C 
ATOM     11  O   UNL     1       3.518   4.204  17.810  0.00  0.00    +0.000 OA
ATOM     12  N   UNL     1       5.023   5.866  18.344  0.00  0.00    +0.000 N 
ATOM     13  H   UNL     1       5.337   6.491  19.074  0.00  0.00    +0.000 HD
BRANCH  12  14
ATOM     14  C   UNL     1       5.961   5.423  17.439  0.00  0.00    +0.000 A 
ATOM     15  C   UNL     1       7.082   4.627  17.522  0.00  0.00    +0.000 A 
ATOM     16  N   UNL     1       7.806   4.517  16.343  0.00  0.00    +0.000 NA
ATOM     17  N   UNL     1       7.250   5.215  15.364  0.00  0.00    +0.000 NA
ATOM     18  S   UNL     1       5.818   5.957  15.827  0.00  0.00    +0.000 S 
ENDBRANCH  12  14
ENDBRANCH   1  10
TORSDOF 4
ENDMDL
MODEL 6
REMARK VINA RESULT:      -5.9      2.084      2.616
REMARK  Name = 
REMARK  5 active torsions:
REMARK  status: ('A' for Active; 'I' for Inactive)
REMARK    1  A    between atoms: C_1  and  O_2
REMARK    2  A    between atoms: O_2  and  C_3
REMARK    3  A    between atoms: C_7  and  C_8
REMARK    4  A    between atoms: C_8  and  C_9
REMARK    5  A    between atoms: N_11  and  C_12
REMARK                            x       y       z     vdW  Elec       q    Type
REMARK                         _______ _______ _______ _____ _____    ______ ____
ROOT
ATOM      1  C   UNL     1       6.130   4.918  18.266  0.00  0.00    +0.000 C 
ENDROOT
BRANCH   1   6
ATOM      2  C   UNL     1       7.305   5.113  14.643  0.00  0.00    +0.000 A 
ATOM      3  C   UNL     1       6.361   4.299  14.012  0.00  0.00    +0.000 A 
ATOM      4  C   UNL     1       5.336   3.695  14.740  0.00  0.00    +0.000 A 
ATOM      5  C   UNL     1       5.253   3.888  16.120  0.00  0.00    +0.000 A 
ATOM      6  C   UNL     1       6.178   4.715  16.772  0.00  0.00    +0.000 A 
ATOM      7  C   UNL     1       7.206   5.311  16.024  0.00  0.00    +0.000 A 
BRANCH   2   9
ATOM      8  C   UNL     1       8.031   5.534  12.423  0.00  0.00    +0.000 C 
ATOM      9  O   UNL     1       8.259   5.638  13.824  0.00  0.00    +0.000 OA
ENDBRANCH   2   9
ENDBRANCH   1   6
BRANCH   1  10
ATOM     10  C   UNL     1       5.026   4.225  19.047  0.00  0.00    +0.000 C 
ATOM     11  O   UNL     1       5.264   3.151  19.601  0.00  0.00    +0.000 OA
ATOM     12  N   UNL     1       3.796   4.852  19.089  0.00  0.00    +0.000 N 
ATOM     13  H   UNL     1       3.575   5.578  18.421  0.00  0.00    +0.000 HD
BRANCH  12  14
ATOM     14  C   UNL     1       2.746   4.259  19.753  0.00  0.00    +0.000 A 
ATOM     15  C   UNL     1       2.339   4.211  21.068  0.00  0.00    +0.000 A 
ATOM     16  N   UNL     1       1.243   3.394  21.309  0.00  0.00    +0.000 NA
ATOM     17  N   UNL     1       0.809   2.822  20.195  0.00  0.00    +0.000 NA
ATOM     18  S   UNL     1       1.667   3.309  18.838  0.00  0.00    +0.000 S 
ENDBRANCH  12  14
ENDBRANCH   1  10
TORSDOF 4
ENDMDL
MODEL 7
REMARK VINA RESULT:      -5.9      4.061      6.573
REMARK  Name = 
REMARK  5 active torsions:
REMARK  status: ('A' for Active; 'I' for Inactive)
REMARK    1  A    between atoms: C_1  and  O_2
REMARK    2  A    between atoms: O_2  and  C_3
REMARK    3  A    between atoms: C_7  and  C_8
REMARK    4  A    between atoms: C_8  and  C_9
REMARK    5  A    between atoms: N_11  and  C_12
REMARK                            x       y       z     vdW  Elec       q    Type
REMARK                         _______ _______ _______ _____ _____    ______ ____
ROOT
ATOM      1  C   UNL     1       2.963   6.197  19.401  0.00  0.00    +0.000 C 
ENDROOT
BRANCH   1   6
ATOM      2  C   UNL     1       0.923   9.292  20.296  0.00  0.00    +0.000 A 
ATOM      3  C   UNL     1       0.860   9.939  19.059  0.00  0.00    +0.000 A 
ATOM      4  C   UNL     1       1.460   9.380  17.929  0.00  0.00    +0.000 A 
ATOM      5  C   UNL     1       2.144   8.168  18.029  0.00  0.00    +0.000 A 
ATOM      6  C   UNL     1       2.205   7.493  19.256  0.00  0.00    +0.000 A 
ATOM      7  C   UNL     1       1.600   8.072  20.384  0.00  0.00    +0.000 A 
BRANCH   2   9
ATOM      8  C   UNL     1      -0.191   9.141  22.387  0.00  0.00    +0.000 C 
ATOM      9  O   UNL     1       0.305   9.943  21.321  0.00  0.00    +0.000 OA
ENDBRANCH   2   9
ENDBRANCH   1   6
BRANCH   1  10
ATOM     10  C   UNL     1       3.742   5.687  18.200  0.00  0.00    +0.000 C 
ATOM     11  O   UNL     1       3.278   4.765  17.529  0.00  0.00    +0.000 OA
ATOM     12  N   UNL     1       4.951   6.298  17.928  0.00  0.00    +0.000 N 
ATOM     13  H   UNL     1       5.407   6.856  18.638  0.00  0.00    +0.000 HD
BRANCH  12  14
ATOM     14  C   UNL     1       5.720   5.859  16.874  0.00  0.00    +0.000 A 
ATOM     15  C   UNL     1       5.628   5.962  15.503  0.00  0.00    +0.000 A 
ATOM     16  N   UNL     1       6.603   5.269  14.801  0.00  0.00    +0.000 NA
ATOM     17  N   UNL     1       7.438   4.643  15.618  0.00  0.00    +0.000 NA
ATOM     18  S   UNL     1       7.104   4.933  17.236  0.00  0.00    +0.000 S 
ENDBRANCH  12  14
ENDBRANCH   1  10
TORSDOF 4
ENDMDL
MODEL 8
REMARK VINA RESULT:      -5.9      1.609      1.802
REMARK  Name = 
REMARK  5 active torsions:
REMARK  status: ('A' for Active; 'I' for Inactive)
REMARK    1  A    between atoms: C_1  and  O_2
REMARK    2  A    between atoms: O_2  and  C_3
REMARK    3  A    between atoms: C_7  and  C_8
REMARK    4  A    between atoms: C_8  and  C_9
REMARK    5  A    between atoms: N_11  and  C_12
REMARK                            x       y       z     vdW  Elec       q    Type
REMARK                         _______ _______ _______ _____ _____    ______ ____
ROOT
ATOM      1  C   UNL     1       3.363   3.872  16.434  0.00  0.00    +0.000 C 
ENDROOT
BRANCH   1   6
ATOM      2  C   UNL     1       6.155   6.451  16.742  0.00  0.00    +0.000 A 
ATOM      3  C   UNL     1       7.262   5.695  16.347  0.00  0.00    +0.000 A 
ATOM      4  C   UNL     1       7.118   4.361  15.967  0.00  0.00    +0.000 A 
ATOM      5  C   UNL     1       5.859   3.760  15.993  0.00  0.00    +0.000 A 
ATOM      6  C   UNL     1       4.731   4.503  16.368  0.00  0.00    +0.000 A 
ATOM      7  C   UNL     1       4.895   5.844  16.752  0.00  0.00    +0.000 A 
BRANCH   2   9
ATOM      8  C   UNL     1       7.740   8.009  17.574  0.00  0.00    +0.000 C 
ATOM      9  O   UNL     1       6.429   7.738  17.095  0.00  0.00    +0.000 OA
ENDBRANCH   2   9
ENDBRANCH   1   6
BRANCH   1  10
ATOM     10  C   UNL     1       2.939   3.218  17.739  0.00  0.00    +0.000 C 
ATOM     11  O   UNL     1       2.391   2.115  17.709  0.00  0.00    +0.000 OA
ATOM     12  N   UNL     1       3.194   3.914  18.905  0.00  0.00    +0.000 N 
ATOM     13  H   UNL     1       3.400   4.904  18.868  0.00  0.00    +0.000 HD
BRANCH  12  14
ATOM     14  C   UNL     1       2.805   3.390  20.116  0.00  0.00    +0.000 A 
ATOM     15  C   UNL     1       3.403   2.577  21.054  0.00  0.00    +0.000 A 
ATOM     16  N   UNL     1       2.585   2.212  22.113  0.00  0.00    +0.000 NA
ATOM     17  N   UNL     1       1.374   2.738  21.997  0.00  0.00    +0.000 NA
ATOM     18  S   UNL     1       1.223   3.729  20.652  0.00  0.00    +0.000 S 
ENDBRANCH  12  14
ENDBRANCH   1  10
TORSDOF 4
ENDMDL
MODEL 9
REMARK VINA RESULT:      -5.9      3.964      6.325
REMARK  Name = 
REMARK  5 active torsions:
REMARK  status: ('A' for Active; 'I' for Inactive)
REMARK    1  A    between atoms: C_1  and  O_2
REMARK    2  A    between atoms: O_2  and  C_3
REMARK    3  A    between atoms: C_7  and  C_8
REMARK    4  A    between atoms: C_8  and  C_9
REMARK    5  A    between atoms: N_11  and  C_12
REMARK                            x       y       z     vdW  Elec       q    Type
REMARK                         _______ _______ _______ _____ _____    ______ ____
ROOT
ATOM      1  C   UNL     1       3.011   5.743  19.572  0.00  0.00    +0.000 C 
ENDROOT
BRANCH   1   6
ATOM      2  C   UNL     1       1.169   9.011  20.257  0.00  0.00    +0.000 A 
ATOM      3  C   UNL     1       1.167   9.588  18.984  0.00  0.00    +0.000 A 
ATOM      4  C   UNL     1       1.743   8.928  17.898  0.00  0.00    +0.000 A 
ATOM      5  C   UNL     1       2.344   7.681  18.078  0.00  0.00    +0.000 A 
ATOM      6  C   UNL     1       2.343   7.075  19.342  0.00  0.00    +0.000 A 
ATOM      7  C   UNL     1       1.762   7.756  20.425  0.00  0.00    +0.000 A 
BRANCH   2   9
ATOM      8  C   UNL     1       0.632   9.242  22.557  0.00  0.00    +0.000 C 
ATOM      9  O   UNL     1       0.582   9.759  21.233  0.00  0.00    +0.000 OA
ENDBRANCH   2   9
ENDBRANCH   1   6
BRANCH   1  10
ATOM     10  C   UNL     1       4.368   5.503  18.931  0.00  0.00    +0.000 C 
ATOM     11  O   UNL     1       5.384   5.593  19.622  0.00  0.00    +0.000 OA
ATOM     12  N   UNL     1       4.383   5.195  17.585  0.00  0.00    +0.000 N 
ATOM     13  H   UNL     1       3.570   5.385  17.013  0.00  0.00    +0.000 HD
BRANCH  12  14
ATOM     14  C   UNL     1       5.583   4.998  16.939  0.00  0.00    +0.000 A 
ATOM     15  C   UNL     1       6.798   4.462  17.302  0.00  0.00    +0.000 A 
ATOM     16  N   UNL     1       7.787   4.554  16.334  0.00  0.00    +0.000 NA
ATOM     17  N   UNL     1       7.341   5.150  15.238  0.00  0.00    +0.000 NA
ATOM     18  S   UNL     1       5.713   5.546  15.330  0.00  0.00    +0.000 S 
ENDBRANCH  12  14
ENDBRANCH   1  10
TORSDOF 4
ENDMDL
