MODEL 1
REMARK VINA RESULT:      -7.6      0.000      0.000
REMARK  Name = 
REMARK  5 active torsions:
REMARK  status: ('A' for Active; 'I' for Inactive)
REMARK    1  A    between atoms: C_1  and  C_2
REMARK    2  A    between atoms: C_2  and  C_3
REMARK    3  A    between atoms: C_2  and  C_4
REMARK    4  A    between atoms: C_2  and  C_5
REMARK    5  A    between atoms: C_8  and  C_9
REMARK                            x       y       z     vdW  Elec       q    Type
REMARK                         _______ _______ _______ _____ _____    ______ ____
ROOT
ATOM      1  C   UNL     1       7.942   7.557  17.429  0.00  0.00    +0.000 C 
ATOM      2  C   UNL     1       6.667   7.103  17.278  0.00  0.00    +0.000 C 
ATOM      3  C   UNL     1       5.597   8.037  17.718  0.00  0.00    +0.000 C 
ATOM      4  C   UNL     1       4.147   7.675  17.495  0.00  0.00    +0.000 C 
ATOM      5  C   UNL     1       3.876   6.193  17.443  0.00  0.00    +0.000 C 
ATOM      6  C   UNL     1       3.549   5.601  18.819  0.00  0.00    +0.000 C 
ATOM      7  C   UNL     1       2.053   5.805  19.131  0.00  0.00    +0.000 C 
ATOM      8  C   UNL     1       1.710   5.167  20.466  0.00  0.00    +0.000 C 
ATOM      9  C   UNL     1       2.058   3.678  20.454  0.00  0.00    +0.000 C 
ATOM     10  N   UNL     1       3.468   3.479  20.133  0.00  0.00    +0.000 NA
ATOM     11  C   UNL     1       3.939   2.105  20.276  0.00  0.00    +0.000 C 
ATOM     12  C   UNL     1       3.809   1.222  19.032  0.00  0.00    +0.000 C 
ATOM     13  C   UNL     1       4.217   1.902  17.721  0.00  0.00    +0.000 C 
ATOM     14  C   UNL     1       3.697   3.342  17.597  0.00  0.00    +0.000 C 
ATOM     15  C   UNL     1       4.355   4.081  16.377  0.00  0.00    +0.000 C 
ATOM     16  N   UNL     1       4.882   5.417  16.744  0.00  0.00    +0.000 N 
ATOM     17  C   UNL     1       6.255   5.731  16.735  0.00  0.00    +0.000 C 
ATOM     18  O   UNL     1       7.112   4.955  16.314  0.00  0.00    +0.000 OA
ATOM     19  C   UNL     1       3.964   4.115  18.905  0.00  0.00    +0.000 C 
ENDROOT
BRANCH   1  23
ATOM     20  C   UNL     1       9.363  11.417  18.993  0.00  0.00    +0.000 A 
ATOM     21  C   UNL     1       8.639  11.320  17.793  0.00  0.00    +0.000 A 
ATOM     22  C   UNL     1       8.087  10.084  17.327  0.00  0.00    +0.000 A 
ATOM     23  C   UNL     1       8.236   8.897  18.063  0.00  0.00    +0.000 A 
ATOM     24  C   UNL     1       8.896   9.000  19.294  0.00  0.00    +0.000 A 
ATOM     25  C   UNL     1       9.469  10.224  19.732  0.00  0.00    +0.000 A 
BRANCH  20  27
ATOM     26  C   UNL     1       9.254  13.409  20.677  0.00  0.00    +0.000 C 
ATOM     27  C   UNL     1      10.008  12.739  19.504  0.00  0.00    +0.000 C 
ATOM     28  C   UNL     1      10.103  13.807  18.385  0.00  0.00    +0.000 C 
ATOM     29  C   UNL     1      11.447  12.473  20.009  0.00  0.00    +0.000 C 
ENDBRANCH  20  27
ENDBRANCH   1  23
TORSDOF 2
ENDMDL
MODEL 2
REMARK VINA RESULT:      -7.5      6.739     10.254
REMARK  Name = 
REMARK  5 active torsions:
REMARK  status: ('A' for Active; 'I' for Inactive)
REMARK    1  A    between atoms: C_1  and  C_2
REMARK    2  A    between atoms: C_2  and  C_3
REMARK    3  A    between atoms: C_2  and  C_4
REMARK    4  A    between atoms: C_2  and  C_5
REMARK    5  A    between atoms: C_8  and  C_9
REMARK                            x       y       z     vdW  Elec       q    Type
REMARK                         _______ _______ _______ _____ _____    ______ ____
ROOT
ATOM      1  C   UNL     1       0.905   8.428  21.576  0.00  0.00    +0.000 C 
ATOM      2  C   UNL     1       0.098   9.480  21.267  0.00  0.00    +0.000 C 
ATOM      3  C   UNL     1      -0.208   9.652  19.822  0.00  0.00    +0.000 C 
ATOM      4  C   UNL     1      -1.179  10.721  19.383  0.00  0.00    +0.000 C 
ATOM      5  C   UNL     1      -1.267  11.904  20.314  0.00  0.00    +0.000 C 
ATOM      6  C   UNL     1      -0.274  13.016  19.957  0.00  0.00    +0.000 C 
ATOM      7  C   UNL     1      -0.871  13.914  18.855  0.00  0.00    +0.000 C 
ATOM      8  C   UNL     1       0.083  15.052  18.540  0.00  0.00    +0.000 C 
ATOM      9  C   UNL     1       0.376  15.870  19.799  0.00  0.00    +0.000 C 
ATOM     10  N   UNL     1       0.918  15.019  20.854  0.00  0.00    +0.000 NA
ATOM     11  C   UNL     1       1.400  15.736  22.031  0.00  0.00    +0.000 C 
ATOM     12  C   UNL     1       0.365  15.983  23.132  0.00  0.00    +0.000 C 
ATOM     13  C   UNL     1      -0.535  14.782  23.442  0.00  0.00    +0.000 C 
ATOM     14  C   UNL     1      -1.034  14.057  22.184  0.00  0.00    +0.000 C 
ATOM     15  C   UNL     1      -1.724  12.694  22.549  0.00  0.00    +0.000 C 
ATOM     16  N   UNL     1      -1.222  11.569  21.725  0.00  0.00    +0.000 N 
ATOM     17  C   UNL     1      -0.481  10.495  22.257  0.00  0.00    +0.000 C 
ATOM     18  O   UNL     1      -0.292  10.353  23.463  0.00  0.00    +0.000 OA
ATOM     19  C   UNL     1       0.138  13.825  21.208  0.00  0.00    +0.000 C 
ENDROOT
BRANCH   1  23
ATOM     20  C   UNL     1       3.166   5.891  18.781  0.00  0.00    +0.000 A 
ATOM     21  C   UNL     1       2.446   5.352  19.860  0.00  0.00    +0.000 A 
ATOM     22  C   UNL     1       1.627   6.158  20.715  0.00  0.00    +0.000 A 
ATOM     23  C   UNL     1       1.496   7.541  20.505  0.00  0.00    +0.000 A 
ATOM     24  C   UNL     1       2.155   8.072  19.389  0.00  0.00    +0.000 A 
ATOM     25  C   UNL     1       2.991   7.271  18.567  0.00  0.00    +0.000 A 
BRANCH  20  27
ATOM     26  C   UNL     1       4.712   5.832  16.678  0.00  0.00    +0.000 C 
ATOM     27  C   UNL     1       4.096   5.046  17.860  0.00  0.00    +0.000 C 
ATOM     28  C   UNL     1       3.350   3.840  17.235  0.00  0.00    +0.000 C 
ATOM     29  C   UNL     1       5.286   4.481  18.672  0.00  0.00    +0.000 C 
ENDBRANCH  20  27
ENDBRANCH   1  23
TORSDOF 2
ENDMDL
MODEL 3
REMARK VINA RESULT:      -7.4      5.651      9.924
REMARK  Name = 
REMARK  5 active torsions:
REMARK  status: ('A' for Active; 'I' for Inactive)
REMARK    1  A    between atoms: C_1  and  C_2
REMARK    2  A    between atoms: C_2  and  C_3
REMARK    3  A    between atoms: C_2  and  C_4
REMARK    4  A    between atoms: C_2  and  C_5
REMARK    5  A    between atoms: C_8  and  C_9
REMARK                            x       y       z     vdW  Elec       q    Type
REMARK                         _______ _______ _______ _____ _____    ______ ____
ROOT
ATOM      1  C   UNL     1       0.957   8.038  21.192  0.00  0.00    +0.000 C 
ATOM      2  C   UNL     1       0.721   9.196  20.515  0.00  0.00    +0.000 C 
ATOM      3  C   UNL     1       1.253   9.248  19.128  0.00  0.00    +0.000 C 
ATOM      4  C   UNL     1       0.953  10.442  18.254  0.00  0.00    +0.000 C 
ATOM      5  C   UNL     1       0.705  11.722  19.012  0.00  0.00    +0.000 C 
ATOM      6  C   UNL     1       1.986  12.532  19.243  0.00  0.00    +0.000 C 
ATOM      7  C   UNL     1       2.289  13.395  18.001  0.00  0.00    +0.000 C 
ATOM      8  C   UNL     1       3.522  14.245  18.248  0.00  0.00    +0.000 C 
ATOM      9  C   UNL     1       3.326  15.128  19.481  0.00  0.00    +0.000 C 
ATOM     10  N   UNL     1       3.014  14.318  20.654  0.00  0.00    +0.000 NA
ATOM     11  C   UNL     1       2.990  15.052  21.915  0.00  0.00    +0.000 C 
ATOM     12  C   UNL     1       1.640  15.659  22.309  0.00  0.00    +0.000 C 
ATOM     13  C   UNL     1       0.437  14.736  22.085  0.00  0.00    +0.000 C 
ATOM     14  C   UNL     1       0.487  13.987  20.746  0.00  0.00    +0.000 C 
ATOM     15  C   UNL     1      -0.612  12.868  20.678  0.00  0.00    +0.000 C 
ATOM     16  N   UNL     1      -0.065  11.565  20.231  0.00  0.00    +0.000 N 
ATOM     17  C   UNL     1      -0.003  10.430  21.062  0.00  0.00    +0.000 C 
ATOM     18  O   UNL     1      -0.501  10.402  22.186  0.00  0.00    +0.000 OA
ATOM     19  C   UNL     1       1.890  13.381  20.532  0.00  0.00    +0.000 C 
ENDROOT
BRANCH   1  23
ATOM     20  C   UNL     1       2.857   4.741  18.981  0.00  0.00    +0.000 A 
ATOM     21  C   UNL     1       3.170   6.087  18.728  0.00  0.00    +0.000 A 
ATOM     22  C   UNL     1       2.633   7.160  19.509  0.00  0.00    +0.000 A 
ATOM     23  C   UNL     1       1.764   6.915  20.584  0.00  0.00    +0.000 A 
ATOM     24  C   UNL     1       1.503   5.572  20.886  0.00  0.00    +0.000 A 
ATOM     25  C   UNL     1       2.014   4.516  20.086  0.00  0.00    +0.000 A 
BRANCH  20  27
ATOM     26  C   UNL     1       4.262   3.981  16.917  0.00  0.00    +0.000 C 
ATOM     27  C   UNL     1       3.394   3.557  18.125  0.00  0.00    +0.000 C 
ATOM     28  C   UNL     1       2.244   2.692  17.550  0.00  0.00    +0.000 C 
ATOM     29  C   UNL     1       4.280   2.628  18.990  0.00  0.00    +0.000 C 
ENDBRANCH  20  27
ENDBRANCH   1  23
TORSDOF 2
ENDMDL
MODEL 4
REMARK VINA RESULT:      -7.4      5.593      9.878
REMARK  Name = 
REMARK  5 active torsions:
REMARK  status: ('A' for Active; 'I' for Inactive)
REMARK    1  A    between atoms: C_1  and  C_2
REMARK    2  A    between atoms: C_2  and  C_3
REMARK    3  A    between atoms: C_2  and  C_4
REMARK    4  A    between atoms: C_2  and  C_5
REMARK    5  A    between atoms: C_8  and  C_9
REMARK                            x       y       z     vdW  Elec       q    Type
REMARK                         _______ _______ _______ _____ _____    ______ ____
ROOT
ATOM      1  C   UNL     1       1.098   8.233  21.244  0.00  0.00    +0.000 C 
ATOM      2  C   UNL     1       0.815   9.424  20.647  0.00  0.00    +0.000 C 
ATOM      3  C   UNL     1       1.043   9.476  19.178  0.00  0.00    +0.000 C 
ATOM      4  C   UNL     1       0.659  10.714  18.403  0.00  0.00    +0.000 C 
ATOM      5  C   UNL     1       0.679  11.987  19.212  0.00  0.00    +0.000 C 
ATOM      6  C   UNL     1       2.039  12.693  19.174  0.00  0.00    +0.000 C 
ATOM      7  C   UNL     1       2.138  13.565  17.907  0.00  0.00    +0.000 C 
ATOM      8  C   UNL     1       3.458  14.315  17.894  0.00  0.00    +0.000 C 
ATOM      9  C   UNL     1       3.599  15.175  19.151  0.00  0.00    +0.000 C 
ATOM     10  N   UNL     1       3.480  14.357  20.354  0.00  0.00    +0.000 NA
ATOM     11  C   UNL     1       3.781  15.054  21.600  0.00  0.00    +0.000 C 
ATOM     12  C   UNL     1       2.597  15.748  22.280  0.00  0.00    +0.000 C 
ATOM     13  C   UNL     1       1.306  14.923  22.308  0.00  0.00    +0.000 C 
ATOM     14  C   UNL     1       1.012  14.211  20.979  0.00  0.00    +0.000 C 
ATOM     15  C   UNL     1      -0.162  13.179  21.135  0.00  0.00    +0.000 C 
ATOM     16  N   UNL     1       0.175  11.852  20.565  0.00  0.00    +0.000 N 
ATOM     17  C   UNL     1       0.323  10.692  21.350  0.00  0.00    +0.000 C 
ATOM     18  O   UNL     1       0.073  10.669  22.554  0.00  0.00    +0.000 OA
ATOM     19  C   UNL     1       2.285  13.509  20.463  0.00  0.00    +0.000 C 
ENDROOT
BRANCH   1  23
ATOM     20  C   UNL     1       3.227   4.854  19.395  0.00  0.00    +0.000 A 
ATOM     21  C   UNL     1       2.224   4.665  20.360  0.00  0.00    +0.000 A 
ATOM     22  C   UNL     1       1.457   5.751  20.894  0.00  0.00    +0.000 A 
ATOM     23  C   UNL     1       1.668   7.071  20.464  0.00  0.00    +0.000 A 
ATOM     24  C   UNL     1       2.617   7.258  19.451  0.00  0.00    +0.000 A 
ATOM     25  C   UNL     1       3.395   6.180  18.952  0.00  0.00    +0.000 A 
BRANCH  20  27
ATOM     26  C   UNL     1       3.538   3.037  17.547  0.00  0.00    +0.000 C 
ATOM     27  C   UNL     1       4.103   3.699  18.826  0.00  0.00    +0.000 C 
ATOM     28  C   UNL     1       4.294   2.558  19.856  0.00  0.00    +0.000 C 
ATOM     29  C   UNL     1       5.510   4.226  18.456  0.00  0.00    +0.000 C 
ENDBRANCH  20  27
ENDBRANCH   1  23
TORSDOF 2
ENDMDL
MODEL 5
REMARK VINA RESULT:      -7.3      7.088     10.898
REMARK  Name = 
REMARK  5 active torsions:
REMARK  status: ('A' for Active; 'I' for Inactive)
REMARK    1  A    between atoms: C_1  and  C_2
REMARK    2  A    between atoms: C_2  and  C_3
REMARK    3  A    between atoms: C_2  and  C_4
REMARK    4  A    between atoms: C_2  and  C_5
REMARK    5  A    between atoms: C_8  and  C_9
REMARK                            x       y       z     vdW  Elec       q    Type
REMARK                         _______ _______ _______ _____ _____    ______ ____
ROOT
ATOM      1  C   UNL     1       0.169  10.698  19.044  0.00  0.00    +0.000 C 
ATOM      2  C   UNL     1       0.625  11.967  18.851  0.00  0.00    +0.000 C 
ATOM      3  C   UNL     1       2.093  12.098  18.650  0.00  0.00    +0.000 C 
ATOM      4  C   UNL     1       2.687  13.447  18.320  0.00  0.00    +0.000 C 
ATOM      5  C   UNL     1       1.890  14.621  18.832  0.00  0.00    +0.000 C 
ATOM      6  C   UNL     1       2.317  15.060  20.238  0.00  0.00    +0.000 C 
ATOM      7  C   UNL     1       3.534  16.002  20.142  0.00  0.00    +0.000 C 
ATOM      8  C   UNL     1       3.923  16.488  21.527  0.00  0.00    +0.000 C 
ATOM      9  C   UNL     1       2.746  17.198  22.196  0.00  0.00    +0.000 C 
ATOM     10  N   UNL     1       1.583  16.319  22.265  0.00  0.00    +0.000 NA
ATOM     11  C   UNL     1       0.468  16.840  23.049  0.00  0.00    +0.000 C 
ATOM     12  C   UNL     1      -0.552  17.684  22.280  0.00  0.00    +0.000 C 
ATOM     13  C   UNL     1      -0.946  17.117  20.912  0.00  0.00    +0.000 C 
ATOM     14  C   UNL     1       0.250  16.587  20.108  0.00  0.00    +0.000 C 
ATOM     15  C   UNL     1      -0.224  15.784  18.845  0.00  0.00    +0.000 C 
ATOM     16  N   UNL     1       0.452  14.470  18.724  0.00  0.00    +0.000 N 
ATOM     17  C   UNL     1      -0.224  13.241  18.852  0.00  0.00    +0.000 C 
ATOM     18  O   UNL     1      -1.447  13.164  18.962  0.00  0.00    +0.000 OA
ATOM     19  C   UNL     1       1.141  15.704  21.006  0.00  0.00    +0.000 C 
ENDROOT
BRANCH   1  23
ATOM     20  C   UNL     1       2.408   6.910  19.124  0.00  0.00    +0.000 A 
ATOM     21  C   UNL     1       2.285   7.679  17.955  0.00  0.00    +0.000 A 
ATOM     22  C   UNL     1       1.645   8.960  17.942  0.00  0.00    +0.000 A 
ATOM     23  C   UNL     1       1.112   9.519  19.115  0.00  0.00    +0.000 A 
ATOM     24  C   UNL     1       1.294   8.790  20.297  0.00  0.00    +0.000 A 
ATOM     25  C   UNL     1       1.900   7.506  20.294  0.00  0.00    +0.000 A 
BRANCH  20  27
ATOM     26  C   UNL     1       4.610   5.509  19.193  0.00  0.00    +0.000 C 
ATOM     27  C   UNL     1       3.063   5.498  19.161  0.00  0.00    +0.000 C 
ATOM     28  C   UNL     1       2.662   4.643  17.933  0.00  0.00    +0.000 C 
ATOM     29  C   UNL     1       2.609   4.729  20.425  0.00  0.00    +0.000 C 
ENDBRANCH  20  27
ENDBRANCH   1  23
TORSDOF 2
ENDMDL
MODEL 6
REMARK VINA RESULT:      -7.1      7.698     10.971
REMARK  Name = 
REMARK  5 active torsions:
REMARK  status: ('A' for Active; 'I' for Inactive)
REMARK    1  A    between atoms: C_1  and  C_2
REMARK    2  A    between atoms: C_2  and  C_3
REMARK    3  A    between atoms: C_2  and  C_4
REMARK    4  A    between atoms: C_2  and  C_5
REMARK    5  A    between atoms: C_8  and  C_9
REMARK                            x       y       z     vdW  Elec       q    Type
REMARK                         _______ _______ _______ _____ _____    ______ ____
ROOT
ATOM      1  C   UNL     1      -0.251  10.572  19.414  0.00  0.00    +0.000 C 
ATOM      2  C   UNL     1      -0.033  11.916  19.388  0.00  0.00    +0.000 C 
ATOM      3  C   UNL     1       1.357  12.335  19.066  0.00  0.00    +0.000 C 
ATOM      4  C   UNL     1       1.679  13.802  18.905  0.00  0.00    +0.000 C 
ATOM      5  C   UNL     1       0.776  14.727  19.680  0.00  0.00    +0.000 C 
ATOM      6  C   UNL     1       1.303  15.026  21.089  0.00  0.00    +0.000 C 
ATOM      7  C   UNL     1       2.330  16.174  21.029  0.00  0.00    +0.000 C 
ATOM      8  C   UNL     1       2.809  16.515  22.429  0.00  0.00    +0.000 C 
ATOM      9  C   UNL     1       1.628  16.898  23.321  0.00  0.00    +0.000 C 
ATOM     10  N   UNL     1       0.640  15.825  23.361  0.00  0.00    +0.000 NA
ATOM     11  C   UNL     1      -0.435  16.019  24.328  0.00  0.00    +0.000 C 
ATOM     12  C   UNL     1      -1.667  16.770  23.816  0.00  0.00    +0.000 C 
ATOM     13  C   UNL     1      -2.136  16.347  22.419  0.00  0.00    +0.000 C 
ATOM     14  C   UNL     1      -0.982  16.162  21.422  0.00  0.00    +0.000 C 
ATOM     15  C   UNL     1      -1.479  15.479  20.098  0.00  0.00    +0.000 C 
ATOM     16  N   UNL     1      -0.621  14.340  19.694  0.00  0.00    +0.000 N 
ATOM     17  C   UNL     1      -1.069  13.004  19.685  0.00  0.00    +0.000 C 
ATOM     18  O   UNL     1      -2.240  12.695  19.903  0.00  0.00    +0.000 OA
ATOM     19  C   UNL     1       0.146  15.331  22.068  0.00  0.00    +0.000 C 
ENDROOT
BRANCH   1  23
ATOM     20  C   UNL     1       2.561   7.288  18.596  0.00  0.00    +0.000 A 
ATOM     21  C   UNL     1       2.228   8.243  17.622  0.00  0.00    +0.000 A 
ATOM     22  C   UNL     1       1.393   9.371  17.908  0.00  0.00    +0.000 A 
ATOM     23  C   UNL     1       0.870   9.583  19.194  0.00  0.00    +0.000 A 
ATOM     24  C   UNL     1       1.256   8.673  20.186  0.00  0.00    +0.000 A 
ATOM     25  C   UNL     1       2.057   7.539  19.886  0.00  0.00    +0.000 A 
BRANCH  20  27
ATOM     26  C   UNL     1       4.583   6.268  17.296  0.00  0.00    +0.000 C 
ATOM     27  C   UNL     1       3.434   6.031  18.305  0.00  0.00    +0.000 C 
ATOM     28  C   UNL     1       2.592   4.862  17.736  0.00  0.00    +0.000 C 
ATOM     29  C   UNL     1       4.099   5.527  19.609  0.00  0.00    +0.000 C 
ENDBRANCH  20  27
ENDBRANCH   1  23
TORSDOF 2
ENDMDL
MODEL 7
REMARK VINA RESULT:      -6.9      6.605      9.896
REMARK  Name = 
REMARK  5 active torsions:
REMARK  status: ('A' for Active; 'I' for Inactive)
REMARK    1  A    between atoms: C_1  and  C_2
REMARK    2  A    between atoms: C_2  and  C_3
REMARK    3  A    between atoms: C_2  and  C_4
REMARK    4  A    between atoms: C_2  and  C_5
REMARK    5  A    between atoms: C_8  and  C_9
REMARK                            x       y       z     vdW  Elec       q    Type
REMARK                         _______ _______ _______ _____ _____    ______ ____
ROOT
ATOM      1  C   UNL     1       0.734   9.278  18.684  0.00  0.00    +0.000 C 
ATOM      2  C   UNL     1       0.897  10.627  18.589  0.00  0.00    +0.000 C 
ATOM      3  C   UNL     1       2.301  11.094  18.440  0.00  0.00    +0.000 C 
ATOM      4  C   UNL     1       2.584  12.561  18.218  0.00  0.00    +0.000 C 
ATOM      5  C   UNL     1       1.539  13.489  18.784  0.00  0.00    +0.000 C 
ATOM      6  C   UNL     1       1.839  13.910  20.228  0.00  0.00    +0.000 C 
ATOM      7  C   UNL     1       2.817  15.102  20.231  0.00  0.00    +0.000 C 
ATOM      8  C   UNL     1       3.070  15.563  21.655  0.00  0.00    +0.000 C 
ATOM      9  C   UNL     1       1.755  15.944  22.337  0.00  0.00    +0.000 C 
ATOM     10  N   UNL     1       0.817  14.826  22.314  0.00  0.00    +0.000 NA
ATOM     11  C   UNL     1      -0.396  15.030  23.099  0.00  0.00    +0.000 C 
ATOM     12  C   UNL     1      -1.569  15.680  22.360  0.00  0.00    +0.000 C 
ATOM     13  C   UNL     1      -1.809  15.140  20.945  0.00  0.00    +0.000 C 
ATOM     14  C   UNL     1      -0.514  14.946  20.142  0.00  0.00    +0.000 C 
ATOM     15  C   UNL     1      -0.782  14.151  18.815  0.00  0.00    +0.000 C 
ATOM     16  N   UNL     1       0.172  13.032  18.626  0.00  0.00    +0.000 N 
ATOM     17  C   UNL     1      -0.215  11.678  18.652  0.00  0.00    +0.000 C 
ATOM     18  O   UNL     1      -1.391  11.324  18.721  0.00  0.00    +0.000 OA
ATOM     19  C   UNL     1       0.540  14.221  21.004  0.00  0.00    +0.000 C 
ENDROOT
BRANCH   1  23
ATOM     20  C   UNL     1       3.786   6.116  18.464  0.00  0.00    +0.000 A 
ATOM     21  C   UNL     1       3.632   7.075  17.450  0.00  0.00    +0.000 A 
ATOM     22  C   UNL     1       2.710   8.166  17.558  0.00  0.00    +0.000 A 
ATOM     23  C   UNL     1       1.915   8.335  18.702  0.00  0.00    +0.000 A 
ATOM     24  C   UNL     1       2.114   7.423  19.746  0.00  0.00    +0.000 A 
ATOM     25  C   UNL     1       3.005   6.326  19.617  0.00  0.00    +0.000 A 
BRANCH  20  27
ATOM     26  C   UNL     1       4.251   3.620  19.074  0.00  0.00    +0.000 C 
ATOM     27  C   UNL     1       4.750   4.897  18.357  0.00  0.00    +0.000 C 
ATOM     28  C   UNL     1       6.145   5.210  18.953  0.00  0.00    +0.000 C 
ATOM     29  C   UNL     1       4.960   4.508  16.874  0.00  0.00    +0.000 C 
ENDBRANCH  20  27
ENDBRANCH   1  23
TORSDOF 2
ENDMDL
MODEL 8
REMARK VINA RESULT:      -6.8      6.297     10.739
REMARK  Name = 
REMARK  5 active torsions:
REMARK  status: ('A' for Active; 'I' for Inactive)
REMARK    1  A    between atoms: C_1  and  C_2
REMARK    2  A    between atoms: C_2  and  C_3
REMARK    3  A    between atoms: C_2  and  C_4
REMARK    4  A    between atoms: C_2  and  C_5
REMARK    5  A    between atoms: C_8  and  C_9
REMARK                            x       y       z     vdW  Elec       q    Type
REMARK                         _______ _______ _______ _____ _____    ______ ____
ROOT
ATOM      1  C   UNL     1       0.189  11.215  19.666  0.00  0.00    +0.000 C 
ATOM      2  C   UNL     1       0.878  12.343  19.338  0.00  0.00    +0.000 C 
ATOM      3  C   UNL     1       2.139  12.127  18.579  0.00  0.00    +0.000 C 
ATOM      4  C   UNL     1       2.922  13.314  18.073  0.00  0.00    +0.000 C 
ATOM      5  C   UNL     1       2.740  14.573  18.883  0.00  0.00    +0.000 C 
ATOM      6  C   UNL     1       3.763  14.703  20.017  0.00  0.00    +0.000 C 
ATOM      7  C   UNL     1       5.070  15.313  19.472  0.00  0.00    +0.000 C 
ATOM      8  C   UNL     1       6.066  15.500  20.603  0.00  0.00    +0.000 C 
ATOM      9  C   UNL     1       5.474  16.389  21.697  0.00  0.00    +0.000 C 
ATOM     10  N   UNL     1       4.223  15.829  22.198  0.00  0.00    +0.000 NA
ATOM     11  C   UNL     1       3.675  16.506  23.369  0.00  0.00    +0.000 C 
ATOM     12  C   UNL     1       2.725  17.672  23.083  0.00  0.00    +0.000 C 
ATOM     13  C   UNL     1       1.709  17.407  21.967  0.00  0.00    +0.000 C 
ATOM     14  C   UNL     1       2.318  16.703  20.745  0.00  0.00    +0.000 C 
ATOM     15  C   UNL     1       1.202  16.218  19.753  0.00  0.00    +0.000 C 
ATOM     16  N   UNL     1       1.385  14.804  19.346  0.00  0.00    +0.000 N 
ATOM     17  C   UNL     1       0.488  13.778  19.702  0.00  0.00    +0.000 C 
ATOM     18  O   UNL     1      -0.575  13.997  20.282  0.00  0.00    +0.000 OA
ATOM     19  C   UNL     1       3.191  15.515  21.201  0.00  0.00    +0.000 C 
ENDROOT
BRANCH   1  23
ATOM     20  C   UNL     1       2.299   7.463  18.756  0.00  0.00    +0.000 A 
ATOM     21  C   UNL     1       1.904   7.798  20.061  0.00  0.00    +0.000 A 
ATOM     22  C   UNL     1       1.130   8.967  20.353  0.00  0.00    +0.000 A 
ATOM     23  C   UNL     1       0.716   9.839  19.333  0.00  0.00    +0.000 A 
ATOM     24  C   UNL     1       1.047   9.473  18.022  0.00  0.00    +0.000 A 
ATOM     25  C   UNL     1       1.843   8.330  17.746  0.00  0.00    +0.000 A 
BRANCH  20  27
ATOM     26  C   UNL     1       3.906   5.598  19.627  0.00  0.00    +0.000 C 
ATOM     27  C   UNL     1       3.174   6.220  18.414  0.00  0.00    +0.000 C 
ATOM     28  C   UNL     1       4.270   6.554  17.371  0.00  0.00    +0.000 C 
ATOM     29  C   UNL     1       2.296   5.095  17.814  0.00  0.00    +0.000 C 
ENDBRANCH  20  27
ENDBRANCH   1  23
TORSDOF 2
ENDMDL
