MODEL 1
REMARK VINA RESULT:      -8.5      0.000      0.000
REMARK  Name = 
REMARK  8 active torsions:
REMARK  status: ('A' for Active; 'I' for Inactive)
REMARK    1  A    between atoms: C_1  and  O_2
REMARK    2  A    between atoms: O_2  and  C_3
REMARK    3  A    between atoms: C_9  and  C_10
REMARK    4  A    between atoms: C_13  and  C_14
REMARK    5  A    between atoms: C_14  and  C_15
REMARK    6  A    between atoms: C_18  and  O_19
REMARK    7  A    between atoms: O_19  and  C_20
REMARK    8  A    between atoms: C_28  and  C_29
REMARK                            x       y       z     vdW  Elec       q    Type
REMARK                         _______ _______ _______ _____ _____    ______ ____
ROOT
ATOM      1  C   UNL     1       1.376   9.898  19.302  0.00  0.00    +0.000 A 
ATOM      2  C   UNL     1       1.873   9.107  18.262  0.00  0.00    +0.000 A 
ATOM      3  C   UNL     1       2.173   7.760  18.478  0.00  0.00    +0.000 A 
ATOM      4  C   UNL     1       1.982   7.182  19.742  0.00  0.00    +0.000 A 
ATOM      5  C   UNL     1       1.478   7.978  20.779  0.00  0.00    +0.000 A 
ATOM      6  C   UNL     1       1.175   9.327  20.564  0.00  0.00    +0.000 A 
ENDROOT
BRANCH   1  13
ATOM      7  C   UNL     1       1.137  15.575  18.709  0.00  0.00    +0.000 A 
ATOM      8  C   UNL     1       2.345  16.203  18.377  0.00  0.00    +0.000 A 
ATOM      9  C   UNL     1       3.482  15.455  18.081  0.00  0.00    +0.000 A 
ATOM     10  C   UNL     1       3.437  14.067  18.150  0.00  0.00    +0.000 A 
ATOM     11  C   UNL     1       2.257  13.417  18.527  0.00  0.00    +0.000 A 
ATOM     12  N   UNL     1       2.229  12.019  18.592  0.00  0.00    +0.000 N 
ATOM     13  C   UNL     1       1.143  11.341  19.092  0.00  0.00    +0.000 A 
ATOM     14  C   UNL     1      -0.039  11.927  19.360  0.00  0.00    +0.000 A 
ATOM     15  C   UNL     1      -1.274  11.269  19.901  0.00  0.00    +0.000 C 
ATOM     16  C   UNL     1      -0.157  13.402  19.081  0.00  0.00    +0.000 A 
ATOM     17  O   UNL     1      -1.266  13.929  19.087  0.00  0.00    +0.000 OA
ATOM     18  C   UNL     1       1.092  14.169  18.776  0.00  0.00    +0.000 A 
ATOM     19  H   UNL     1       3.111  11.519  18.571  0.00  0.00    +0.000 HD
BRANCH   7  21
ATOM     20  C   UNL     1      -0.480  17.173  18.045  0.00  0.00    +0.000 C 
ATOM     21  O   UNL     1       0.023  16.297  19.051  0.00  0.00    +0.000 OA
ENDBRANCH   7  21
ENDBRANCH   1  13
BRANCH   4  22
ATOM     22  C   UNL     1       2.315   5.728  19.978  0.00  0.00    +0.000 C 
BRANCH  22  23
ATOM     23  C   UNL     1       3.251   5.116  18.962  0.00  0.00    +0.000 A 
ATOM     24  C   UNL     1       2.767   4.285  17.944  0.00  0.00    +0.000 A 
ATOM     25  C   UNL     1       3.631   3.796  16.958  0.00  0.00    +0.000 A 
ATOM     26  C   UNL     1       4.988   4.128  16.970  0.00  0.00    +0.000 A 
ATOM     27  C   UNL     1       5.490   4.879  18.028  0.00  0.00    +0.000 A 
ATOM     28  C   UNL     1       4.626   5.382  19.008  0.00  0.00    +0.000 A 
BRANCH  26  29
ATOM     29  O   UNL     1       5.721   3.611  15.947  0.00  0.00    +0.000 OA
BRANCH  29  30
ATOM     30  C   UNL     1       6.109   4.457  14.871  0.00  0.00    +0.000 C 
ATOM     31  F   UNL     1       5.381   5.587  14.749  0.00  0.00    +0.000 F 
ATOM     32  F   UNL     1       7.408   4.798  15.026  0.00  0.00    +0.000 F 
ATOM     33  F   UNL     1       5.994   3.767  13.713  0.00  0.00    +0.000 F 
ENDBRANCH  29  30
ENDBRANCH  26  29
ENDBRANCH  22  23
ENDBRANCH   4  22
TORSDOF 6
ENDMDL
MODEL 2
REMARK VINA RESULT:      -8.3      0.726      1.298
REMARK  Name = 
REMARK  8 active torsions:
REMARK  status: ('A' for Active; 'I' for Inactive)
REMARK    1  A    between atoms: C_1  and  O_2
REMARK    2  A    between atoms: O_2  and  C_3
REMARK    3  A    between atoms: C_9  and  C_10
REMARK    4  A    between atoms: C_13  and  C_14
REMARK    5  A    between atoms: C_14  and  C_15
REMARK    6  A    between atoms: C_18  and  O_19
REMARK    7  A    between atoms: O_19  and  C_20
REMARK    8  A    between atoms: C_28  and  C_29
REMARK                            x       y       z     vdW  Elec       q    Type
REMARK                         _______ _______ _______ _____ _____    ______ ____
ROOT
ATOM      1  C   UNL     1       1.529   9.714  19.044  0.00  0.00    +0.000 A 
ATOM      2  C   UNL     1       1.444   9.064  20.279  0.00  0.00    +0.000 A 
ATOM      3  C   UNL     1       1.768   7.710  20.391  0.00  0.00    +0.000 A 
ATOM      4  C   UNL     1       2.182   6.982  19.266  0.00  0.00    +0.000 A 
ATOM      5  C   UNL     1       2.272   7.640  18.031  0.00  0.00    +0.000 A 
ATOM      6  C   UNL     1       1.950   8.997  17.918  0.00  0.00    +0.000 A 
ENDROOT
BRANCH   1  13
ATOM      7  C   UNL     1       0.521  15.330  18.768  0.00  0.00    +0.000 A 
ATOM      8  C   UNL     1       1.631  16.134  18.474  0.00  0.00    +0.000 A 
ATOM      9  C   UNL     1       2.857  15.564  18.138  0.00  0.00    +0.000 A 
ATOM     10  C   UNL     1       3.000  14.181  18.129  0.00  0.00    +0.000 A 
ATOM     11  C   UNL     1       1.921  13.357  18.468  0.00  0.00    +0.000 A 
ATOM     12  N   UNL     1       2.083  11.967  18.455  0.00  0.00    +0.000 N 
ATOM     13  C   UNL     1       1.102  11.121  18.915  0.00  0.00    +0.000 A 
ATOM     14  C   UNL     1      -0.147  11.526  19.213  0.00  0.00    +0.000 A 
ATOM     15  C   UNL     1      -1.278  10.678  19.715  0.00  0.00    +0.000 C 
ATOM     16  C   UNL     1      -0.465  12.985  19.016  0.00  0.00    +0.000 A 
ATOM     17  O   UNL     1      -1.635  13.355  19.051  0.00  0.00    +0.000 OA
ATOM     18  C   UNL     1       0.667  13.929  18.757  0.00  0.00    +0.000 A 
ATOM     19  H   UNL     1       3.024  11.593  18.408  0.00  0.00    +0.000 HD
BRANCH   7  21
ATOM     20  C   UNL     1      -0.660  16.628  20.359  0.00  0.00    +0.000 C 
ATOM     21  O   UNL     1      -0.678  15.874  19.149  0.00  0.00    +0.000 OA
ENDBRANCH   7  21
ENDBRANCH   1  13
BRANCH   4  22
ATOM     22  C   UNL     1       2.524   5.515  19.384  0.00  0.00    +0.000 C 
BRANCH  22  23
ATOM     23  C   UNL     1       3.647   5.050  18.486  0.00  0.00    +0.000 A 
ATOM     24  C   UNL     1       3.407   4.159  17.433  0.00  0.00    +0.000 A 
ATOM     25  C   UNL     1       4.438   3.804  16.557  0.00  0.00    +0.000 A 
ATOM     26  C   UNL     1       5.722   4.332  16.714  0.00  0.00    +0.000 A 
ATOM     27  C   UNL     1       5.986   5.148  17.810  0.00  0.00    +0.000 A 
ATOM     28  C   UNL     1       4.954   5.516  18.681  0.00  0.00    +0.000 A 
BRANCH  26  29
ATOM     29  O   UNL     1       6.633   3.931  15.787  0.00  0.00    +0.000 OA
BRANCH  29  30
ATOM     30  C   UNL     1       6.611   4.517  14.490  0.00  0.00    +0.000 C 
ATOM     31  F   UNL     1       7.765   5.105  14.115  0.00  0.00    +0.000 F 
ATOM     32  F   UNL     1       6.301   3.563  13.582  0.00  0.00    +0.000 F 
ATOM     33  F   UNL     1       5.639   5.457  14.456  0.00  0.00    +0.000 F 
ENDBRANCH  29  30
ENDBRANCH  26  29
ENDBRANCH  22  23
ENDBRANCH   4  22
TORSDOF 6
ENDMDL
MODEL 3
REMARK VINA RESULT:      -8.1      2.447      3.562
REMARK  Name = 
REMARK  8 active torsions:
REMARK  status: ('A' for Active; 'I' for Inactive)
REMARK    1  A    between atoms: C_1  and  O_2
REMARK    2  A    between atoms: O_2  and  C_3
REMARK    3  A    between atoms: C_9  and  C_10
REMARK    4  A    between atoms: C_13  and  C_14
REMARK    5  A    between atoms: C_14  and  C_15
REMARK    6  A    between atoms: C_18  and  O_19
REMARK    7  A    between atoms: O_19  and  C_20
REMARK    8  A    between atoms: C_28  and  C_29
REMARK                            x       y       z     vdW  Elec       q    Type
REMARK                         _______ _______ _______ _____ _____    ______ ____
ROOT
ATOM      1  C   UNL     1       1.633   7.773  19.932  0.00  0.00    +0.000 A 
ATOM      2  C   UNL     1       2.542   7.624  18.881  0.00  0.00    +0.000 A 
ATOM      3  C   UNL     1       3.266   6.439  18.732  0.00  0.00    +0.000 A 
ATOM      4  C   UNL     1       3.092   5.380  19.637  0.00  0.00    +0.000 A 
ATOM      5  C   UNL     1       2.175   5.532  20.686  0.00  0.00    +0.000 A 
ATOM      6  C   UNL     1       1.447   6.718  20.834  0.00  0.00    +0.000 A 
ENDROOT
BRANCH   1  13
ATOM      7  C   UNL     1      -1.498  12.394  21.144  0.00  0.00    +0.000 A 
ATOM      8  C   UNL     1      -2.073  12.422  22.422  0.00  0.00    +0.000 A 
ATOM      9  C   UNL     1      -1.771  11.440  23.363  0.00  0.00    +0.000 A 
ATOM     10  C   UNL     1      -0.918  10.395  23.026  0.00  0.00    +0.000 A 
ATOM     11  C   UNL     1      -0.370  10.318  21.741  0.00  0.00    +0.000 A 
ATOM     12  N   UNL     1       0.487   9.259  21.418  0.00  0.00    +0.000 N 
ATOM     13  C   UNL     1       0.936   9.058  20.135  0.00  0.00    +0.000 A 
ATOM     14  C   UNL     1       0.772   9.954  19.143  0.00  0.00    +0.000 A 
ATOM     15  C   UNL     1       1.230   9.824  17.720  0.00  0.00    +0.000 C 
ATOM     16  C   UNL     1       0.064  11.239  19.484  0.00  0.00    +0.000 A 
ATOM     17  O   UNL     1       0.094  12.172  18.686  0.00  0.00    +0.000 OA
ATOM     18  C   UNL     1      -0.632  11.337  20.805  0.00  0.00    +0.000 A 
ATOM     19  H   UNL     1       0.525   8.462  22.045  0.00  0.00    +0.000 HD
BRANCH   7  21
ATOM     20  C   UNL     1      -1.799  14.684  20.620  0.00  0.00    +0.000 C 
ATOM     21  O   UNL     1      -1.823  13.325  20.192  0.00  0.00    +0.000 OA
ENDBRANCH   7  21
ENDBRANCH   1  13
BRANCH   4  22
ATOM     22  C   UNL     1       3.881   4.101  19.483  0.00  0.00    +0.000 C 
BRANCH  22  23
ATOM     23  C   UNL     1       4.924   4.125  18.390  0.00  0.00    +0.000 A 
ATOM     24  C   UNL     1       4.647   3.612  17.117  0.00  0.00    +0.000 A 
ATOM     25  C   UNL     1       5.590   3.719  16.089  0.00  0.00    +0.000 A 
ATOM     26  C   UNL     1       6.821   4.340  16.313  0.00  0.00    +0.000 A 
ATOM     27  C   UNL     1       7.136   4.773  17.597  0.00  0.00    +0.000 A 
ATOM     28  C   UNL     1       6.189   4.680  18.624  0.00  0.00    +0.000 A 
BRANCH  26  29
ATOM     29  O   UNL     1       7.645   4.404  15.231  0.00  0.00    +0.000 OA
BRANCH  29  30
ATOM     30  C   UNL     1       7.126   4.860  13.987  0.00  0.00    +0.000 C 
ATOM     31  F   UNL     1       6.667   3.886  13.174  0.00  0.00    +0.000 F 
ATOM     32  F   UNL     1       6.119   5.731  14.224  0.00  0.00    +0.000 F 
ATOM     33  F   UNL     1       8.103   5.522  13.326  0.00  0.00    +0.000 F 
ENDBRANCH  29  30
ENDBRANCH  26  29
ENDBRANCH  22  23
ENDBRANCH   4  22
TORSDOF 6
ENDMDL
MODEL 4
REMARK VINA RESULT:      -8.1      0.381      1.262
REMARK  Name = 
REMARK  8 active torsions:
REMARK  status: ('A' for Active; 'I' for Inactive)
REMARK    1  A    between atoms: C_1  and  O_2
REMARK    2  A    between atoms: O_2  and  C_3
REMARK    3  A    between atoms: C_9  and  C_10
REMARK    4  A    between atoms: C_13  and  C_14
REMARK    5  A    between atoms: C_14  and  C_15
REMARK    6  A    between atoms: C_18  and  O_19
REMARK    7  A    between atoms: O_19  and  C_20
REMARK    8  A    between atoms: C_28  and  C_29
REMARK                            x       y       z     vdW  Elec       q    Type
REMARK                         _______ _______ _______ _____ _____    ______ ____
ROOT
ATOM      1  C   UNL     1       1.439  10.108  19.323  0.00  0.00    +0.000 A 
ATOM      2  C   UNL     1       1.305   9.479  20.564  0.00  0.00    +0.000 A 
ATOM      3  C   UNL     1       1.572   8.115  20.700  0.00  0.00    +0.000 A 
ATOM      4  C   UNL     1       1.977   7.355  19.592  0.00  0.00    +0.000 A 
ATOM      5  C   UNL     1       2.116   7.992  18.351  0.00  0.00    +0.000 A 
ATOM      6  C   UNL     1       1.852   9.359  18.214  0.00  0.00    +0.000 A 
ENDROOT
BRANCH   1  13
ATOM      7  C   UNL     1       0.691  15.752  18.862  0.00  0.00    +0.000 A 
ATOM      8  C   UNL     1       1.799  16.478  18.405  0.00  0.00    +0.000 A 
ATOM      9  C   UNL     1       2.949  15.825  17.966  0.00  0.00    +0.000 A 
ATOM     10  C   UNL     1       3.021  14.437  18.016  0.00  0.00    +0.000 A 
ATOM     11  C   UNL     1       1.947  13.692  18.514  0.00  0.00    +0.000 A 
ATOM     12  N   UNL     1       2.036  12.296  18.557  0.00  0.00    +0.000 N 
ATOM     13  C   UNL     1       1.072  11.529  19.166  0.00  0.00    +0.000 A 
ATOM     14  C   UNL     1      -0.113  12.017  19.579  0.00  0.00    +0.000 A 
ATOM     15  C   UNL     1      -1.222  11.258  20.247  0.00  0.00    +0.000 C 
ATOM     16  C   UNL     1      -0.378  13.481  19.341  0.00  0.00    +0.000 A 
ATOM     17  O   UNL     1      -1.517  13.917  19.485  0.00  0.00    +0.000 OA
ATOM     18  C   UNL     1       0.763  14.347  18.909  0.00  0.00    +0.000 A 
ATOM     19  H   UNL     1       2.946  11.868  18.426  0.00  0.00    +0.000 HD
BRANCH   7  21
ATOM     20  C   UNL     1      -0.965  17.410  18.514  0.00  0.00    +0.000 C 
ATOM     21  O   UNL     1      -0.429  16.380  19.343  0.00  0.00    +0.000 OA
ENDBRANCH   7  21
ENDBRANCH   1  13
BRANCH   4  22
ATOM     22  C   UNL     1       2.257   5.878  19.736  0.00  0.00    +0.000 C 
BRANCH  22  23
ATOM     23  C   UNL     1       3.188   5.303  18.694  0.00  0.00    +0.000 A 
ATOM     24  C   UNL     1       4.547   5.636  18.677  0.00  0.00    +0.000 A 
ATOM     25  C   UNL     1       5.414   5.029  17.762  0.00  0.00    +0.000 A 
ATOM     26  C   UNL     1       4.941   4.081  16.852  0.00  0.00    +0.000 A 
ATOM     27  C   UNL     1       3.577   3.812  16.805  0.00  0.00    +0.000 A 
ATOM     28  C   UNL     1       2.709   4.407  17.728  0.00  0.00    +0.000 A 
BRANCH  26  29
ATOM     29  O   UNL     1       5.883   3.545  16.029  0.00  0.00    +0.000 OA
BRANCH  29  30
ATOM     30  C   UNL     1       6.212   4.215  14.817  0.00  0.00    +0.000 C 
ATOM     31  F   UNL     1       5.433   5.278  14.528  0.00  0.00    +0.000 F 
ATOM     32  F   UNL     1       7.497   4.630  14.879  0.00  0.00    +0.000 F 
ATOM     33  F   UNL     1       6.106   3.336  13.794  0.00  0.00    +0.000 F 
ENDBRANCH  29  30
ENDBRANCH  26  29
ENDBRANCH  22  23
ENDBRANCH   4  22
TORSDOF 6
ENDMDL
MODEL 5
REMARK VINA RESULT:      -8.0      4.311      6.002
REMARK  Name = 
REMARK  8 active torsions:
REMARK  status: ('A' for Active; 'I' for Inactive)
REMARK    1  A    between atoms: C_1  and  O_2
REMARK    2  A    between atoms: O_2  and  C_3
REMARK    3  A    between atoms: C_9  and  C_10
REMARK    4  A    between atoms: C_13  and  C_14
REMARK    5  A    between atoms: C_14  and  C_15
REMARK    6  A    between atoms: C_18  and  O_19
REMARK    7  A    between atoms: O_19  and  C_20
REMARK    8  A    between atoms: C_28  and  C_29
REMARK                            x       y       z     vdW  Elec       q    Type
REMARK                         _______ _______ _______ _____ _____    ______ ____
ROOT
ATOM      1  C   UNL     1      -1.458  11.111  18.842  0.00  0.00    +0.000 A 
ATOM      2  C   UNL     1      -0.244  11.497  19.419  0.00  0.00    +0.000 A 
ATOM      3  C   UNL     1       0.935  10.816  19.110  0.00  0.00    +0.000 A 
ATOM      4  C   UNL     1       0.919   9.733  18.217  0.00  0.00    +0.000 A 
ATOM      5  C   UNL     1      -0.299   9.354  17.637  0.00  0.00    +0.000 A 
ATOM      6  C   UNL     1      -1.481  10.038  17.943  0.00  0.00    +0.000 A 
ENDROOT
BRANCH   1  13
ATOM      7  C   UNL     1      -6.461  13.735  19.688  0.00  0.00    +0.000 A 
ATOM      8  C   UNL     1      -7.456  13.470  18.736  0.00  0.00    +0.000 A 
ATOM      9  C   UNL     1      -7.255  12.519  17.738  0.00  0.00    +0.000 A 
ATOM     10  C   UNL     1      -6.042  11.846  17.655  0.00  0.00    +0.000 A 
ATOM     11  C   UNL     1      -5.015  12.127  18.563  0.00  0.00    +0.000 A 
ATOM     12  N   UNL     1      -3.799  11.440  18.465  0.00  0.00    +0.000 N 
ATOM     13  C   UNL     1      -2.714  11.778  19.238  0.00  0.00    +0.000 A 
ATOM     14  C   UNL     1      -2.780  12.633  20.276  0.00  0.00    +0.000 A 
ATOM     15  C   UNL     1      -1.655  13.056  21.174  0.00  0.00    +0.000 C 
ATOM     16  C   UNL     1      -4.126  13.230  20.594  0.00  0.00    +0.000 A 
ATOM     17  O   UNL     1      -4.284  13.824  21.657  0.00  0.00    +0.000 OA
ATOM     18  C   UNL     1      -5.234  13.050  19.604  0.00  0.00    +0.000 A 
ATOM     19  H   UNL     1      -3.612  10.912  17.620  0.00  0.00    +0.000 HD
BRANCH   7  21
ATOM     20  C   UNL     1      -7.916  15.302  20.706  0.00  0.00    +0.000 C 
ATOM     21  O   UNL     1      -6.624  14.702  20.645  0.00  0.00    +0.000 OA
ENDBRANCH   7  21
ENDBRANCH   1  13
BRANCH   4  22
ATOM     22  C   UNL     1       2.192   8.990  17.890  0.00  0.00    +0.000 C 
BRANCH  22  23
ATOM     23  C   UNL     1       2.360   7.669  18.605  0.00  0.00    +0.000 A 
ATOM     24  C   UNL     1       1.964   7.516  19.939  0.00  0.00    +0.000 A 
ATOM     25  C   UNL     1       2.043   6.266  20.562  0.00  0.00    +0.000 A 
ATOM     26  C   UNL     1       2.515   5.150  19.866  0.00  0.00    +0.000 A 
ATOM     27  C   UNL     1       2.992   5.316  18.569  0.00  0.00    +0.000 A 
ATOM     28  C   UNL     1       2.902   6.562  17.938  0.00  0.00    +0.000 A 
BRANCH  26  29
ATOM     29  O   UNL     1       2.524   3.986  20.571  0.00  0.00    +0.000 OA
BRANCH  29  30
ATOM     30  C   UNL     1       1.387   3.131  20.517  0.00  0.00    +0.000 C 
ATOM     31  F   UNL     1       0.314   3.656  19.890  0.00  0.00    +0.000 F 
ATOM     32  F   UNL     1       1.730   1.983  19.892  0.00  0.00    +0.000 F 
ATOM     33  F   UNL     1       1.016   2.823  21.781  0.00  0.00    +0.000 F 
ENDBRANCH  29  30
ENDBRANCH  26  29
ENDBRANCH  22  23
ENDBRANCH   4  22
TORSDOF 6
ENDMDL
MODEL 6
REMARK VINA RESULT:      -7.9      4.451      6.128
REMARK  Name = 
REMARK  8 active torsions:
REMARK  status: ('A' for Active; 'I' for Inactive)
REMARK    1  A    between atoms: C_1  and  O_2
REMARK    2  A    between atoms: O_2  and  C_3
REMARK    3  A    between atoms: C_9  and  C_10
REMARK    4  A    between atoms: C_13  and  C_14
REMARK    5  A    between atoms: C_14  and  C_15
REMARK    6  A    between atoms: C_18  and  O_19
REMARK    7  A    between atoms: O_19  and  C_20
REMARK    8  A    between atoms: C_28  and  C_29
REMARK                            x       y       z     vdW  Elec       q    Type
REMARK                         _______ _______ _______ _____ _____    ______ ____
ROOT
ATOM      1  C   UNL     1      -2.007  11.406  19.001  0.00  0.00    +0.000 A 
ATOM      2  C   UNL     1      -1.945  10.268  18.192  0.00  0.00    +0.000 A 
ATOM      3  C   UNL     1      -0.712   9.705  17.856  0.00  0.00    +0.000 A 
ATOM      4  C   UNL     1       0.482  10.274  18.322  0.00  0.00    +0.000 A 
ATOM      5  C   UNL     1       0.414  11.412  19.137  0.00  0.00    +0.000 A 
ATOM      6  C   UNL     1      -0.821  11.976  19.478  0.00  0.00    +0.000 A 
ENDROOT
BRANCH   1  13
ATOM      7  C   UNL     1      -7.021  14.112  19.420  0.00  0.00    +0.000 A 
ATOM      8  C   UNL     1      -7.783  14.167  18.245  0.00  0.00    +0.000 A 
ATOM      9  C   UNL     1      -7.383  13.479  17.101  0.00  0.00    +0.000 A 
ATOM     10  C   UNL     1      -6.195  12.757  17.105  0.00  0.00    +0.000 A 
ATOM     11  C   UNL     1      -5.392  12.727  18.250  0.00  0.00    +0.000 A 
ATOM     12  N   UNL     1      -4.199  11.995  18.237  0.00  0.00    +0.000 N 
ATOM     13  C   UNL     1      -3.307  12.048  19.282  0.00  0.00    +0.000 A 
ATOM     14  C   UNL     1      -3.586  12.623  20.467  0.00  0.00    +0.000 A 
ATOM     15  C   UNL     1      -2.682  12.724  21.660  0.00  0.00    +0.000 C 
ATOM     16  C   UNL     1      -4.957  13.223  20.637  0.00  0.00    +0.000 A 
ATOM     17  O   UNL     1      -5.337  13.547  21.759  0.00  0.00    +0.000 OA
ATOM     18  C   UNL     1      -5.819  13.378  19.424  0.00  0.00    +0.000 A 
ATOM     19  H   UNL     1      -3.837  11.680  17.343  0.00  0.00    +0.000 HD
BRANCH   7  21
ATOM     20  C   UNL     1      -7.332  16.242  20.408  0.00  0.00    +0.000 C 
ATOM     21  O   UNL     1      -7.374  14.822  20.537  0.00  0.00    +0.000 OA
ENDBRANCH   7  21
ENDBRANCH   1  13
BRANCH   4  22
ATOM     22  C   UNL     1       1.816   9.671  17.951  0.00  0.00    +0.000 C 
BRANCH  22  23
ATOM     23  C   UNL     1       2.102   8.325  18.575  0.00  0.00    +0.000 A 
ATOM     24  C   UNL     1       1.819   8.081  19.924  0.00  0.00    +0.000 A 
ATOM     25  C   UNL     1       2.006   6.806  20.468  0.00  0.00    +0.000 A 
ATOM     26  C   UNL     1       2.475   5.755  19.677  0.00  0.00    +0.000 A 
ATOM     27  C   UNL     1       2.841   6.013  18.359  0.00  0.00    +0.000 A 
ATOM     28  C   UNL     1       2.642   7.284  17.808  0.00  0.00    +0.000 A 
BRANCH  26  29
ATOM     29  O   UNL     1       2.593   4.557  20.312  0.00  0.00    +0.000 OA
BRANCH  29  30
ATOM     30  C   UNL     1       1.617   3.547  20.081  0.00  0.00    +0.000 C 
ATOM     31  F   UNL     1       1.631   3.020  18.839  0.00  0.00    +0.000 F 
ATOM     32  F   UNL     1       1.801   2.548  20.973  0.00  0.00    +0.000 F 
ATOM     33  F   UNL     1       0.390   4.075  20.292  0.00  0.00    +0.000 F 
ENDBRANCH  29  30
ENDBRANCH  26  29
ENDBRANCH  22  23
ENDBRANCH   4  22
TORSDOF 6
ENDMDL
MODEL 7
REMARK VINA RESULT:      -7.9      1.474      1.875
REMARK  Name = 
REMARK  8 active torsions:
REMARK  status: ('A' for Active; 'I' for Inactive)
REMARK    1  A    between atoms: C_1  and  O_2
REMARK    2  A    between atoms: O_2  and  C_3
REMARK    3  A    between atoms: C_9  and  C_10
REMARK    4  A    between atoms: C_13  and  C_14
REMARK    5  A    between atoms: C_14  and  C_15
REMARK    6  A    between atoms: C_18  and  O_19
REMARK    7  A    between atoms: O_19  and  C_20
REMARK    8  A    between atoms: C_28  and  C_29
REMARK                            x       y       z     vdW  Elec       q    Type
REMARK                         _______ _______ _______ _____ _____    ______ ____
ROOT
ATOM      1  C   UNL     1       1.322   9.412  19.766  0.00  0.00    +0.000 A 
ATOM      2  C   UNL     1       1.146   8.649  20.923  0.00  0.00    +0.000 A 
ATOM      3  C   UNL     1       1.524   7.305  20.950  0.00  0.00    +0.000 A 
ATOM      4  C   UNL     1       2.084   6.700  19.815  0.00  0.00    +0.000 A 
ATOM      5  C   UNL     1       2.264   7.471  18.659  0.00  0.00    +0.000 A 
ATOM      6  C   UNL     1       1.888   8.819  18.631  0.00  0.00    +0.000 A 
ENDROOT
BRANCH   1  13
ATOM      7  C   UNL     1      -0.206  14.901  20.182  0.00  0.00    +0.000 A 
ATOM      8  C   UNL     1       0.703  15.737  20.844  0.00  0.00    +0.000 A 
ATOM      9  C   UNL     1       1.951  15.263  21.241  0.00  0.00    +0.000 A 
ATOM     10  C   UNL     1       2.293  13.934  21.016  0.00  0.00    +0.000 A 
ATOM     11  C   UNL     1       1.384  13.066  20.401  0.00  0.00    +0.000 A 
ATOM     12  N   UNL     1       1.744  11.732  20.182  0.00  0.00    +0.000 N 
ATOM     13  C   UNL     1       0.841  10.807  19.715  0.00  0.00    +0.000 A 
ATOM     14  C   UNL     1      -0.376  11.133  19.239  0.00  0.00    +0.000 A 
ATOM     15  C   UNL     1      -1.421  10.198  18.707  0.00  0.00    +0.000 C 
ATOM     16  C   UNL     1      -0.740  12.594  19.219  0.00  0.00    +0.000 A 
ATOM     17  O   UNL     1      -1.729  12.959  18.588  0.00  0.00    +0.000 OA
ATOM     18  C   UNL     1       0.142  13.556  19.952  0.00  0.00    +0.000 A 
ATOM     19  H   UNL     1       2.564  11.370  20.658  0.00  0.00    +0.000 HD
BRANCH   7  21
ATOM     20  C   UNL     1      -2.250  15.867  20.889  0.00  0.00    +0.000 C 
ATOM     21  O   UNL     1      -1.456  15.338  19.829  0.00  0.00    +0.000 OA
ENDBRANCH   7  21
ENDBRANCH   1  13
BRANCH   4  22
ATOM     22  C   UNL     1       2.485   5.244  19.840  0.00  0.00    +0.000 C 
BRANCH  22  23
ATOM     23  C   UNL     1       3.551   4.860  18.841  0.00  0.00    +0.000 A 
ATOM     24  C   UNL     1       3.235   4.112  17.700  0.00  0.00    +0.000 A 
ATOM     25  C   UNL     1       4.214   3.838  16.739  0.00  0.00    +0.000 A 
ATOM     26  C   UNL     1       5.520   4.307  16.897  0.00  0.00    +0.000 A 
ATOM     27  C   UNL     1       5.860   4.974  18.070  0.00  0.00    +0.000 A 
ATOM     28  C   UNL     1       4.880   5.262  19.027  0.00  0.00    +0.000 A 
BRANCH  26  29
ATOM     29  O   UNL     1       6.376   3.997  15.886  0.00  0.00    +0.000 OA
BRANCH  29  30
ATOM     30  C   UNL     1       6.306   4.727  14.666  0.00  0.00    +0.000 C 
ATOM     31  F   UNL     1       7.500   5.068  14.141  0.00  0.00    +0.000 F 
ATOM     32  F   UNL     1       5.630   3.992  13.753  0.00  0.00    +0.000 F 
ATOM     33  F   UNL     1       5.610   5.866  14.882  0.00  0.00    +0.000 F 
ENDBRANCH  29  30
ENDBRANCH  26  29
ENDBRANCH  22  23
ENDBRANCH   4  22
TORSDOF 6
ENDMDL
MODEL 8
REMARK VINA RESULT:      -7.9      4.100      5.742
REMARK  Name = 
REMARK  8 active torsions:
REMARK  status: ('A' for Active; 'I' for Inactive)
REMARK    1  A    between atoms: C_1  and  O_2
REMARK    2  A    between atoms: O_2  and  C_3
REMARK    3  A    between atoms: C_9  and  C_10
REMARK    4  A    between atoms: C_13  and  C_14
REMARK    5  A    between atoms: C_14  and  C_15
REMARK    6  A    between atoms: C_18  and  O_19
REMARK    7  A    between atoms: O_19  and  C_20
REMARK    8  A    between atoms: C_28  and  C_29
REMARK                            x       y       z     vdW  Elec       q    Type
REMARK                         _______ _______ _______ _____ _____    ______ ____
ROOT
ATOM      1  C   UNL     1      -1.177  11.066  18.891  0.00  0.00    +0.000 A 
ATOM      2  C   UNL     1       0.028  11.262  19.573  0.00  0.00    +0.000 A 
ATOM      3  C   UNL     1       1.166  10.531  19.225  0.00  0.00    +0.000 A 
ATOM      4  C   UNL     1       1.117   9.587  18.188  0.00  0.00    +0.000 A 
ATOM      5  C   UNL     1      -0.092   9.399  17.504  0.00  0.00    +0.000 A 
ATOM      6  C   UNL     1      -1.232  10.133  17.849  0.00  0.00    +0.000 A 
ENDROOT
BRANCH   1  13
ATOM      7  C   UNL     1      -5.704  13.667  21.207  0.00  0.00    +0.000 A 
ATOM      8  C   UNL     1      -5.497  14.241  22.469  0.00  0.00    +0.000 A 
ATOM      9  C   UNL     1      -4.225  14.281  23.035  0.00  0.00    +0.000 A 
ATOM     10  C   UNL     1      -3.149  13.713  22.364  0.00  0.00    +0.000 A 
ATOM     11  C   UNL     1      -3.338  13.090  21.126  0.00  0.00    +0.000 A 
ATOM     12  N   UNL     1      -2.243  12.522  20.464  0.00  0.00    +0.000 N 
ATOM     13  C   UNL     1      -2.398  11.777  19.319  0.00  0.00    +0.000 A 
ATOM     14  C   UNL     1      -3.553  11.704  18.632  0.00  0.00    +0.000 A 
ATOM     15  C   UNL     1      -3.813  10.924  17.377  0.00  0.00    +0.000 C 
ATOM     16  C   UNL     1      -4.721  12.495  19.160  0.00  0.00    +0.000 A 
ATOM     17  O   UNL     1      -5.714  12.645  18.453  0.00  0.00    +0.000 OA
ATOM     18  C   UNL     1      -4.613  13.094  20.527  0.00  0.00    +0.000 A 
ATOM     19  H   UNL     1      -1.383  12.387  20.984  0.00  0.00    +0.000 HD
BRANCH   7  21
ATOM     20  C   UNL     1      -7.916  12.846  21.420  0.00  0.00    +0.000 C 
ATOM     21  O   UNL     1      -6.957  13.576  20.658  0.00  0.00    +0.000 OA
ENDBRANCH   7  21
ENDBRANCH   1  13
BRANCH   4  22
ATOM     22  C   UNL     1       2.344   8.790  17.818  0.00  0.00    +0.000 C 
BRANCH  22  23
ATOM     23  C   UNL     1       2.495   7.477  18.551  0.00  0.00    +0.000 A 
ATOM     24  C   UNL     1       2.041   7.330  19.868  0.00  0.00    +0.000 A 
ATOM     25  C   UNL     1       2.107   6.087  20.505  0.00  0.00    +0.000 A 
ATOM     26  C   UNL     1       2.624   4.971  19.841  0.00  0.00    +0.000 A 
ATOM     27  C   UNL     1       3.157   5.132  18.566  0.00  0.00    +0.000 A 
ATOM     28  C   UNL     1       3.080   6.371  17.920  0.00  0.00    +0.000 A 
BRANCH  26  29
ATOM     29  O   UNL     1       2.614   3.813  20.556  0.00  0.00    +0.000 OA
BRANCH  29  30
ATOM     30  C   UNL     1       1.436   3.015  20.573  0.00  0.00    +0.000 C 
ATOM     31  F   UNL     1       0.351   3.595  20.020  0.00  0.00    +0.000 F 
ATOM     32  F   UNL     1       1.682   1.856  19.921  0.00  0.00    +0.000 F 
ATOM     33  F   UNL     1       1.134   2.716  21.857  0.00  0.00    +0.000 F 
ENDBRANCH  29  30
ENDBRANCH  26  29
ENDBRANCH  22  23
ENDBRANCH   4  22
TORSDOF 6
ENDMDL
MODEL 9
REMARK VINA RESULT:      -7.9      0.809      1.362
REMARK  Name = 
REMARK  8 active torsions:
REMARK  status: ('A' for Active; 'I' for Inactive)
REMARK    1  A    between atoms: C_1  and  O_2
REMARK    2  A    between atoms: O_2  and  C_3
REMARK    3  A    between atoms: C_9  and  C_10
REMARK    4  A    between atoms: C_13  and  C_14
REMARK    5  A    between atoms: C_14  and  C_15
REMARK    6  A    between atoms: C_18  and  O_19
REMARK    7  A    between atoms: O_19  and  C_20
REMARK    8  A    between atoms: C_28  and  C_29
REMARK                            x       y       z     vdW  Elec       q    Type
REMARK                         _______ _______ _______ _____ _____    ______ ____
ROOT
ATOM      1  C   UNL     1       1.280  10.223  19.750  0.00  0.00    +0.000 A 
ATOM      2  C   UNL     1       1.096   9.699  21.032  0.00  0.00    +0.000 A 
ATOM      3  C   UNL     1       1.258   8.332  21.269  0.00  0.00    +0.000 A 
ATOM      4  C   UNL     1       1.607   7.465  20.223  0.00  0.00    +0.000 A 
ATOM      5  C   UNL     1       1.797   7.996  18.940  0.00  0.00    +0.000 A 
ATOM      6  C   UNL     1       1.637   9.366  18.702  0.00  0.00    +0.000 A 
ENDROOT
BRANCH   1  13
ATOM      7  C   UNL     1       0.968  15.855  18.846  0.00  0.00    +0.000 A 
ATOM      8  C   UNL     1       2.114  16.448  18.297  0.00  0.00    +0.000 A 
ATOM      9  C   UNL     1       3.191  15.669  17.880  0.00  0.00    +0.000 A 
ATOM     10  C   UNL     1       3.153  14.289  18.042  0.00  0.00    +0.000 A 
ATOM     11  C   UNL     1       2.042  13.677  18.632  0.00  0.00    +0.000 A 
ATOM     12  N   UNL     1       2.021  12.286  18.788  0.00  0.00    +0.000 N 
ATOM     13  C   UNL     1       1.022  11.653  19.487  0.00  0.00    +0.000 A 
ATOM     14  C   UNL     1      -0.105  12.268  19.893  0.00  0.00    +0.000 A 
ATOM     15  C   UNL     1      -1.245  11.660  20.654  0.00  0.00    +0.000 C 
ATOM     16  C   UNL     1      -0.260  13.725  19.543  0.00  0.00    +0.000 A 
ATOM     17  O   UNL     1      -1.354  14.264  19.685  0.00  0.00    +0.000 OA
ATOM     18  C   UNL     1       0.930  14.456  19.007  0.00  0.00    +0.000 A 
ATOM     19  H   UNL     1       2.888  11.775  18.666  0.00  0.00    +0.000 HD
BRANCH   7  21
ATOM     20  C   UNL     1       0.207  17.451  20.422  0.00  0.00    +0.000 C 
ATOM     21  O   UNL     1      -0.079  16.610  19.306  0.00  0.00    +0.000 OA
ENDBRANCH   7  21
ENDBRANCH   1  13
BRANCH   4  22
ATOM     22  C   UNL     1       1.774   5.985  20.476  0.00  0.00    +0.000 C 
BRANCH  22  23
ATOM     23  C   UNL     1       2.641   5.262  19.472  0.00  0.00    +0.000 A 
ATOM     24  C   UNL     1       2.072   4.551  18.408  0.00  0.00    +0.000 A 
ATOM     25  C   UNL     1       2.886   3.959  17.436  0.00  0.00    +0.000 A 
ATOM     26  C   UNL     1       4.277   4.068  17.508  0.00  0.00    +0.000 A 
ATOM     27  C   UNL     1       4.849   4.698  18.609  0.00  0.00    +0.000 A 
ATOM     28  C   UNL     1       4.038   5.303  19.576  0.00  0.00    +0.000 A 
BRANCH  26  29
ATOM     29  O   UNL     1       4.960   3.471  16.493  0.00  0.00    +0.000 OA
BRANCH  29  30
ATOM     30  C   UNL     1       5.792   4.263  15.653  0.00  0.00    +0.000 C 
ATOM     31  F   UNL     1       6.055   3.723  14.445  0.00  0.00    +0.000 F 
ATOM     32  F   UNL     1       5.206   5.468  15.465  0.00  0.00    +0.000 F 
ATOM     33  F   UNL     1       6.973   4.467  16.280  0.00  0.00    +0.000 F 
ENDBRANCH  29  30
ENDBRANCH  26  29
ENDBRANCH  22  23
ENDBRANCH   4  22
TORSDOF 6
ENDMDL
