MODEL 1
REMARK VINA RESULT:      -7.1      0.000      0.000
REMARK  Name = 
REMARK  6 active torsions:
REMARK  status: ('A' for Active; 'I' for Inactive)
REMARK    1  A    between atoms: C_1  and  N_2
REMARK    2  A    between atoms: C_3  and  C_5
REMARK    3  A    between atoms: C_7  and  C_8
REMARK    4  A    between atoms: C_8  and  C_9
REMARK    5  A    between atoms: N_16  and  C_17
REMARK    6  A    between atoms: C_20  and  O_21
REMARK                            x       y       z     vdW  Elec       q    Type
REMARK                         _______ _______ _______ _____ _____    ______ ____
ROOT
ATOM      1  C   UNL     1       2.723   5.879  19.722  0.00  0.00    +0.000 A 
ATOM      2  N   UNL     1       4.016   5.767  19.236  0.00  0.00    +0.000 NA
ATOM      3  C   UNL     1       4.580   4.594  19.280  0.00  0.00    +0.000 A 
ATOM      4  N   UNL     1       3.944   3.470  19.767  0.00  0.00    +0.000 N 
ATOM      5  C   UNL     1       4.587   2.185  19.980  0.00  0.00    +0.000 C 
ATOM      6  C   UNL     1       2.590   3.503  20.011  0.00  0.00    +0.000 A 
ATOM      7  O   UNL     1       1.883   2.517  20.228  0.00  0.00    +0.000 OA
ATOM      8  C   UNL     1       1.948   4.834  20.043  0.00  0.00    +0.000 A 
ENDROOT
BRANCH   1  11
ATOM      9  C   UNL     1       1.058   8.753  21.513  0.00  0.00    +0.000 C 
ATOM     10  N   UNL     1       1.702   7.508  21.192  0.00  0.00    +0.000 N 
ATOM     11  C   UNL     1       2.136   7.263  19.910  0.00  0.00    +0.000 C 
ATOM     12  O   UNL     1       2.004   8.084  19.009  0.00  0.00    +0.000 OA
ATOM     13  H   UNL     1       1.760   6.750  21.865  0.00  0.00    +0.000 HD
ENDBRANCH   1  11
BRANCH   8  14
ATOM     14  O   UNL     1       0.620   4.885  20.414  0.00  0.00    +0.000 OA
ATOM     15  H   UNL     1       0.496   4.163  21.064  0.00  0.00    +0.000 HD
ENDBRANCH   8  14
BRANCH   3  16
ATOM     16  C   UNL     1       6.003   4.469  18.723  0.00  0.00    +0.000 C 
BRANCH  16  17
ATOM     17  C   UNL     1       6.067   4.454  17.212  0.00  0.00    +0.000 A 
ATOM     18  C   UNL     1       4.983   3.971  16.459  0.00  0.00    +0.000 A 
ATOM     19  C   UNL     1       5.067   3.892  15.068  0.00  0.00    +0.000 A 
ATOM     20  C   UNL     1       6.221   4.320  14.426  0.00  0.00    +0.000 A 
ATOM     21  F   UNL     1       6.316   4.209  13.094  0.00  0.00    +0.000 F 
ATOM     22  C   UNL     1       7.279   4.860  15.146  0.00  0.00    +0.000 A 
ATOM     23  C   UNL     1       7.199   4.937  16.537  0.00  0.00    +0.000 A 
ENDBRANCH  16  17
ENDBRANCH   3  16
TORSDOF 4
ENDMDL
MODEL 2
REMARK VINA RESULT:      -7.1      3.621      5.940
REMARK  Name = 
REMARK  6 active torsions:
REMARK  status: ('A' for Active; 'I' for Inactive)
REMARK    1  A    between atoms: C_1  and  N_2
REMARK    2  A    between atoms: C_3  and  C_5
REMARK    3  A    between atoms: C_7  and  C_8
REMARK    4  A    between atoms: C_8  and  C_9
REMARK    5  A    between atoms: N_16  and  C_17
REMARK    6  A    between atoms: C_20  and  O_21
REMARK                            x       y       z     vdW  Elec       q    Type
REMARK                         _______ _______ _______ _____ _____    ______ ____
ROOT
ATOM      1  C   UNL     1       3.453   4.016  19.056  0.00  0.00    +0.000 A 
ATOM      2  N   UNL     1       2.952   5.169  18.474  0.00  0.00    +0.000 NA
ATOM      3  C   UNL     1       3.807   6.052  18.044  0.00  0.00    +0.000 A 
ATOM      4  N   UNL     1       5.174   5.878  18.124  0.00  0.00    +0.000 N 
ATOM      5  C   UNL     1       6.156   6.899  17.803  0.00  0.00    +0.000 C 
ATOM      6  C   UNL     1       5.688   4.645  18.457  0.00  0.00    +0.000 A 
ATOM      7  O   UNL     1       6.869   4.313  18.343  0.00  0.00    +0.000 OA
ATOM      8  C   UNL     1       4.744   3.657  19.022  0.00  0.00    +0.000 A 
ENDROOT
BRANCH   1  11
ATOM      9  C   UNL     1       1.342   2.707  21.897  0.00  0.00    +0.000 C 
ATOM     10  N   UNL     1       2.186   3.511  21.055  0.00  0.00    +0.000 N 
ATOM     11  C   UNL     1       2.495   3.094  19.782  0.00  0.00    +0.000 C 
ATOM     12  O   UNL     1       2.064   2.044  19.317  0.00  0.00    +0.000 OA
ATOM     13  H   UNL     1       2.650   4.342  21.408  0.00  0.00    +0.000 HD
ENDBRANCH   1  11
BRANCH   8  14
ATOM     14  O   UNL     1       5.274   2.467  19.477  0.00  0.00    +0.000 OA
ATOM     15  H   UNL     1       4.580   2.063  20.037  0.00  0.00    +0.000 HD
ENDBRANCH   8  14
BRANCH   3  16
ATOM     16  C   UNL     1       3.250   7.318  17.383  0.00  0.00    +0.000 C 
BRANCH  16  17
ATOM     17  C   UNL     1       2.356   8.135  18.290  0.00  0.00    +0.000 A 
ATOM     18  C   UNL     1       2.162   7.754  19.629  0.00  0.00    +0.000 A 
ATOM     19  C   UNL     1       1.283   8.465  20.447  0.00  0.00    +0.000 A 
ATOM     20  C   UNL     1       0.619   9.574  19.938  0.00  0.00    +0.000 A 
ATOM     21  F   UNL     1      -0.251  10.235  20.712  0.00  0.00    +0.000 F 
ATOM     22  C   UNL     1       0.845  10.006  18.637  0.00  0.00    +0.000 A 
ATOM     23  C   UNL     1       1.721   9.294  17.816  0.00  0.00    +0.000 A 
ENDBRANCH  16  17
ENDBRANCH   3  16
TORSDOF 4
ENDMDL
MODEL 3
REMARK VINA RESULT:      -7.0      3.590      5.942
REMARK  Name = 
REMARK  6 active torsions:
REMARK  status: ('A' for Active; 'I' for Inactive)
REMARK    1  A    between atoms: C_1  and  N_2
REMARK    2  A    between atoms: C_3  and  C_5
REMARK    3  A    between atoms: C_7  and  C_8
REMARK    4  A    between atoms: C_8  and  C_9
REMARK    5  A    between atoms: N_16  and  C_17
REMARK    6  A    between atoms: C_20  and  O_21
REMARK                            x       y       z     vdW  Elec       q    Type
REMARK                         _______ _______ _______ _____ _____    ______ ____
ROOT
ATOM      1  C   UNL     1       3.438   4.025  19.028  0.00  0.00    +0.000 A 
ATOM      2  N   UNL     1       2.966   5.192  18.450  0.00  0.00    +0.000 NA
ATOM      3  C   UNL     1       3.843   6.064  18.041  0.00  0.00    +0.000 A 
ATOM      4  N   UNL     1       5.205   5.865  18.140  0.00  0.00    +0.000 N 
ATOM      5  C   UNL     1       6.210   6.871  17.844  0.00  0.00    +0.000 C 
ATOM      6  C   UNL     1       5.692   4.620  18.468  0.00  0.00    +0.000 A 
ATOM      7  O   UNL     1       6.869   4.268  18.369  0.00  0.00    +0.000 OA
ATOM      8  C   UNL     1       4.723   3.644  19.010  0.00  0.00    +0.000 A 
ENDROOT
BRANCH   1  11
ATOM      9  C   UNL     1       1.580   2.447  21.909  0.00  0.00    +0.000 C 
ATOM     10  N   UNL     1       2.416   3.286  21.094  0.00  0.00    +0.000 N 
ATOM     11  C   UNL     1       2.453   3.113  19.730  0.00  0.00    +0.000 C 
ATOM     12  O   UNL     1       1.781   2.258  19.163  0.00  0.00    +0.000 OA
ATOM     13  H   UNL     1       3.066   3.949  21.505  0.00  0.00    +0.000 HD
ENDBRANCH   1  11
BRANCH   8  14
ATOM     14  O   UNL     1       5.225   2.440  19.461  0.00  0.00    +0.000 OA
ATOM     15  H   UNL     1       6.098   2.337  19.030  0.00  0.00    +0.000 HD
ENDBRANCH   8  14
BRANCH   3  16
ATOM     16  C   UNL     1       3.318   7.346  17.385  0.00  0.00    +0.000 C 
BRANCH  16  17
ATOM     17  C   UNL     1       2.361   8.128  18.256  0.00  0.00    +0.000 A 
ATOM     18  C   UNL     1       1.654   9.225  17.731  0.00  0.00    +0.000 A 
ATOM     19  C   UNL     1       0.824   9.990  18.552  0.00  0.00    +0.000 A 
ATOM     20  C   UNL     1       0.677   9.646  19.889  0.00  0.00    +0.000 A 
ATOM     21  F   UNL     1      -0.091  10.402  20.684  0.00  0.00    +0.000 F 
ATOM     22  C   UNL     1       1.315   8.529  20.413  0.00  0.00    +0.000 A 
ATOM     23  C   UNL     1       2.148   7.764  19.595  0.00  0.00    +0.000 A 
ENDBRANCH  16  17
ENDBRANCH   3  16
TORSDOF 4
ENDMDL
MODEL 4
REMARK VINA RESULT:      -7.0      0.078      1.058
REMARK  Name = 
REMARK  6 active torsions:
REMARK  status: ('A' for Active; 'I' for Inactive)
REMARK    1  A    between atoms: C_1  and  N_2
REMARK    2  A    between atoms: C_3  and  C_5
REMARK    3  A    between atoms: C_7  and  C_8
REMARK    4  A    between atoms: C_8  and  C_9
REMARK    5  A    between atoms: N_16  and  C_17
REMARK    6  A    between atoms: C_20  and  O_21
REMARK                            x       y       z     vdW  Elec       q    Type
REMARK                         _______ _______ _______ _____ _____    ______ ____
ROOT
ATOM      1  C   UNL     1       2.711   5.910  19.751  0.00  0.00    +0.000 A 
ATOM      2  N   UNL     1       4.009   5.799  19.277  0.00  0.00    +0.000 NA
ATOM      3  C   UNL     1       4.575   4.628  19.326  0.00  0.00    +0.000 A 
ATOM      4  N   UNL     1       3.936   3.502  19.806  0.00  0.00    +0.000 N 
ATOM      5  C   UNL     1       4.579   2.218  20.024  0.00  0.00    +0.000 C 
ATOM      6  C   UNL     1       2.580   3.533  20.038  0.00  0.00    +0.000 A 
ATOM      7  O   UNL     1       1.871   2.546  20.247  0.00  0.00    +0.000 OA
ATOM      8  C   UNL     1       1.935   4.863  20.064  0.00  0.00    +0.000 A 
ENDROOT
BRANCH   1  11
ATOM      9  C   UNL     1       1.042   8.786  21.535  0.00  0.00    +0.000 C 
ATOM     10  N   UNL     1       1.689   7.542  21.217  0.00  0.00    +0.000 N 
ATOM     11  C   UNL     1       2.121   7.292  19.935  0.00  0.00    +0.000 C 
ATOM     12  O   UNL     1       1.983   8.108  19.030  0.00  0.00    +0.000 OA
ATOM     13  H   UNL     1       1.752   6.788  21.893  0.00  0.00    +0.000 HD
ENDBRANCH   1  11
BRANCH   8  14
ATOM     14  O   UNL     1       0.603   4.912  20.423  0.00  0.00    +0.000 OA
ATOM     15  H   UNL     1       0.593   5.013  21.397  0.00  0.00    +0.000 HD
ENDBRANCH   8  14
BRANCH   3  16
ATOM     16  C   UNL     1       6.003   4.505  18.783  0.00  0.00    +0.000 C 
BRANCH  16  17
ATOM     17  C   UNL     1       6.075   4.409  17.275  0.00  0.00    +0.000 A 
ATOM     18  C   UNL     1       7.239   4.801  16.591  0.00  0.00    +0.000 A 
ATOM     19  C   UNL     1       7.282   4.779  15.197  0.00  0.00    +0.000 A 
ATOM     20  C   UNL     1       6.174   4.338  14.484  0.00  0.00    +0.000 A 
ATOM     21  F   UNL     1       6.203   4.351  13.145  0.00  0.00    +0.000 F 
ATOM     22  C   UNL     1       5.037   3.885  15.141  0.00  0.00    +0.000 A 
ATOM     23  C   UNL     1       4.990   3.910  16.535  0.00  0.00    +0.000 A 
ENDBRANCH  16  17
ENDBRANCH   3  16
TORSDOF 4
ENDMDL
MODEL 5
REMARK VINA RESULT:      -7.0      2.277      2.821
REMARK  Name = 
REMARK  6 active torsions:
REMARK  status: ('A' for Active; 'I' for Inactive)
REMARK    1  A    between atoms: C_1  and  N_2
REMARK    2  A    between atoms: C_3  and  C_5
REMARK    3  A    between atoms: C_7  and  C_8
REMARK    4  A    between atoms: C_8  and  C_9
REMARK    5  A    between atoms: N_16  and  C_17
REMARK    6  A    between atoms: C_20  and  O_21
REMARK                            x       y       z     vdW  Elec       q    Type
REMARK                         _______ _______ _______ _____ _____    ______ ____
ROOT
ATOM      1  C   UNL     1       2.278   5.165  19.334  0.00  0.00    +0.000 A 
ATOM      2  N   UNL     1       3.378   5.220  18.494  0.00  0.00    +0.000 NA
ATOM      3  C   UNL     1       3.878   4.094  18.074  0.00  0.00    +0.000 A 
ATOM      4  N   UNL     1       3.351   2.863  18.411  0.00  0.00    +0.000 N 
ATOM      5  C   UNL     1       3.968   1.587  18.096  0.00  0.00    +0.000 C 
ATOM      6  C   UNL     1       2.121   2.792  19.025  0.00  0.00    +0.000 A 
ATOM      7  O   UNL     1       1.457   1.764  19.168  0.00  0.00    +0.000 OA
ATOM      8  C   UNL     1       1.575   4.049  19.578  0.00  0.00    +0.000 A 
ENDROOT
BRANCH   1  11
ATOM      9  C   UNL     1       1.631   8.854  19.793  0.00  0.00    +0.000 C 
ATOM     10  N   UNL     1       1.951   7.561  19.251  0.00  0.00    +0.000 N 
ATOM     11  C   UNL     1       1.831   6.434  20.030  0.00  0.00    +0.000 C 
ATOM     12  O   UNL     1       1.444   6.482  21.193  0.00  0.00    +0.000 OA
ATOM     13  H   UNL     1       2.364   7.459  18.330  0.00  0.00    +0.000 HD
ENDBRANCH   1  11
BRANCH   8  14
ATOM     14  O   UNL     1       0.406   3.963  20.306  0.00  0.00    +0.000 OA
ATOM     15  H   UNL     1       0.634   3.471  21.120  0.00  0.00    +0.000 HD
ENDBRANCH   8  14
BRANCH   3  16
ATOM     16  C   UNL     1       5.084   4.160  17.129  0.00  0.00    +0.000 C 
BRANCH  16  17
ATOM     17  C   UNL     1       6.116   5.190  17.530  0.00  0.00    +0.000 A 
ATOM     18  C   UNL     1       6.988   4.943  18.605  0.00  0.00    +0.000 A 
ATOM     19  C   UNL     1       7.894   5.920  19.021  0.00  0.00    +0.000 A 
ATOM     20  C   UNL     1       7.949   7.134  18.347  0.00  0.00    +0.000 A 
ATOM     21  F   UNL     1       8.793   8.085  18.769  0.00  0.00    +0.000 F 
ATOM     22  C   UNL     1       7.142   7.374  17.243  0.00  0.00    +0.000 A 
ATOM     23  C   UNL     1       6.233   6.400  16.828  0.00  0.00    +0.000 A 
ENDBRANCH  16  17
ENDBRANCH   3  16
TORSDOF 4
ENDMDL
MODEL 6
REMARK VINA RESULT:      -7.0      2.090      2.670
REMARK  Name = 
REMARK  6 active torsions:
REMARK  status: ('A' for Active; 'I' for Inactive)
REMARK    1  A    between atoms: C_1  and  N_2
REMARK    2  A    between atoms: C_3  and  C_5
REMARK    3  A    between atoms: C_7  and  C_8
REMARK    4  A    between atoms: C_8  and  C_9
REMARK    5  A    between atoms: N_16  and  C_17
REMARK    6  A    between atoms: C_20  and  O_21
REMARK                            x       y       z     vdW  Elec       q    Type
REMARK                         _______ _______ _______ _____ _____    ______ ____
ROOT
ATOM      1  C   UNL     1       2.745   5.699  19.646  0.00  0.00    +0.000 A 
ATOM      2  N   UNL     1       3.976   5.540  19.030  0.00  0.00    +0.000 NA
ATOM      3  C   UNL     1       4.524   4.359  19.067  0.00  0.00    +0.000 A 
ATOM      4  N   UNL     1       3.928   3.270  19.670  0.00  0.00    +0.000 N 
ATOM      5  C   UNL     1       4.571   1.984  19.871  0.00  0.00    +0.000 C 
ATOM      6  C   UNL     1       2.609   3.341  20.057  0.00  0.00    +0.000 A 
ATOM      7  O   UNL     1       1.914   2.379  20.393  0.00  0.00    +0.000 OA
ATOM      8  C   UNL     1       1.994   4.684  20.097  0.00  0.00    +0.000 A 
ENDROOT
BRANCH   1  11
ATOM      9  C   UNL     1       1.193   8.634  21.441  0.00  0.00    +0.000 C 
ATOM     10  N   UNL     1       1.795   7.368  21.119  0.00  0.00    +0.000 N 
ATOM     11  C   UNL     1       2.203   7.101  19.833  0.00  0.00    +0.000 C 
ATOM     12  O   UNL     1       2.081   7.919  18.927  0.00  0.00    +0.000 OA
ATOM     13  H   UNL     1       1.840   6.614  21.797  0.00  0.00    +0.000 HD
ENDBRANCH   1  11
BRANCH   8  14
ATOM     14  O   UNL     1       0.715   4.778  20.606  0.00  0.00    +0.000 OA
ATOM     15  H   UNL     1       0.604   4.004  21.195  0.00  0.00    +0.000 HD
ENDBRANCH   8  14
BRANCH   3  16
ATOM     16  C   UNL     1       5.876   4.182  18.367  0.00  0.00    +0.000 C 
BRANCH  16  17
ATOM     17  C   UNL     1       6.641   5.474  18.183  0.00  0.00    +0.000 A 
ATOM     18  C   UNL     1       7.677   5.820  19.068  0.00  0.00    +0.000 A 
ATOM     19  C   UNL     1       8.337   7.044  18.942  0.00  0.00    +0.000 A 
ATOM     20  C   UNL     1       7.982   7.911  17.917  0.00  0.00    +0.000 A 
ATOM     21  F   UNL     1       8.590   9.100  17.818  0.00  0.00    +0.000 F 
ATOM     22  C   UNL     1       7.006   7.561  16.992  0.00  0.00    +0.000 A 
ATOM     23  C   UNL     1       6.343   6.339  17.118  0.00  0.00    +0.000 A 
ENDBRANCH  16  17
ENDBRANCH   3  16
TORSDOF 4
ENDMDL
MODEL 7
REMARK VINA RESULT:      -6.9      4.266      6.907
REMARK  Name = 
REMARK  6 active torsions:
REMARK  status: ('A' for Active; 'I' for Inactive)
REMARK    1  A    between atoms: C_1  and  N_2
REMARK    2  A    between atoms: C_3  and  C_5
REMARK    3  A    between atoms: C_7  and  C_8
REMARK    4  A    between atoms: C_8  and  C_9
REMARK    5  A    between atoms: N_16  and  C_17
REMARK    6  A    between atoms: C_20  and  O_21
REMARK                            x       y       z     vdW  Elec       q    Type
REMARK                         _______ _______ _______ _____ _____    ______ ____
ROOT
ATOM      1  C   UNL     1       5.897   4.334  14.783  0.00  0.00    +0.000 A 
ATOM      2  N   UNL     1       4.813   3.970  15.566  0.00  0.00    +0.000 NA
ATOM      3  C   UNL     1       4.891   4.185  16.848  0.00  0.00    +0.000 A 
ATOM      4  N   UNL     1       5.988   4.771  17.448  0.00  0.00    +0.000 N 
ATOM      5  C   UNL     1       6.182   4.884  18.883  0.00  0.00    +0.000 C 
ATOM      6  C   UNL     1       6.954   5.368  16.671  0.00  0.00    +0.000 A 
ATOM      7  O   UNL     1       7.848   6.107  17.089  0.00  0.00    +0.000 OA
ATOM      8  C   UNL     1       6.927   5.070  15.222  0.00  0.00    +0.000 A 
ENDROOT
BRANCH   1  11
ATOM      9  C   UNL     1       4.569   3.107  11.471  0.00  0.00    +0.000 C 
ATOM     10  N   UNL     1       4.694   3.616  12.810  0.00  0.00    +0.000 N 
ATOM     11  C   UNL     1       5.936   3.875  13.340  0.00  0.00    +0.000 C 
ATOM     12  O   UNL     1       6.968   3.695  12.702  0.00  0.00    +0.000 OA
ATOM     13  H   UNL     1       3.890   3.699  13.424  0.00  0.00    +0.000 HD
ENDBRANCH   1  11
BRANCH   8  14
ATOM     14  O   UNL     1       7.966   5.560  14.458  0.00  0.00    +0.000 OA
ATOM     15  H   UNL     1       7.607   5.660  13.553  0.00  0.00    +0.000 HD
ENDBRANCH   8  14
BRANCH   3  16
ATOM     16  C   UNL     1       3.682   3.800  17.708  0.00  0.00    +0.000 C 
BRANCH  16  17
ATOM     17  C   UNL     1       3.067   4.965  18.451  0.00  0.00    +0.000 A 
ATOM     18  C   UNL     1       3.017   6.239  17.859  0.00  0.00    +0.000 A 
ATOM     19  C   UNL     1       2.514   7.330  18.570  0.00  0.00    +0.000 A 
ATOM     20  C   UNL     1       2.035   7.146  19.860  0.00  0.00    +0.000 A 
ATOM     21  F   UNL     1       1.586   8.199  20.555  0.00  0.00    +0.000 F 
ATOM     22  C   UNL     1       2.016   5.883  20.440  0.00  0.00    +0.000 A 
ATOM     23  C   UNL     1       2.522   4.792  19.733  0.00  0.00    +0.000 A 
ENDBRANCH  16  17
ENDBRANCH   3  16
TORSDOF 4
ENDMDL
MODEL 8
REMARK VINA RESULT:      -6.9      3.052      5.874
REMARK  Name = 
REMARK  6 active torsions:
REMARK  status: ('A' for Active; 'I' for Inactive)
REMARK    1  A    between atoms: C_1  and  N_2
REMARK    2  A    between atoms: C_3  and  C_5
REMARK    3  A    between atoms: C_7  and  C_8
REMARK    4  A    between atoms: C_8  and  C_9
REMARK    5  A    between atoms: N_16  and  C_17
REMARK    6  A    between atoms: C_20  and  O_21
REMARK                            x       y       z     vdW  Elec       q    Type
REMARK                         _______ _______ _______ _____ _____    ______ ____
ROOT
ATOM      1  C   UNL     1       4.511   4.110  18.566  0.00  0.00    +0.000 A 
ATOM      2  N   UNL     1       4.066   5.113  19.412  0.00  0.00    +0.000 NA
ATOM      3  C   UNL     1       2.867   4.999  19.909  0.00  0.00    +0.000 A 
ATOM      4  N   UNL     1       2.041   3.925  19.646  0.00  0.00    +0.000 N 
ATOM      5  C   UNL     1       0.649   3.836  20.048  0.00  0.00    +0.000 C 
ATOM      6  C   UNL     1       2.551   2.807  19.025  0.00  0.00    +0.000 A 
ATOM      7  O   UNL     1       1.980   1.718  18.941  0.00  0.00    +0.000 OA
ATOM      8  C   UNL     1       3.878   2.942  18.387  0.00  0.00    +0.000 A 
ENDROOT
BRANCH   1  11
ATOM      9  C   UNL     1       6.736   4.490  15.542  0.00  0.00    +0.000 C 
ATOM     10  N   UNL     1       5.607   4.355  16.422  0.00  0.00    +0.000 N 
ATOM     11  C   UNL     1       5.790   4.334  17.785  0.00  0.00    +0.000 C 
ATOM     12  O   UNL     1       6.900   4.436  18.296  0.00  0.00    +0.000 OA
ATOM     13  H   UNL     1       4.674   4.173  16.066  0.00  0.00    +0.000 HD
ENDBRANCH   1  11
BRANCH   8  14
ATOM     14  O   UNL     1       4.338   1.867  17.654  0.00  0.00    +0.000 OA
ATOM     15  H   UNL     1       3.650   1.690  16.980  0.00  0.00    +0.000 HD
ENDBRANCH   8  14
BRANCH   3  16
ATOM     16  C   UNL     1       2.385   6.100  20.860  0.00  0.00    +0.000 C 
BRANCH  16  17
ATOM     17  C   UNL     1       1.959   7.370  20.157  0.00  0.00    +0.000 A 
ATOM     18  C   UNL     1       1.233   8.357  20.846  0.00  0.00    +0.000 A 
ATOM     19  C   UNL     1       0.779   9.496  20.180  0.00  0.00    +0.000 A 
ATOM     20  C   UNL     1       1.073   9.666  18.833  0.00  0.00    +0.000 A 
ATOM     21  F   UNL     1       0.607  10.741  18.186  0.00  0.00    +0.000 F 
ATOM     22  C   UNL     1       1.844   8.734  18.149  0.00  0.00    +0.000 A 
ATOM     23  C   UNL     1       2.296   7.592  18.812  0.00  0.00    +0.000 A 
ENDBRANCH  16  17
ENDBRANCH   3  16
TORSDOF 4
ENDMDL
MODEL 9
REMARK VINA RESULT:      -6.9      4.087      6.723
REMARK  Name = 
REMARK  6 active torsions:
REMARK  status: ('A' for Active; 'I' for Inactive)
REMARK    1  A    between atoms: C_1  and  N_2
REMARK    2  A    between atoms: C_3  and  C_5
REMARK    3  A    between atoms: C_7  and  C_8
REMARK    4  A    between atoms: C_8  and  C_9
REMARK    5  A    between atoms: N_16  and  C_17
REMARK    6  A    between atoms: C_20  and  O_21
REMARK                            x       y       z     vdW  Elec       q    Type
REMARK                         _______ _______ _______ _____ _____    ______ ____
ROOT
ATOM      1  C   UNL     1       5.928   4.408  15.584  0.00  0.00    +0.000 A 
ATOM      2  N   UNL     1       4.583   4.313  15.902  0.00  0.00    +0.000 NA
ATOM      3  C   UNL     1       4.268   4.109  17.149  0.00  0.00    +0.000 A 
ATOM      4  N   UNL     1       5.207   4.004  18.156  0.00  0.00    +0.000 N 
ATOM      5  C   UNL     1       4.909   3.620  19.525  0.00  0.00    +0.000 C 
ATOM      6  C   UNL     1       6.516   4.348  17.908  0.00  0.00    +0.000 A 
ATOM      7  O   UNL     1       7.384   4.510  18.768  0.00  0.00    +0.000 OA
ATOM      8  C   UNL     1       6.910   4.507  16.492  0.00  0.00    +0.000 A 
ENDROOT
BRANCH   1  11
ATOM      9  C   UNL     1       6.128   3.173  12.024  0.00  0.00    +0.000 C 
ATOM     10  N   UNL     1       5.786   3.358  13.408  0.00  0.00    +0.000 N 
ATOM     11  C   UNL     1       6.331   4.399  14.124  0.00  0.00    +0.000 C 
ATOM     12  O   UNL     1       7.109   5.201  13.618  0.00  0.00    +0.000 OA
ATOM     13  H   UNL     1       5.224   2.680  13.912  0.00  0.00    +0.000 HD
ENDBRANCH   1  11
BRANCH   8  14
ATOM     14  O   UNL     1       8.247   4.725  16.229  0.00  0.00    +0.000 OA
ATOM     15  H   UNL     1       8.673   4.849  17.102  0.00  0.00    +0.000 HD
ENDBRANCH   8  14
BRANCH   3  16
ATOM     16  C   UNL     1       2.778   4.023  17.501  0.00  0.00    +0.000 C 
BRANCH  16  17
ATOM     17  C   UNL     1       2.336   5.041  18.528  0.00  0.00    +0.000 A 
ATOM     18  C   UNL     1       2.579   6.411  18.324  0.00  0.00    +0.000 A 
ATOM     19  C   UNL     1       2.235   7.345  19.302  0.00  0.00    +0.000 A 
ATOM     20  C   UNL     1       1.623   6.916  20.473  0.00  0.00    +0.000 A 
ATOM     21  F   UNL     1       1.325   7.808  21.427  0.00  0.00    +0.000 F 
ATOM     22  C   UNL     1       1.315   5.576  20.668  0.00  0.00    +0.000 A 
ATOM     23  C   UNL     1       1.662   4.640  19.692  0.00  0.00    +0.000 A 
ENDBRANCH  16  17
ENDBRANCH   3  16
TORSDOF 4
ENDMDL
