MODEL 1
REMARK VINA RESULT:      -6.0      0.000      0.000
REMARK  Name = 
REMARK  4 active torsions:
REMARK  status: ('A' for Active; 'I' for Inactive)
REMARK    1  A    between atoms: C_1  and  O_2
REMARK    2  A    between atoms: O_2  and  C_3
REMARK    3  A    between atoms: C_9  and  C_10
REMARK    4  A    between atoms: C_10  and  N_11
REMARK                            x       y       z     vdW  Elec       q    Type
REMARK                         _______ _______ _______ _____ _____    ______ ____
ROOT
ATOM      1  C   UNL     1       6.166   5.394  17.101  0.00  0.00    +0.000 A 
ATOM      2  C   UNL     1       7.300   5.274  16.283  0.00  0.00    +0.000 A 
ATOM      3  C   UNL     1       7.195   4.721  15.008  0.00  0.00    +0.000 A 
ATOM      4  C   UNL     1       5.963   4.267  14.550  0.00  0.00    +0.000 A 
ATOM      5 BR   UNL     1       5.814   3.568  12.801  0.00  0.00    +0.000 Br
ATOM      6  C   UNL     1       4.834   4.341  15.359  0.00  0.00    +0.000 A 
ATOM      7  C   UNL     1       4.924   4.908  16.647  0.00  0.00    +0.000 A 
ENDROOT
BRANCH   1   9
ATOM      8  C   UNL     1       7.368   5.717  19.132  0.00  0.00    +0.000 C 
ATOM      9  O   UNL     1       6.196   5.947  18.354  0.00  0.00    +0.000 OA
ENDBRANCH   1   9
BRANCH   7  10
ATOM     10  C   UNL     1       3.653   5.024  17.481  0.00  0.00    +0.000 C 
BRANCH  10  11
ATOM     11  N   UNL     1       3.226   3.783  18.190  0.00  0.00    +0.000 NA
ATOM     12  C   UNL     1       1.750   3.689  18.055  0.00  0.00    +0.000 C 
ATOM     13  C   UNL     1       0.997   2.657  18.908  0.00  0.00    +0.000 C 
ATOM     14  S   UNL     1       1.334   2.840  20.677  0.00  0.00    +0.000 S 
ATOM     15  C   UNL     1       3.136   2.746  20.535  0.00  0.00    +0.000 C 
ATOM     16  C   UNL     1       3.677   3.833  19.599  0.00  0.00    +0.000 C 
ENDBRANCH  10  11
ENDBRANCH   7  10
TORSDOF 3
ENDMDL
MODEL 2
REMARK VINA RESULT:      -5.9      1.225      1.268
REMARK  Name = 
REMARK  4 active torsions:
REMARK  status: ('A' for Active; 'I' for Inactive)
REMARK    1  A    between atoms: C_1  and  O_2
REMARK    2  A    between atoms: O_2  and  C_3
REMARK    3  A    between atoms: C_9  and  C_10
REMARK    4  A    between atoms: C_10  and  N_11
REMARK                            x       y       z     vdW  Elec       q    Type
REMARK                         _______ _______ _______ _____ _____    ______ ____
ROOT
ATOM      1  C   UNL     1       6.499   4.969  18.147  0.00  0.00    +0.000 A 
ATOM      2  C   UNL     1       7.522   4.541  17.287  0.00  0.00    +0.000 A 
ATOM      3  C   UNL     1       7.248   4.259  15.949  0.00  0.00    +0.000 A 
ATOM      4  C   UNL     1       5.949   4.384  15.468  0.00  0.00    +0.000 A 
ATOM      5 BR   UNL     1       5.591   4.054  13.642  0.00  0.00    +0.000 Br
ATOM      6  C   UNL     1       4.913   4.769  16.313  0.00  0.00    +0.000 A 
ATOM      7  C   UNL     1       5.179   5.068  17.666  0.00  0.00    +0.000 A 
ENDROOT
BRANCH   1   9
ATOM      8  C   UNL     1       8.007   5.738  19.822  0.00  0.00    +0.000 C 
ATOM      9  O   UNL     1       6.706   5.283  19.464  0.00  0.00    +0.000 OA
ENDBRANCH   1   9
BRANCH   7  10
ATOM     10  C   UNL     1       4.028   5.542  18.546  0.00  0.00    +0.000 C 
BRANCH  10  11
ATOM     11  N   UNL     1       2.988   4.520  18.862  0.00  0.00    +0.000 NA
ATOM     12  C   UNL     1       2.026   5.152  19.800  0.00  0.00    +0.000 C 
ATOM     13  C   UNL     1       0.994   4.261  20.508  0.00  0.00    +0.000 C 
ATOM     14  S   UNL     1       1.762   2.895  21.413  0.00  0.00    +0.000 S 
ATOM     15  C   UNL     1       2.701   2.244  20.009  0.00  0.00    +0.000 C 
ATOM     16  C   UNL     1       3.631   3.310  19.420  0.00  0.00    +0.000 C 
ENDBRANCH  10  11
ENDBRANCH   7  10
TORSDOF 3
ENDMDL
MODEL 3
REMARK VINA RESULT:      -5.5      1.293      1.492
REMARK  Name = 
REMARK  4 active torsions:
REMARK  status: ('A' for Active; 'I' for Inactive)
REMARK    1  A    between atoms: C_1  and  O_2
REMARK    2  A    between atoms: O_2  and  C_3
REMARK    3  A    between atoms: C_9  and  C_10
REMARK    4  A    between atoms: C_10  and  N_11
REMARK                            x       y       z     vdW  Elec       q    Type
REMARK                         _______ _______ _______ _____ _____    ______ ____
ROOT
ATOM      1  C   UNL     1       6.993   5.252  16.287  0.00  0.00    +0.000 A 
ATOM      2  C   UNL     1       7.593   5.521  15.048  0.00  0.00    +0.000 A 
ATOM      3  C   UNL     1       7.124   4.908  13.888  0.00  0.00    +0.000 A 
ATOM      4  C   UNL     1       6.067   4.007  13.960  0.00  0.00    +0.000 A 
ATOM      5 BR   UNL     1       5.398   3.218  12.379  0.00  0.00    +0.000 Br
ATOM      6  C   UNL     1       5.483   3.696  15.184  0.00  0.00    +0.000 A 
ATOM      7  C   UNL     1       5.940   4.318  16.364  0.00  0.00    +0.000 A 
ENDROOT
BRANCH   1   9
ATOM      8  C   UNL     1       7.442   7.261  17.485  0.00  0.00    +0.000 C 
ATOM      9  O   UNL     1       7.391   5.837  17.460  0.00  0.00    +0.000 OA
ENDBRANCH   1   9
BRANCH   7  10
ATOM     10  C   UNL     1       5.238   3.994  17.677  0.00  0.00    +0.000 C 
BRANCH  10  11
ATOM     11  N   UNL     1       3.859   3.437  17.557  0.00  0.00    +0.000 NA
ATOM     12  C   UNL     1       2.914   4.572  17.709  0.00  0.00    +0.000 C 
ATOM     13  C   UNL     1       1.420   4.266  17.894  0.00  0.00    +0.000 C 
ATOM     14  S   UNL     1       1.107   3.154  19.288  0.00  0.00    +0.000 S 
ATOM     15  C   UNL     1       2.232   1.846  18.741  0.00  0.00    +0.000 C 
ATOM     16  C   UNL     1       3.659   2.377  18.569  0.00  0.00    +0.000 C 
ENDBRANCH  10  11
ENDBRANCH   7  10
TORSDOF 3
ENDMDL
MODEL 4
REMARK VINA RESULT:      -5.5      1.559      2.064
REMARK  Name = 
REMARK  4 active torsions:
REMARK  status: ('A' for Active; 'I' for Inactive)
REMARK    1  A    between atoms: C_1  and  O_2
REMARK    2  A    between atoms: O_2  and  C_3
REMARK    3  A    between atoms: C_9  and  C_10
REMARK    4  A    between atoms: C_10  and  N_11
REMARK                            x       y       z     vdW  Elec       q    Type
REMARK                         _______ _______ _______ _____ _____    ______ ____
ROOT
ATOM      1  C   UNL     1       7.051   5.000  15.923  0.00  0.00    +0.000 A 
ATOM      2  C   UNL     1       7.611   5.284  14.669  0.00  0.00    +0.000 A 
ATOM      3  C   UNL     1       7.053   4.750  13.509  0.00  0.00    +0.000 A 
ATOM      4  C   UNL     1       5.946   3.914  13.595  0.00  0.00    +0.000 A 
ATOM      5 BR   UNL     1       5.159   3.235  12.017  0.00  0.00    +0.000 Br
ATOM      6  C   UNL     1       5.398   3.588  14.832  0.00  0.00    +0.000 A 
ATOM      7  C   UNL     1       5.946   4.130  16.013  0.00  0.00    +0.000 A 
ENDROOT
BRANCH   1   9
ATOM      8  C   UNL     1       7.297   6.891  17.349  0.00  0.00    +0.000 C 
ATOM      9  O   UNL     1       7.537   5.509  17.098  0.00  0.00    +0.000 OA
ENDBRANCH   1   9
BRANCH   7  10
ATOM     10  C   UNL     1       5.283   3.795  17.344  0.00  0.00    +0.000 C 
BRANCH  10  11
ATOM     11  N   UNL     1       4.008   4.513  17.634  0.00  0.00    +0.000 NA
ATOM     12  C   UNL     1       4.180   5.199  18.939  0.00  0.00    +0.000 C 
ATOM     13  C   UNL     1       2.943   5.801  19.623  0.00  0.00    +0.000 C 
ATOM     14  S   UNL     1       1.621   4.587  19.858  0.00  0.00    +0.000 S 
ATOM     15  C   UNL     1       1.529   4.072  18.125  0.00  0.00    +0.000 C 
ATOM     16  C   UNL     1       2.883   3.552  17.628  0.00  0.00    +0.000 C 
ENDBRANCH  10  11
ENDBRANCH   7  10
TORSDOF 3
ENDMDL
MODEL 5
REMARK VINA RESULT:      -5.4      3.541      5.602
REMARK  Name = 
REMARK  4 active torsions:
REMARK  status: ('A' for Active; 'I' for Inactive)
REMARK    1  A    between atoms: C_1  and  O_2
REMARK    2  A    between atoms: O_2  and  C_3
REMARK    3  A    between atoms: C_9  and  C_10
REMARK    4  A    between atoms: C_10  and  N_11
REMARK                            x       y       z     vdW  Elec       q    Type
REMARK                         _______ _______ _______ _____ _____    ______ ____
ROOT
ATOM      1  C   UNL     1       2.471   4.587  19.994  0.00  0.00    +0.000 A 
ATOM      2  C   UNL     1       2.026   5.701  20.721  0.00  0.00    +0.000 A 
ATOM      3  C   UNL     1       1.927   6.950  20.109  0.00  0.00    +0.000 A 
ATOM      4  C   UNL     1       2.291   7.098  18.776  0.00  0.00    +0.000 A 
ATOM      5 BR   UNL     1       2.105   8.780  17.935  0.00  0.00    +0.000 Br
ATOM      6  C   UNL     1       2.771   6.014  18.047  0.00  0.00    +0.000 A 
ATOM      7  C   UNL     1       2.866   4.743  18.650  0.00  0.00    +0.000 A 
ENDROOT
BRANCH   1   9
ATOM      8  C   UNL     1       1.423   2.827  21.209  0.00  0.00    +0.000 C 
ATOM      9  O   UNL     1       2.570   3.329  20.528  0.00  0.00    +0.000 OA
ENDBRANCH   1   9
BRANCH   7  10
ATOM     10  C   UNL     1       3.342   3.569  17.803  0.00  0.00    +0.000 C 
BRANCH  10  11
ATOM     11  N   UNL     1       4.780   3.594  17.408  0.00  0.00    +0.000 NA
ATOM     12  C   UNL     1       5.506   4.364  18.450  0.00  0.00    +0.000 C 
ATOM     13  C   UNL     1       6.959   4.782  18.177  0.00  0.00    +0.000 C 
ATOM     14  S   UNL     1       7.135   5.719  16.639  0.00  0.00    +0.000 S 
ATOM     15  C   UNL     1       6.339   4.487  15.577  0.00  0.00    +0.000 C 
ATOM     16  C   UNL     1       4.916   4.178  16.056  0.00  0.00    +0.000 C 
ENDBRANCH  10  11
ENDBRANCH   7  10
TORSDOF 3
ENDMDL
MODEL 6
REMARK VINA RESULT:      -5.4      1.534      2.082
REMARK  Name = 
REMARK  4 active torsions:
REMARK  status: ('A' for Active; 'I' for Inactive)
REMARK    1  A    between atoms: C_1  and  O_2
REMARK    2  A    between atoms: O_2  and  C_3
REMARK    3  A    between atoms: C_9  and  C_10
REMARK    4  A    between atoms: C_10  and  N_11
REMARK                            x       y       z     vdW  Elec       q    Type
REMARK                         _______ _______ _______ _____ _____    ______ ____
ROOT
ATOM      1  C   UNL     1       4.766   6.111  16.999  0.00  0.00    +0.000 A 
ATOM      2  C   UNL     1       5.011   6.721  15.760  0.00  0.00    +0.000 A 
ATOM      3  C   UNL     1       5.440   5.963  14.671  0.00  0.00    +0.000 A 
ATOM      4  C   UNL     1       5.645   4.596  14.819  0.00  0.00    +0.000 A 
ATOM      5 BR   UNL     1       6.174   3.562  13.328  0.00  0.00    +0.000 Br
ATOM      6  C   UNL     1       5.445   3.977  16.049  0.00  0.00    +0.000 A 
ATOM      7  C   UNL     1       5.001   4.730  17.155  0.00  0.00    +0.000 A 
ENDROOT
BRANCH   1   9
ATOM      8  C   UNL     1       3.125   7.552  17.950  0.00  0.00    +0.000 C 
ATOM      9  O   UNL     1       4.322   6.794  18.101  0.00  0.00    +0.000 OA
ENDBRANCH   1   9
BRANCH   7  10
ATOM     10  C   UNL     1       4.738   4.006  18.470  0.00  0.00    +0.000 C 
BRANCH  10  11
ATOM     11  N   UNL     1       3.304   3.867  18.860  0.00  0.00    +0.000 NA
ATOM     12  C   UNL     1       3.122   4.617  20.129  0.00  0.00    +0.000 C 
ATOM     13  C   UNL     1       1.812   4.434  20.910  0.00  0.00    +0.000 C 
ATOM     14  S   UNL     1       1.469   2.698  21.293  0.00  0.00    +0.000 S 
ATOM     15  C   UNL     1       1.590   2.103  19.587  0.00  0.00    +0.000 C 
ATOM     16  C   UNL     1       2.957   2.433  18.979  0.00  0.00    +0.000 C 
ENDBRANCH  10  11
ENDBRANCH   7  10
TORSDOF 3
ENDMDL
MODEL 7
REMARK VINA RESULT:      -5.4      4.137      4.927
REMARK  Name = 
REMARK  4 active torsions:
REMARK  status: ('A' for Active; 'I' for Inactive)
REMARK    1  A    between atoms: C_1  and  O_2
REMARK    2  A    between atoms: O_2  and  C_3
REMARK    3  A    between atoms: C_9  and  C_10
REMARK    4  A    between atoms: C_10  and  N_11
REMARK                            x       y       z     vdW  Elec       q    Type
REMARK                         _______ _______ _______ _____ _____    ______ ____
ROOT
ATOM      1  C   UNL     1       4.342   5.496  17.078  0.00  0.00    +0.000 A 
ATOM      2  C   UNL     1       4.410   4.112  16.863  0.00  0.00    +0.000 A 
ATOM      3  C   UNL     1       3.427   3.268  17.377  0.00  0.00    +0.000 A 
ATOM      4  C   UNL     1       2.382   3.799  18.125  0.00  0.00    +0.000 A 
ATOM      5 BR   UNL     1       1.021   2.660  18.775  0.00  0.00    +0.000 Br
ATOM      6  C   UNL     1       2.316   5.165  18.383  0.00  0.00    +0.000 A 
ATOM      7  C   UNL     1       3.299   6.031  17.860  0.00  0.00    +0.000 A 
ENDROOT
BRANCH   1   9
ATOM      8  C   UNL     1       6.583   6.303  17.114  0.00  0.00    +0.000 C 
ATOM      9  O   UNL     1       5.263   6.382  16.583  0.00  0.00    +0.000 OA
ENDBRANCH   1   9
BRANCH   7  10
ATOM     10  C   UNL     1       3.161   7.527  18.116  0.00  0.00    +0.000 C 
BRANCH  10  11
ATOM     11  N   UNL     1       1.843   7.977  18.651  0.00  0.00    +0.000 NA
ATOM     12  C   UNL     1       1.496   9.240  17.951  0.00  0.00    +0.000 C 
ATOM     13  C   UNL     1       0.321  10.076  18.482  0.00  0.00    +0.000 C 
ATOM     14  S   UNL     1       0.506  10.499  20.232  0.00  0.00    +0.000 S 
ATOM     15  C   UNL     1       0.735   8.800  20.813  0.00  0.00    +0.000 C 
ATOM     16  C   UNL     1       1.928   8.132  20.119  0.00  0.00    +0.000 C 
ENDBRANCH  10  11
ENDBRANCH   7  10
TORSDOF 3
ENDMDL
MODEL 8
REMARK VINA RESULT:      -5.3      3.904      4.960
REMARK  Name = 
REMARK  4 active torsions:
REMARK  status: ('A' for Active; 'I' for Inactive)
REMARK    1  A    between atoms: C_1  and  O_2
REMARK    2  A    between atoms: O_2  and  C_3
REMARK    3  A    between atoms: C_9  and  C_10
REMARK    4  A    between atoms: C_10  and  N_11
REMARK                            x       y       z     vdW  Elec       q    Type
REMARK                         _______ _______ _______ _____ _____    ______ ____
ROOT
ATOM      1  C   UNL     1       3.180   4.271  17.549  0.00  0.00    +0.000 A 
ATOM      2  C   UNL     1       4.254   3.708  16.844  0.00  0.00    +0.000 A 
ATOM      3  C   UNL     1       5.540   4.228  16.983  0.00  0.00    +0.000 A 
ATOM      4  C   UNL     1       5.757   5.323  17.810  0.00  0.00    +0.000 A 
ATOM      5 BR   UNL     1       7.510   5.992  18.039  0.00  0.00    +0.000 Br
ATOM      6  C   UNL     1       4.699   5.921  18.489  0.00  0.00    +0.000 A 
ATOM      7  C   UNL     1       3.396   5.399  18.366  0.00  0.00    +0.000 A 
ENDROOT
BRANCH   1   9
ATOM      8  C   UNL     1       1.601   2.621  18.225  0.00  0.00    +0.000 C 
ATOM      9  O   UNL     1       1.897   3.795  17.474  0.00  0.00    +0.000 OA
ENDBRANCH   1   9
BRANCH   7  10
ATOM     10  C   UNL     1       2.274   6.045  19.169  0.00  0.00    +0.000 C 
BRANCH  10  11
ATOM     11  N   UNL     1       2.347   7.528  19.311  0.00  0.00    +0.000 NA
ATOM     12  C   UNL     1       1.497   7.899  20.471  0.00  0.00    +0.000 C 
ATOM     13  C   UNL     1       1.166   9.382  20.697  0.00  0.00    +0.000 C 
ATOM     14  S   UNL     1       0.408  10.153  19.246  0.00  0.00    +0.000 S 
ATOM     15  C   UNL     1       1.716   9.690  18.083  0.00  0.00    +0.000 C 
ATOM     16  C   UNL     1       1.917   8.171  18.049  0.00  0.00    +0.000 C 
ENDBRANCH  10  11
ENDBRANCH   7  10
TORSDOF 3
ENDMDL
MODEL 9
REMARK VINA RESULT:      -5.3      1.792      2.425
REMARK  Name = 
REMARK  4 active torsions:
REMARK  status: ('A' for Active; 'I' for Inactive)
REMARK    1  A    between atoms: C_1  and  O_2
REMARK    2  A    between atoms: O_2  and  C_3
REMARK    3  A    between atoms: C_9  and  C_10
REMARK    4  A    between atoms: C_10  and  N_11
REMARK                            x       y       z     vdW  Elec       q    Type
REMARK                         _______ _______ _______ _____ _____    ______ ____
ROOT
ATOM      1  C   UNL     1       4.374   5.980  18.106  0.00  0.00    +0.000 A 
ATOM      2  C   UNL     1       4.389   6.791  16.961  0.00  0.00    +0.000 A 
ATOM      3  C   UNL     1       5.132   6.418  15.842  0.00  0.00    +0.000 A 
ATOM      4  C   UNL     1       5.878   5.246  15.866  0.00  0.00    +0.000 A 
ATOM      5 BR   UNL     1       6.840   4.716  14.329  0.00  0.00    +0.000 Br
ATOM      6  C   UNL     1       5.908   4.447  17.005  0.00  0.00    +0.000 A 
ATOM      7  C   UNL     1       5.153   4.806  18.140  0.00  0.00    +0.000 A 
ENDROOT
BRANCH   1   9
ATOM      8  C   UNL     1       2.487   7.083  19.052  0.00  0.00    +0.000 C 
ATOM      9  O   UNL     1       3.648   6.277  19.230  0.00  0.00    +0.000 OA
ENDBRANCH   1   9
BRANCH   7  10
ATOM     10  C   UNL     1       5.165   3.876  19.348  0.00  0.00    +0.000 C 
BRANCH  10  11
ATOM     11  N   UNL     1       4.072   2.862  19.399  0.00  0.00    +0.000 NA
ATOM     12  C   UNL     1       3.503   2.765  18.031  0.00  0.00    +0.000 C 
ATOM     13  C   UNL     1       2.187   1.995  17.834  0.00  0.00    +0.000 C 
ATOM     14  S   UNL     1       0.857   2.612  18.896  0.00  0.00    +0.000 S 
ATOM     15  C   UNL     1       1.769   2.452  20.451  0.00  0.00    +0.000 C 
ATOM     16  C   UNL     1       3.073   3.257  20.416  0.00  0.00    +0.000 C 
ENDBRANCH  10  11
ENDBRANCH   7  10
TORSDOF 3
ENDMDL
