MODEL 1
REMARK VINA RESULT:      -9.8      0.000      0.000
REMARK  Name = 
REMARK  3 active torsions:
REMARK  status: ('A' for Active; 'I' for Inactive)
REMARK    1  A    between atoms: C_2  and  C_3
REMARK    2  A    between atoms: C_2  and  C_9
REMARK    3  A    between atoms: C_14  and  C_15
REMARK                            x       y       z     vdW  Elec       q    Type
REMARK                         _______ _______ _______ _____ _____    ______ ____
ROOT
ATOM      1  C   UNL     1       5.922   5.244  17.173  0.00  0.00    +0.000 A 
ATOM      2  C   UNL     1       6.764   4.696  18.150  0.00  0.00    +0.000 A 
ATOM      3  C   UNL     1       7.719   5.475  18.808  0.00  0.00    +0.000 A 
ATOM      4  C   UNL     1       7.794   6.817  18.435  0.00  0.00    +0.000 A 
ATOM      5  N   UNL     1       8.592   7.834  18.875  0.00  0.00    +0.000 N 
ATOM      6  C   UNL     1       8.286   8.978  18.182  0.00  0.00    +0.000 A 
ATOM      7  N   UNL     1       7.319   8.747  17.311  0.00  0.00    +0.000 NA
ATOM      8  C   UNL     1       7.001   7.403  17.455  0.00  0.00    +0.000 A 
ATOM      9  C   UNL     1       6.048   6.600  16.794  0.00  0.00    +0.000 A 
ATOM     10  H   UNL     1       9.294   7.766  19.594  0.00  0.00    +0.000 HD
ENDROOT
BRANCH   6  11
ATOM     11  C   UNL     1       8.962  10.212  18.436  0.00  0.00    +0.000 A 
ATOM     12  C   UNL     1       8.824  11.427  17.792  0.00  0.00    +0.000 A 
ATOM     13  C   UNL     1       9.714  12.357  18.382  0.00  0.00    +0.000 A 
ATOM     14  C   UNL     1       9.992  13.718  18.147  0.00  0.00    +0.000 A 
ATOM     15  C   UNL     1      10.989  14.353  18.889  0.00  0.00    +0.000 A 
ATOM     16  C   UNL     1      11.704  13.648  19.857  0.00  0.00    +0.000 A 
ATOM     17  C   UNL     1      11.425  12.298  20.125  0.00  0.00    +0.000 A 
ATOM     18  C   UNL     1      10.416  11.677  19.377  0.00  0.00    +0.000 A 
ATOM     19  N   UNL     1       9.911  10.388  19.420  0.00  0.00    +0.000 N 
ATOM     20  H   UNL     1      10.200   9.669  20.069  0.00  0.00    +0.000 HD
ENDBRANCH   6  11
BRANCH   1  22
ATOM     21  O   UNL     1       5.116   3.948  15.398  0.00  0.00    +0.000 OA
ATOM     22  C   UNL     1       4.926   4.329  16.552  0.00  0.00    +0.000 C 
BRANCH  22  23
ATOM     23  C   UNL     1       3.731   3.833  17.294  0.00  0.00    +0.000 A 
ATOM     24  C   UNL     1       2.703   4.691  17.699  0.00  0.00    +0.000 A 
ATOM     25  C   UNL     1       1.597   4.188  18.386  0.00  0.00    +0.000 A 
ATOM     26  C   UNL     1       1.525   2.831  18.698  0.00  0.00    +0.000 A 
ATOM     27  C   UNL     1       2.565   1.976  18.337  0.00  0.00    +0.000 A 
ATOM     28  C   UNL     1       3.669   2.476  17.640  0.00  0.00    +0.000 A 
ENDBRANCH  22  23
ENDBRANCH   1  22
TORSDOF 3
ENDMDL
MODEL 2
REMARK VINA RESULT:      -9.8      0.585      1.089
REMARK  Name = 
REMARK  3 active torsions:
REMARK  status: ('A' for Active; 'I' for Inactive)
REMARK    1  A    between atoms: C_2  and  C_3
REMARK    2  A    between atoms: C_2  and  C_9
REMARK    3  A    between atoms: C_14  and  C_15
REMARK                            x       y       z     vdW  Elec       q    Type
REMARK                         _______ _______ _______ _____ _____    ______ ____
ROOT
ATOM      1  C   UNL     1       5.883   5.251  17.130  0.00  0.00    +0.000 A 
ATOM      2  C   UNL     1       6.679   4.639  18.109  0.00  0.00    +0.000 A 
ATOM      3  C   UNL     1       7.650   5.358  18.810  0.00  0.00    +0.000 A 
ATOM      4  C   UNL     1       7.790   6.705  18.480  0.00  0.00    +0.000 A 
ATOM      5  N   UNL     1       8.620   7.674  18.967  0.00  0.00    +0.000 N 
ATOM      6  C   UNL     1       8.377   8.850  18.303  0.00  0.00    +0.000 A 
ATOM      7  N   UNL     1       7.422   8.686  17.405  0.00  0.00    +0.000 NA
ATOM      8  C   UNL     1       7.045   7.353  17.501  0.00  0.00    +0.000 A 
ATOM      9  C   UNL     1       6.074   6.611  16.795  0.00  0.00    +0.000 A 
ATOM     10  H   UNL     1       9.301   7.555  19.699  0.00  0.00    +0.000 HD
ENDROOT
BRANCH   6  11
ATOM     11  C   UNL     1       9.098  10.046  18.608  0.00  0.00    +0.000 A 
ATOM     12  C   UNL     1       9.488  10.535  19.842  0.00  0.00    +0.000 A 
ATOM     13  C   UNL     1      10.166  11.762  19.649  0.00  0.00    +0.000 A 
ATOM     14  C   UNL     1      10.778  12.681  20.525  0.00  0.00    +0.000 A 
ATOM     15  C   UNL     1      11.333  13.854  20.011  0.00  0.00    +0.000 A 
ATOM     16  C   UNL     1      11.286  14.116  18.642  0.00  0.00    +0.000 A 
ATOM     17  C   UNL     1      10.704  13.201  17.748  0.00  0.00    +0.000 A 
ATOM     18  C   UNL     1      10.157  12.025  18.279  0.00  0.00    +0.000 A 
ATOM     19  N   UNL     1       9.542  10.947  17.665  0.00  0.00    +0.000 N 
ATOM     20  H   UNL     1       9.420  10.835  16.667  0.00  0.00    +0.000 HD
ENDBRANCH   6  11
BRANCH   1  22
ATOM     21  O   UNL     1       5.011   4.131  15.269  0.00  0.00    +0.000 OA
ATOM     22  C   UNL     1       4.864   4.397  16.460  0.00  0.00    +0.000 C 
BRANCH  22  23
ATOM     23  C   UNL     1       3.698   3.828  17.194  0.00  0.00    +0.000 A 
ATOM     24  C   UNL     1       2.591   4.609  17.545  0.00  0.00    +0.000 A 
ATOM     25  C   UNL     1       1.514   4.037  18.226  0.00  0.00    +0.000 A 
ATOM     26  C   UNL     1       1.550   2.691  18.587  0.00  0.00    +0.000 A 
ATOM     27  C   UNL     1       2.668   1.916  18.281  0.00  0.00    +0.000 A 
ATOM     28  C   UNL     1       3.742   2.483  17.590  0.00  0.00    +0.000 A 
ENDBRANCH  22  23
ENDBRANCH   1  22
TORSDOF 3
ENDMDL
MODEL 3
REMARK VINA RESULT:      -8.9      5.524      7.358
REMARK  Name = 
REMARK  3 active torsions:
REMARK  status: ('A' for Active; 'I' for Inactive)
REMARK    1  A    between atoms: C_2  and  C_3
REMARK    2  A    between atoms: C_2  and  C_9
REMARK    3  A    between atoms: C_14  and  C_15
REMARK                            x       y       z     vdW  Elec       q    Type
REMARK                         _______ _______ _______ _____ _____    ______ ____
ROOT
ATOM      1  C   UNL     1       5.593   5.105  15.621  0.00  0.00    +0.000 A 
ATOM      2  C   UNL     1       5.149   4.003  16.365  0.00  0.00    +0.000 A 
ATOM      3  C   UNL     1       4.241   4.153  17.416  0.00  0.00    +0.000 A 
ATOM      4  C   UNL     1       3.811   5.451  17.688  0.00  0.00    +0.000 A 
ATOM      5  N   UNL     1       2.940   5.938  18.621  0.00  0.00    +0.000 N 
ATOM      6  C   UNL     1       2.857   7.301  18.491  0.00  0.00    +0.000 A 
ATOM      7  N   UNL     1       3.635   7.721  17.510  0.00  0.00    +0.000 NA
ATOM      8  C   UNL     1       4.239   6.579  16.999  0.00  0.00    +0.000 A 
ATOM      9  C   UNL     1       5.164   6.411  15.946  0.00  0.00    +0.000 A 
ATOM     10  H   UNL     1       2.433   5.391  19.298  0.00  0.00    +0.000 HD
ENDROOT
BRANCH   6  11
ATOM     11  C   UNL     1       2.010   8.084  19.336  0.00  0.00    +0.000 A 
ATOM     12  C   UNL     1       1.255   9.197  19.018  0.00  0.00    +0.000 A 
ATOM     13  C   UNL     1       0.591   9.644  20.186  0.00  0.00    +0.000 A 
ATOM     14  C   UNL     1      -0.299  10.704  20.451  0.00  0.00    +0.000 A 
ATOM     15  C   UNL     1      -0.749  10.911  21.756  0.00  0.00    +0.000 A 
ATOM     16  C   UNL     1      -0.324  10.076  22.790  0.00  0.00    +0.000 A 
ATOM     17  C   UNL     1       0.542   8.998  22.542  0.00  0.00    +0.000 A 
ATOM     18  C   UNL     1       0.979   8.799  21.226  0.00  0.00    +0.000 A 
ATOM     19  N   UNL     1       1.806   7.835  20.676  0.00  0.00    +0.000 N 
ATOM     20  H   UNL     1       2.217   7.061  21.181  0.00  0.00    +0.000 HD
ENDBRANCH   6  11
BRANCH   1  22
ATOM     21  O   UNL     1       7.682   5.286  14.581  0.00  0.00    +0.000 OA
ATOM     22  C   UNL     1       6.543   4.828  14.509  0.00  0.00    +0.000 C 
BRANCH  22  23
ATOM     23  C   UNL     1       6.170   3.986  13.336  0.00  0.00    +0.000 A 
ATOM     24  C   UNL     1       7.129   3.301  12.582  0.00  0.00    +0.000 A 
ATOM     25  C   UNL     1       6.740   2.517  11.494  0.00  0.00    +0.000 A 
ATOM     26  C   UNL     1       5.395   2.437  11.134  0.00  0.00    +0.000 A 
ATOM     27  C   UNL     1       4.438   3.152  11.853  0.00  0.00    +0.000 A 
ATOM     28  C   UNL     1       4.824   3.929  12.948  0.00  0.00    +0.000 A 
ENDBRANCH  22  23
ENDBRANCH   1  22
TORSDOF 3
ENDMDL
MODEL 4
REMARK VINA RESULT:      -8.9      5.257      7.680
REMARK  Name = 
REMARK  3 active torsions:
REMARK  status: ('A' for Active; 'I' for Inactive)
REMARK    1  A    between atoms: C_2  and  C_3
REMARK    2  A    between atoms: C_2  and  C_9
REMARK    3  A    between atoms: C_14  and  C_15
REMARK                            x       y       z     vdW  Elec       q    Type
REMARK                         _______ _______ _______ _____ _____    ______ ____
ROOT
ATOM      1  C   UNL     1       5.637   5.318  16.733  0.00  0.00    +0.000 A 
ATOM      2  C   UNL     1       4.932   4.395  17.519  0.00  0.00    +0.000 A 
ATOM      3  C   UNL     1       3.781   4.764  18.219  0.00  0.00    +0.000 A 
ATOM      4  C   UNL     1       3.379   6.095  18.101  0.00  0.00    +0.000 A 
ATOM      5  N   UNL     1       2.318   6.769  18.635  0.00  0.00    +0.000 N 
ATOM      6  C   UNL     1       2.364   8.077  18.224  0.00  0.00    +0.000 A 
ATOM      7  N   UNL     1       3.410   8.281  17.443  0.00  0.00    +0.000 NA
ATOM      8  C   UNL     1       4.055   7.054  17.356  0.00  0.00    +0.000 A 
ATOM      9  C   UNL     1       5.221   6.667  16.663  0.00  0.00    +0.000 A 
ATOM     10  H   UNL     1       1.608   6.377  19.232  0.00  0.00    +0.000 HD
ENDROOT
BRANCH   6  11
ATOM     11  C   UNL     1       1.371   9.024  18.625  0.00  0.00    +0.000 A 
ATOM     12  C   UNL     1       1.008   9.416  19.901  0.00  0.00    +0.000 A 
ATOM     13  C   UNL     1      -0.035  10.368  19.803  0.00  0.00    +0.000 A 
ATOM     14  C   UNL     1      -0.772  11.101  20.755  0.00  0.00    +0.000 A 
ATOM     15  C   UNL     1      -1.798  11.946  20.325  0.00  0.00    +0.000 A 
ATOM     16  C   UNL     1      -2.090  12.066  18.967  0.00  0.00    +0.000 A 
ATOM     17  C   UNL     1      -1.351  11.364  18.001  0.00  0.00    +0.000 A 
ATOM     18  C   UNL     1      -0.320  10.526  18.447  0.00  0.00    +0.000 A 
ATOM     19  N   UNL     1       0.576   9.733  17.750  0.00  0.00    +0.000 N 
ATOM     20  H   UNL     1       0.637   9.667  16.743  0.00  0.00    +0.000 HD
ENDBRANCH   6  11
BRANCH   1  22
ATOM     21  O   UNL     1       7.843   4.541  16.665  0.00  0.00    +0.000 OA
ATOM     22  C   UNL     1       6.837   4.812  16.013  0.00  0.00    +0.000 C 
BRANCH  22  23
ATOM     23  C   UNL     1       6.844   4.589  14.539  0.00  0.00    +0.000 A 
ATOM     24  C   UNL     1       7.711   5.285  13.690  0.00  0.00    +0.000 A 
ATOM     25  C   UNL     1       7.693   5.043  12.314  0.00  0.00    +0.000 A 
ATOM     26  C   UNL     1       6.789   4.129  11.776  0.00  0.00    +0.000 A 
ATOM     27  C   UNL     1       5.891   3.464  12.610  0.00  0.00    +0.000 A 
ATOM     28  C   UNL     1       5.914   3.696  13.988  0.00  0.00    +0.000 A 
ENDBRANCH  22  23
ENDBRANCH   1  22
TORSDOF 3
ENDMDL
MODEL 5
REMARK VINA RESULT:      -8.9      0.876      1.148
REMARK  Name = 
REMARK  3 active torsions:
REMARK  status: ('A' for Active; 'I' for Inactive)
REMARK    1  A    between atoms: C_2  and  C_3
REMARK    2  A    between atoms: C_2  and  C_9
REMARK    3  A    between atoms: C_14  and  C_15
REMARK                            x       y       z     vdW  Elec       q    Type
REMARK                         _______ _______ _______ _____ _____    ______ ____
ROOT
ATOM      1  C   UNL     1       5.877   5.594  17.488  0.00  0.00    +0.000 A 
ATOM      2  C   UNL     1       6.762   4.990  18.392  0.00  0.00    +0.000 A 
ATOM      3  C   UNL     1       7.807   5.709  18.978  0.00  0.00    +0.000 A 
ATOM      4  C   UNL     1       7.926   7.049  18.610  0.00  0.00    +0.000 A 
ATOM      5  N   UNL     1       8.810   8.016  18.993  0.00  0.00    +0.000 N 
ATOM      6  C   UNL     1       8.513   9.183  18.335  0.00  0.00    +0.000 A 
ATOM      7  N   UNL     1       7.470   9.015  17.542  0.00  0.00    +0.000 NA
ATOM      8  C   UNL     1       7.091   7.688  17.701  0.00  0.00    +0.000 A 
ATOM      9  C   UNL     1       6.047   6.945  17.111  0.00  0.00    +0.000 A 
ATOM     10  H   UNL     1       9.561   7.902  19.654  0.00  0.00    +0.000 HD
ENDROOT
BRANCH   6  11
ATOM     11  C   UNL     1       9.273  10.376  18.544  0.00  0.00    +0.000 A 
ATOM     12  C   UNL     1      10.073  11.065  17.651  0.00  0.00    +0.000 A 
ATOM     13  C   UNL     1      10.637  12.181  18.316  0.00  0.00    +0.000 A 
ATOM     14  C   UNL     1      11.503  13.216  17.910  0.00  0.00    +0.000 A 
ATOM     15  C   UNL     1      11.924  14.164  18.844  0.00  0.00    +0.000 A 
ATOM     16  C   UNL     1      11.491  14.090  20.167  0.00  0.00    +0.000 A 
ATOM     17  C   UNL     1      10.608  13.081  20.587  0.00  0.00    +0.000 A 
ATOM     18  C   UNL     1      10.189  12.142  19.635  0.00  0.00    +0.000 A 
ATOM     19  N   UNL     1       9.328  11.062  19.738  0.00  0.00    +0.000 N 
ATOM     20  H   UNL     1       8.817  10.800  20.571  0.00  0.00    +0.000 HD
ENDBRANCH   6  11
BRANCH   1  22
ATOM     21  O   UNL     1       4.927   4.256  15.820  0.00  0.00    +0.000 OA
ATOM     22  C   UNL     1       4.787   4.741  16.941  0.00  0.00    +0.000 C 
BRANCH  22  23
ATOM     23  C   UNL     1       3.556   4.428  17.721  0.00  0.00    +0.000 A 
ATOM     24  C   UNL     1       2.568   3.566  17.230  0.00  0.00    +0.000 A 
ATOM     25  C   UNL     1       1.431   3.292  17.993  0.00  0.00    +0.000 A 
ATOM     26  C   UNL     1       1.260   3.899  19.237  0.00  0.00    +0.000 A 
ATOM     27  C   UNL     1       2.218   4.793  19.714  0.00  0.00    +0.000 A 
ATOM     28  C   UNL     1       3.361   5.061  18.956  0.00  0.00    +0.000 A 
ENDBRANCH  22  23
ENDBRANCH   1  22
TORSDOF 3
ENDMDL
MODEL 6
REMARK VINA RESULT:      -8.8      5.280      7.517
REMARK  Name = 
REMARK  3 active torsions:
REMARK  status: ('A' for Active; 'I' for Inactive)
REMARK    1  A    between atoms: C_2  and  C_3
REMARK    2  A    between atoms: C_2  and  C_9
REMARK    3  A    between atoms: C_14  and  C_15
REMARK                            x       y       z     vdW  Elec       q    Type
REMARK                         _______ _______ _______ _____ _____    ______ ____
ROOT
ATOM      1  C   UNL     1       5.715   5.257  16.860  0.00  0.00    +0.000 A 
ATOM      2  C   UNL     1       5.093   4.361  17.740  0.00  0.00    +0.000 A 
ATOM      3  C   UNL     1       3.968   4.731  18.481  0.00  0.00    +0.000 A 
ATOM      4  C   UNL     1       3.506   6.035  18.305  0.00  0.00    +0.000 A 
ATOM      5  N   UNL     1       2.449   6.701  18.857  0.00  0.00    +0.000 N 
ATOM      6  C   UNL     1       2.419   7.981  18.364  0.00  0.00    +0.000 A 
ATOM      7  N   UNL     1       3.410   8.174  17.513  0.00  0.00    +0.000 NA
ATOM      8  C   UNL     1       4.100   6.969  17.465  0.00  0.00    +0.000 A 
ATOM      9  C   UNL     1       5.241   6.583  16.731  0.00  0.00    +0.000 A 
ATOM     10  H   UNL     1       1.791   6.322  19.517  0.00  0.00    +0.000 HD
ENDROOT
BRANCH   6  11
ATOM     11  C   UNL     1       1.411   8.914  18.763  0.00  0.00    +0.000 A 
ATOM     12  C   UNL     1       0.580   9.686  17.973  0.00  0.00    +0.000 A 
ATOM     13  C   UNL     1      -0.246  10.470  18.814  0.00  0.00    +0.000 A 
ATOM     14  C   UNL     1      -1.265  11.412  18.569  0.00  0.00    +0.000 A 
ATOM     15  C   UNL     1      -1.869  12.064  19.646  0.00  0.00    +0.000 A 
ATOM     16  C   UNL     1      -1.470  11.787  20.953  0.00  0.00    +0.000 A 
ATOM     17  C   UNL     1      -0.474  10.833  21.220  0.00  0.00    +0.000 A 
ATOM     18  C   UNL     1       0.117  10.181  20.129  0.00  0.00    +0.000 A 
ATOM     19  N   UNL     1       1.095   9.202  20.073  0.00  0.00    +0.000 N 
ATOM     20  H   UNL     1       1.529   8.764  20.874  0.00  0.00    +0.000 HD
ENDBRANCH   6  11
BRANCH   1  22
ATOM     21  O   UNL     1       7.914   4.468  16.728  0.00  0.00    +0.000 OA
ATOM     22  C   UNL     1       6.893   4.752  16.104  0.00  0.00    +0.000 C 
BRANCH  22  23
ATOM     23  C   UNL     1       6.861   4.544  14.628  0.00  0.00    +0.000 A 
ATOM     24  C   UNL     1       7.719   5.234  13.765  0.00  0.00    +0.000 A 
ATOM     25  C   UNL     1       7.664   5.007  12.388  0.00  0.00    +0.000 A 
ATOM     26  C   UNL     1       6.732   4.112  11.863  0.00  0.00    +0.000 A 
ATOM     27  C   UNL     1       5.844   3.454  12.712  0.00  0.00    +0.000 A 
ATOM     28  C   UNL     1       5.904   3.671  14.091  0.00  0.00    +0.000 A 
ENDBRANCH  22  23
ENDBRANCH   1  22
TORSDOF 3
ENDMDL
MODEL 7
REMARK VINA RESULT:      -8.8      5.514      7.487
REMARK  Name = 
REMARK  3 active torsions:
REMARK  status: ('A' for Active; 'I' for Inactive)
REMARK    1  A    between atoms: C_2  and  C_3
REMARK    2  A    between atoms: C_2  and  C_9
REMARK    3  A    between atoms: C_14  and  C_15
REMARK                            x       y       z     vdW  Elec       q    Type
REMARK                         _______ _______ _______ _____ _____    ______ ____
ROOT
ATOM      1  C   UNL     1       5.538   5.084  15.598  0.00  0.00    +0.000 A 
ATOM      2  C   UNL     1       5.028   3.959  16.262  0.00  0.00    +0.000 A 
ATOM      3  C   UNL     1       4.108   4.085  17.305  0.00  0.00    +0.000 A 
ATOM      4  C   UNL     1       3.734   5.382  17.654  0.00  0.00    +0.000 A 
ATOM      5  N   UNL     1       2.869   5.849  18.603  0.00  0.00    +0.000 N 
ATOM      6  C   UNL     1       2.853   7.220  18.559  0.00  0.00    +0.000 A 
ATOM      7  N   UNL     1       3.669   7.665  17.621  0.00  0.00    +0.000 NA
ATOM      8  C   UNL     1       4.229   6.530  17.046  0.00  0.00    +0.000 A 
ATOM      9  C   UNL     1       5.165   6.386  16.000  0.00  0.00    +0.000 A 
ATOM     10  H   UNL     1       2.324   5.286  19.234  0.00  0.00    +0.000 HD
ENDROOT
BRANCH   6  11
ATOM     11  C   UNL     1       2.028   7.988  19.440  0.00  0.00    +0.000 A 
ATOM     12  C   UNL     1       1.687   7.733  20.755  0.00  0.00    +0.000 A 
ATOM     13  C   UNL     1       0.835   8.767  21.212  0.00  0.00    +0.000 A 
ATOM     14  C   UNL     1       0.201   9.030  22.442  0.00  0.00    +0.000 A 
ATOM     15  C   UNL     1      -0.638  10.139  22.559  0.00  0.00    +0.000 A 
ATOM     16  C   UNL     1      -0.846  10.983  21.468  0.00  0.00    +0.000 A 
ATOM     17  C   UNL     1      -0.204  10.754  20.240  0.00  0.00    +0.000 A 
ATOM     18  C   UNL     1       0.641   9.641  20.142  0.00  0.00    +0.000 A 
ATOM     19  N   UNL     1       1.410   9.170  19.091  0.00  0.00    +0.000 N 
ATOM     20  H   UNL     1       1.502   9.616  18.188  0.00  0.00    +0.000 HD
ENDBRANCH   6  11
BRANCH   1  22
ATOM     21  O   UNL     1       7.621   5.323  14.558  0.00  0.00    +0.000 OA
ATOM     22  C   UNL     1       6.496   4.833  14.487  0.00  0.00    +0.000 C 
BRANCH  22  23
ATOM     23  C   UNL     1       6.147   3.981  13.314  0.00  0.00    +0.000 A 
ATOM     24  C   UNL     1       7.121   3.287  12.588  0.00  0.00    +0.000 A 
ATOM     25  C   UNL     1       6.754   2.493  11.499  0.00  0.00    +0.000 A 
ATOM     26  C   UNL     1       5.418   2.411  11.112  0.00  0.00    +0.000 A 
ATOM     27  C   UNL     1       4.446   3.134  11.802  0.00  0.00    +0.000 A 
ATOM     28  C   UNL     1       4.809   3.921  12.899  0.00  0.00    +0.000 A 
ENDBRANCH  22  23
ENDBRANCH   1  22
TORSDOF 3
ENDMDL
MODEL 8
REMARK VINA RESULT:      -8.6      5.550      7.689
REMARK  Name = 
REMARK  3 active torsions:
REMARK  status: ('A' for Active; 'I' for Inactive)
REMARK    1  A    between atoms: C_2  and  C_3
REMARK    2  A    between atoms: C_2  and  C_9
REMARK    3  A    between atoms: C_14  and  C_15
REMARK                            x       y       z     vdW  Elec       q    Type
REMARK                         _______ _______ _______ _____ _____    ______ ____
ROOT
ATOM      1  C   UNL     1       3.386   4.358  18.624  0.00  0.00    +0.000 A 
ATOM      2  C   UNL     1       2.940   3.736  19.798  0.00  0.00    +0.000 A 
ATOM      3  C   UNL     1       2.238   4.445  20.776  0.00  0.00    +0.000 A 
ATOM      4  C   UNL     1       2.015   5.799  20.526  0.00  0.00    +0.000 A 
ATOM      5  N   UNL     1       1.371   6.759  21.253  0.00  0.00    +0.000 N 
ATOM      6  C   UNL     1       1.430   7.951  20.577  0.00  0.00    +0.000 A 
ATOM      7  N   UNL     1       2.084   7.806  19.438  0.00  0.00    +0.000 NA
ATOM      8  C   UNL     1       2.458   6.469  19.391  0.00  0.00    +0.000 A 
ATOM      9  C   UNL     1       3.173   5.740  18.417  0.00  0.00    +0.000 A 
ATOM     10  H   UNL     1       0.919   6.622  22.143  0.00  0.00    +0.000 HD
ENDROOT
BRANCH   6  11
ATOM     11  C   UNL     1       0.831   9.139  21.099  0.00  0.00    +0.000 A 
ATOM     12  C   UNL     1      -0.120   9.268  22.095  0.00  0.00    +0.000 A 
ATOM     13  C   UNL     1      -0.420  10.642  22.260  0.00  0.00    +0.000 A 
ATOM     14  C   UNL     1      -1.288  11.349  23.115  0.00  0.00    +0.000 A 
ATOM     15  C   UNL     1      -1.393  12.736  22.992  0.00  0.00    +0.000 A 
ATOM     16  C   UNL     1      -0.646  13.417  22.031  0.00  0.00    +0.000 A 
ATOM     17  C   UNL     1       0.243  12.733  21.185  0.00  0.00    +0.000 A 
ATOM     18  C   UNL     1       0.343  11.343  21.327  0.00  0.00    +0.000 A 
ATOM     19  N   UNL     1       1.127  10.413  20.665  0.00  0.00    +0.000 N 
ATOM     20  H   UNL     1       1.812  10.628  19.953  0.00  0.00    +0.000 HD
ENDBRANCH   6  11
BRANCH   1  22
ATOM     21  O   UNL     1       3.768   2.325  17.529  0.00  0.00    +0.000 OA
ATOM     22  C   UNL     1       4.104   3.503  17.640  0.00  0.00    +0.000 C 
BRANCH  22  23
ATOM     23  C   UNL     1       5.186   4.036  16.764  0.00  0.00    +0.000 A 
ATOM     24  C   UNL     1       5.044   4.108  15.373  0.00  0.00    +0.000 A 
ATOM     25  C   UNL     1       6.077   4.621  14.586  0.00  0.00    +0.000 A 
ATOM     26  C   UNL     1       7.269   5.036  15.179  0.00  0.00    +0.000 A 
ATOM     27  C   UNL     1       7.436   4.926  16.559  0.00  0.00    +0.000 A 
ATOM     28  C   UNL     1       6.399   4.423  17.350  0.00  0.00    +0.000 A 
ENDBRANCH  22  23
ENDBRANCH   1  22
TORSDOF 3
ENDMDL
MODEL 9
REMARK VINA RESULT:      -8.5      5.615      7.672
REMARK  Name = 
REMARK  3 active torsions:
REMARK  status: ('A' for Active; 'I' for Inactive)
REMARK    1  A    between atoms: C_2  and  C_3
REMARK    2  A    between atoms: C_2  and  C_9
REMARK    3  A    between atoms: C_14  and  C_15
REMARK                            x       y       z     vdW  Elec       q    Type
REMARK                         _______ _______ _______ _____ _____    ______ ____
ROOT
ATOM      1  C   UNL     1       3.394   4.393  18.715  0.00  0.00    +0.000 A 
ATOM      2  C   UNL     1       2.918   3.829  19.907  0.00  0.00    +0.000 A 
ATOM      3  C   UNL     1       2.204   4.588  20.837  0.00  0.00    +0.000 A 
ATOM      4  C   UNL     1       1.998   5.931  20.521  0.00  0.00    +0.000 A 
ATOM      5  N   UNL     1       1.348   6.928  21.191  0.00  0.00    +0.000 N 
ATOM      6  C   UNL     1       1.432   8.087  20.463  0.00  0.00    +0.000 A 
ATOM      7  N   UNL     1       2.107   7.885  19.346  0.00  0.00    +0.000 NA
ATOM      8  C   UNL     1       2.470   6.545  19.366  0.00  0.00    +0.000 A 
ATOM      9  C   UNL     1       3.198   5.766  18.442  0.00  0.00    +0.000 A 
ATOM     10  H   UNL     1       0.877   6.835  22.076  0.00  0.00    +0.000 HD
ENDROOT
BRANCH   6  11
ATOM     11  C   UNL     1       0.834   9.303  20.918  0.00  0.00    +0.000 A 
ATOM     12  C   UNL     1       1.057  10.598  20.486  0.00  0.00    +0.000 A 
ATOM     13  C   UNL     1       0.244  11.475  21.244  0.00  0.00    +0.000 A 
ATOM     14  C   UNL     1       0.053  12.871  21.234  0.00  0.00    +0.000 A 
ATOM     15  C   UNL     1      -0.807  13.452  22.168  0.00  0.00    +0.000 A 
ATOM     16  C   UNL     1      -1.474  12.659  23.102  0.00  0.00    +0.000 A 
ATOM     17  C   UNL     1      -1.317  11.263  23.111  0.00  0.00    +0.000 A 
ATOM     18  C   UNL     1      -0.456  10.695  22.163  0.00  0.00    +0.000 A 
ATOM     19  N   UNL     1      -0.114   9.375  21.917  0.00  0.00    +0.000 N 
ATOM     20  H   UNL     1      -0.492   8.574  22.403  0.00  0.00    +0.000 HD
ENDBRANCH   6  11
BRANCH   1  22
ATOM     21  O   UNL     1       3.820   2.297  17.766  0.00  0.00    +0.000 OA
ATOM     22  C   UNL     1       4.123   3.489  17.785  0.00  0.00    +0.000 C 
BRANCH  22  23
ATOM     23  C   UNL     1       5.177   3.986  16.856  0.00  0.00    +0.000 A 
ATOM     24  C   UNL     1       6.433   4.400  17.315  0.00  0.00    +0.000 A 
ATOM     25  C   UNL     1       7.397   4.853  16.412  0.00  0.00    +0.000 A 
ATOM     26  C   UNL     1       7.103   4.924  15.051  0.00  0.00    +0.000 A 
ATOM     27  C   UNL     1       5.840   4.556  14.590  0.00  0.00    +0.000 A 
ATOM     28  C   UNL     1       4.877   4.092  15.490  0.00  0.00    +0.000 A 
ENDBRANCH  22  23
ENDBRANCH   1  22
TORSDOF 3
ENDMDL
