MODEL 1
REMARK VINA RESULT:      -7.7      0.000      0.000
REMARK  Name = 
REMARK  7 active torsions:
REMARK  status: ('A' for Active; 'I' for Inactive)
REMARK    1  A    between atoms: C_1  and  C_2
REMARK    2  A    between atoms: C_2  and  C_3
REMARK    3  A    between atoms: C_3  and  C_4
REMARK    4  A    between atoms: C_4  and  S_5
REMARK    5  A    between atoms: S_5  and  C_6
REMARK    6  A    between atoms: N_12  and  C_13
REMARK    7  A    between atoms: C_13  and  C_14
REMARK                            x       y       z     vdW  Elec       q    Type
REMARK                         _______ _______ _______ _____ _____    ______ ____
ROOT
ATOM      1  C   UNL     1       6.910   4.776  15.243  0.00  0.00    +0.000 A 
ATOM      2  N   UNL     1       7.473   5.945  15.629  0.00  0.00    +0.000 NA
ATOM      3  C   UNL     1       7.280   6.366  16.907  0.00  0.00    +0.000 A 
ATOM      4  C   UNL     1       6.535   5.582  17.780  0.00  0.00    +0.000 A 
ATOM      5  N   UNL     1       6.179   5.735  19.098  0.00  0.00    +0.000 NA
ATOM      6  C   UNL     1       5.454   4.670  19.378  0.00  0.00    +0.000 A 
ATOM      7  N   UNL     1       5.326   3.837  18.296  0.00  0.00    +0.000 N 
ATOM      8  C   UNL     1       6.019   4.408  17.260  0.00  0.00    +0.000 A 
ATOM      9  N   UNL     1       6.160   3.954  16.002  0.00  0.00    +0.000 NA
ENDROOT
BRANCH   1  10
ATOM     10  S   UNL     1       7.057   4.337  13.525  0.00  0.00    +0.000 S 
BRANCH  10  11
ATOM     11  C   UNL     1       5.361   3.752  13.190  0.00  0.00    +0.000 C 
BRANCH  11  12
ATOM     12  C   UNL     1       5.234   3.426  11.697  0.00  0.00    +0.000 C 
BRANCH  12  14
ATOM     13  C   UNL     1       3.327   3.940  10.121  0.00  0.00    +0.000 C 
ATOM     14  C   UNL     1       3.793   3.089  11.296  0.00  0.00    +0.000 C 
ENDBRANCH  12  14
ENDBRANCH  11  12
ENDBRANCH  10  11
ENDBRANCH   1  10
BRANCH   7  15
ATOM     15  C   UNL     1       4.504   2.641  18.227  0.00  0.00    +0.000 C 
BRANCH  15  16
ATOM     16  C   UNL     1       3.131   2.859  18.794  0.00  0.00    +0.000 A 
ATOM     17  C   UNL     1       2.077   3.295  17.987  0.00  0.00    +0.000 A 
ATOM     18  F   UNL     1       2.300   3.586  16.699  0.00  0.00    +0.000 F 
ATOM     19  C   UNL     1       0.785   3.450  18.488  0.00  0.00    +0.000 A 
ATOM     20  C   UNL     1       0.520   3.164  19.826  0.00  0.00    +0.000 A 
ATOM     21  C   UNL     1       1.562   2.749  20.657  0.00  0.00    +0.000 A 
ATOM     22 CL   UNL     1       1.229   2.387  22.306  0.00  0.00    +0.000 Cl
ATOM     23  C   UNL     1       2.855   2.611  20.142  0.00  0.00    +0.000 A 
ATOM     24  F   UNL     1       3.860   2.236  20.948  0.00  0.00    +0.000 F 
ENDBRANCH  15  16
ENDBRANCH   7  15
TORSDOF 6
ENDMDL
MODEL 2
REMARK VINA RESULT:      -7.6      3.118      3.310
REMARK  Name = 
REMARK  7 active torsions:
REMARK  status: ('A' for Active; 'I' for Inactive)
REMARK    1  A    between atoms: C_1  and  C_2
REMARK    2  A    between atoms: C_2  and  C_3
REMARK    3  A    between atoms: C_3  and  C_4
REMARK    4  A    between atoms: C_4  and  S_5
REMARK    5  A    between atoms: S_5  and  C_6
REMARK    6  A    between atoms: N_12  and  C_13
REMARK    7  A    between atoms: C_13  and  C_14
REMARK                            x       y       z     vdW  Elec       q    Type
REMARK                         _______ _______ _______ _____ _____    ______ ____
ROOT
ATOM      1  C   UNL     1       6.586   4.737  15.585  0.00  0.00    +0.000 A 
ATOM      2  N   UNL     1       7.743   4.574  16.267  0.00  0.00    +0.000 NA
ATOM      3  C   UNL     1       7.706   4.613  17.626  0.00  0.00    +0.000 A 
ATOM      4  C   UNL     1       6.488   4.794  18.271  0.00  0.00    +0.000 A 
ATOM      5  N   UNL     1       6.138   4.871  19.598  0.00  0.00    +0.000 NA
ATOM      6  C   UNL     1       4.834   5.066  19.592  0.00  0.00    +0.000 A 
ATOM      7  N   UNL     1       4.328   5.120  18.319  0.00  0.00    +0.000 N 
ATOM      8  C   UNL     1       5.380   4.943  17.457  0.00  0.00    +0.000 A 
ATOM      9  N   UNL     1       5.362   4.935  16.112  0.00  0.00    +0.000 NA
ENDROOT
BRANCH   1  10
ATOM     10  S   UNL     1       6.699   4.835  13.812  0.00  0.00    +0.000 S 
BRANCH  10  11
ATOM     11  C   UNL     1       5.703   3.380  13.339  0.00  0.00    +0.000 C 
BRANCH  11  12
ATOM     12  C   UNL     1       5.499   3.391  11.819  0.00  0.00    +0.000 C 
BRANCH  12  14
ATOM     13  C   UNL     1       3.497   3.910  10.369  0.00  0.00    +0.000 C 
ATOM     14  C   UNL     1       4.080   2.973  11.420  0.00  0.00    +0.000 C 
ENDBRANCH  12  14
ENDBRANCH  11  12
ENDBRANCH  10  11
ENDBRANCH   1  10
BRANCH   7  15
ATOM     15  C   UNL     1       2.957   5.433  17.953  0.00  0.00    +0.000 C 
BRANCH  15  16
ATOM     16  C   UNL     1       2.537   6.793  18.433  0.00  0.00    +0.000 A 
ATOM     17  C   UNL     1       2.746   7.931  17.650  0.00  0.00    +0.000 A 
ATOM     18  F   UNL     1       3.389   7.827  16.480  0.00  0.00    +0.000 F 
ATOM     19  C   UNL     1       2.312   9.192  18.059  0.00  0.00    +0.000 A 
ATOM     20  C   UNL     1       1.647   9.337  19.275  0.00  0.00    +0.000 A 
ATOM     21  C   UNL     1       1.446   8.218  20.083  0.00  0.00    +0.000 A 
ATOM     22 CL   UNL     1       0.615   8.398  21.579  0.00  0.00    +0.000 Cl
ATOM     23  C   UNL     1       1.900   6.961  19.666  0.00  0.00    +0.000 A 
ATOM     24  F   UNL     1       1.728   5.891  20.456  0.00  0.00    +0.000 F 
ENDBRANCH  15  16
ENDBRANCH   7  15
TORSDOF 6
ENDMDL
MODEL 3
REMARK VINA RESULT:      -7.3      3.355      3.836
REMARK  Name = 
REMARK  7 active torsions:
REMARK  status: ('A' for Active; 'I' for Inactive)
REMARK    1  A    between atoms: C_1  and  C_2
REMARK    2  A    between atoms: C_2  and  C_3
REMARK    3  A    between atoms: C_3  and  C_4
REMARK    4  A    between atoms: C_4  and  S_5
REMARK    5  A    between atoms: S_5  and  C_6
REMARK    6  A    between atoms: N_12  and  C_13
REMARK    7  A    between atoms: C_13  and  C_14
REMARK                            x       y       z     vdW  Elec       q    Type
REMARK                         _______ _______ _______ _____ _____    ______ ____
ROOT
ATOM      1  C   UNL     1       6.667   4.832  15.742  0.00  0.00    +0.000 A 
ATOM      2  N   UNL     1       7.799   4.658  16.463  0.00  0.00    +0.000 NA
ATOM      3  C   UNL     1       7.705   4.622  17.819  0.00  0.00    +0.000 A 
ATOM      4  C   UNL     1       6.457   4.741  18.420  0.00  0.00    +0.000 A 
ATOM      5  N   UNL     1       6.051   4.739  19.733  0.00  0.00    +0.000 NA
ATOM      6  C   UNL     1       4.744   4.905  19.682  0.00  0.00    +0.000 A 
ATOM      7  N   UNL     1       4.290   5.016  18.393  0.00  0.00    +0.000 N 
ATOM      8  C   UNL     1       5.380   4.910  17.568  0.00  0.00    +0.000 A 
ATOM      9  N   UNL     1       5.418   4.974  16.225  0.00  0.00    +0.000 NA
ENDROOT
BRANCH   1  10
ATOM     10  S   UNL     1       6.852   5.027  13.983  0.00  0.00    +0.000 S 
BRANCH  10  11
ATOM     11  C   UNL     1       5.826   3.639  13.389  0.00  0.00    +0.000 C 
BRANCH  11  12
ATOM     12  C   UNL     1       6.371   3.161  12.037  0.00  0.00    +0.000 C 
BRANCH  12  14
ATOM     13  C   UNL     1       6.326   0.843  11.034  0.00  0.00    +0.000 C 
ATOM     14  C   UNL     1       5.499   2.066  11.414  0.00  0.00    +0.000 C 
ENDBRANCH  12  14
ENDBRANCH  11  12
ENDBRANCH  10  11
ENDBRANCH   1  10
BRANCH   7  15
ATOM     15  C   UNL     1       2.928   5.318  17.986  0.00  0.00    +0.000 C 
BRANCH  15  16
ATOM     16  C   UNL     1       2.362   6.497  18.723  0.00  0.00    +0.000 A 
ATOM     17  C   UNL     1       1.828   6.358  20.007  0.00  0.00    +0.000 A 
ATOM     18  F   UNL     1       1.757   5.146  20.571  0.00  0.00    +0.000 F 
ATOM     19  C   UNL     1       1.348   7.453  20.725  0.00  0.00    +0.000 A 
ATOM     20  C   UNL     1       1.399   8.728  20.163  0.00  0.00    +0.000 A 
ATOM     21  C   UNL     1       1.907   8.888  18.873  0.00  0.00    +0.000 A 
ATOM     22 CL   UNL     1       1.978  10.464  18.186  0.00  0.00    +0.000 Cl
ATOM     23  C   UNL     1       2.372   7.777  18.161  0.00  0.00    +0.000 A 
ATOM     24  F   UNL     1       2.838   7.930  16.912  0.00  0.00    +0.000 F 
ENDBRANCH  15  16
ENDBRANCH   7  15
TORSDOF 6
ENDMDL
MODEL 4
REMARK VINA RESULT:      -7.3      4.220      5.871
REMARK  Name = 
REMARK  7 active torsions:
REMARK  status: ('A' for Active; 'I' for Inactive)
REMARK    1  A    between atoms: C_1  and  C_2
REMARK    2  A    between atoms: C_2  and  C_3
REMARK    3  A    between atoms: C_3  and  C_4
REMARK    4  A    between atoms: C_4  and  S_5
REMARK    5  A    between atoms: S_5  and  C_6
REMARK    6  A    between atoms: N_12  and  C_13
REMARK    7  A    between atoms: C_13  and  C_14
REMARK                            x       y       z     vdW  Elec       q    Type
REMARK                         _______ _______ _______ _____ _____    ______ ____
ROOT
ATOM      1  C   UNL     1       3.892   3.891  17.106  0.00  0.00    +0.000 A 
ATOM      2  N   UNL     1       3.179   2.741  17.063  0.00  0.00    +0.000 NA
ATOM      3  C   UNL     1       2.163   2.575  17.951  0.00  0.00    +0.000 A 
ATOM      4  C   UNL     1       1.872   3.590  18.854  0.00  0.00    +0.000 A 
ATOM      5  N   UNL     1       0.928   3.714  19.845  0.00  0.00    +0.000 NA
ATOM      6  C   UNL     1       1.153   4.899  20.378  0.00  0.00    +0.000 A 
ATOM      7  N   UNL     1       2.202   5.544  19.776  0.00  0.00    +0.000 N 
ATOM      8  C   UNL     1       2.674   4.715  18.790  0.00  0.00    +0.000 A 
ATOM      9  N   UNL     1       3.703   4.924  17.949  0.00  0.00    +0.000 NA
ENDROOT
BRANCH   1  10
ATOM     10  S   UNL     1       5.307   4.005  16.034  0.00  0.00    +0.000 S 
BRANCH  10  11
ATOM     11  C   UNL     1       6.567   4.596  17.215  0.00  0.00    +0.000 C 
BRANCH  11  12
ATOM     12  C   UNL     1       6.964   6.030  16.842  0.00  0.00    +0.000 C 
BRANCH  12  14
ATOM     13  C   UNL     1       7.877   8.239  17.659  0.00  0.00    +0.000 C 
ATOM     14  C   UNL     1       7.563   6.794  18.028  0.00  0.00    +0.000 C 
ENDBRANCH  12  14
ENDBRANCH  11  12
ENDBRANCH  10  11
ENDBRANCH   1  10
BRANCH   7  15
ATOM     15  C   UNL     1       2.783   6.809  20.190  0.00  0.00    +0.000 C 
BRANCH  15  16
ATOM     16  C   UNL     1       1.955   7.985  19.758  0.00  0.00    +0.000 A 
ATOM     17  C   UNL     1       1.950   8.417  18.429  0.00  0.00    +0.000 A 
ATOM     18  F   UNL     1       2.744   7.819  17.532  0.00  0.00    +0.000 F 
ATOM     19  C   UNL     1       1.145   9.472  18.004  0.00  0.00    +0.000 A 
ATOM     20  C   UNL     1       0.314  10.122  18.914  0.00  0.00    +0.000 A 
ATOM     21  C   UNL     1       0.318   9.723  20.251  0.00  0.00    +0.000 A 
ATOM     22 CL   UNL     1      -0.718  10.520  21.370  0.00  0.00    +0.000 Cl
ATOM     23  C   UNL     1       1.142   8.671  20.665  0.00  0.00    +0.000 A 
ATOM     24  F   UNL     1       1.162   8.305  21.956  0.00  0.00    +0.000 F 
ENDBRANCH  15  16
ENDBRANCH   7  15
TORSDOF 6
ENDMDL
MODEL 5
REMARK VINA RESULT:      -7.2      1.323      1.370
REMARK  Name = 
REMARK  7 active torsions:
REMARK  status: ('A' for Active; 'I' for Inactive)
REMARK    1  A    between atoms: C_1  and  C_2
REMARK    2  A    between atoms: C_2  and  C_3
REMARK    3  A    between atoms: C_3  and  C_4
REMARK    4  A    between atoms: C_4  and  S_5
REMARK    5  A    between atoms: S_5  and  C_6
REMARK    6  A    between atoms: N_12  and  C_13
REMARK    7  A    between atoms: C_13  and  C_14
REMARK                            x       y       z     vdW  Elec       q    Type
REMARK                         _______ _______ _______ _____ _____    ______ ____
ROOT
ATOM      1  C   UNL     1       6.125   4.736  15.212  0.00  0.00    +0.000 A 
ATOM      2  N   UNL     1       7.426   4.580  15.551  0.00  0.00    +0.000 NA
ATOM      3  C   UNL     1       7.766   4.641  16.865  0.00  0.00    +0.000 A 
ATOM      4  C   UNL     1       6.774   4.839  17.819  0.00  0.00    +0.000 A 
ATOM      5  N   UNL     1       6.805   4.940  19.189  0.00  0.00    +0.000 NA
ATOM      6  C   UNL     1       5.550   5.141  19.541  0.00  0.00    +0.000 A 
ATOM      7  N   UNL     1       4.711   5.176  18.456  0.00  0.00    +0.000 N 
ATOM      8  C   UNL     1       5.484   4.979  17.340  0.00  0.00    +0.000 A 
ATOM      9  N   UNL     1       5.095   4.949  16.053  0.00  0.00    +0.000 NA
ENDROOT
BRANCH   1  10
ATOM     10  S   UNL     1       5.744   4.803  13.476  0.00  0.00    +0.000 S 
BRANCH  10  11
ATOM     11  C   UNL     1       6.278   3.137  12.958  0.00  0.00    +0.000 C 
BRANCH  11  12
ATOM     12  C   UNL     1       5.427   2.690  11.763  0.00  0.00    +0.000 C 
BRANCH  12  14
ATOM     13  C   UNL     1       3.299   3.072  10.455  0.00  0.00    +0.000 C 
ATOM     14  C   UNL     1       4.255   3.641  11.497  0.00  0.00    +0.000 C 
ENDBRANCH  12  14
ENDBRANCH  11  12
ENDBRANCH  10  11
ENDBRANCH   1  10
BRANCH   7  15
ATOM     15  C   UNL     1       3.293   5.489  18.479  0.00  0.00    +0.000 C 
BRANCH  15  16
ATOM     16  C   UNL     1       2.456   4.314  18.897  0.00  0.00    +0.000 A 
ATOM     17  C   UNL     1       1.970   3.403  17.958  0.00  0.00    +0.000 A 
ATOM     18  F   UNL     1       2.193   3.607  16.653  0.00  0.00    +0.000 F 
ATOM     19  C   UNL     1       1.238   2.278  18.337  0.00  0.00    +0.000 A 
ATOM     20  C   UNL     1       0.979   2.041  19.686  0.00  0.00    +0.000 A 
ATOM     21  C   UNL     1       1.436   2.950  20.641  0.00  0.00    +0.000 A 
ATOM     22 CL   UNL     1       1.125   2.649  22.306  0.00  0.00    +0.000 Cl
ATOM     23  C   UNL     1       2.158   4.081  20.243  0.00  0.00    +0.000 A 
ATOM     24  F   UNL     1       2.575   4.966  21.161  0.00  0.00    +0.000 F 
ENDBRANCH  15  16
ENDBRANCH   7  15
TORSDOF 6
ENDMDL
MODEL 6
REMARK VINA RESULT:      -7.2      1.125      1.143
REMARK  Name = 
REMARK  7 active torsions:
REMARK  status: ('A' for Active; 'I' for Inactive)
REMARK    1  A    between atoms: C_1  and  C_2
REMARK    2  A    between atoms: C_2  and  C_3
REMARK    3  A    between atoms: C_3  and  C_4
REMARK    4  A    between atoms: C_4  and  S_5
REMARK    5  A    between atoms: S_5  and  C_6
REMARK    6  A    between atoms: N_12  and  C_13
REMARK    7  A    between atoms: C_13  and  C_14
REMARK                            x       y       z     vdW  Elec       q    Type
REMARK                         _______ _______ _______ _____ _____    ______ ____
ROOT
ATOM      1  C   UNL     1       6.682   4.341  14.255  0.00  0.00    +0.000 A 
ATOM      2  N   UNL     1       7.600   5.296  14.533  0.00  0.00    +0.000 NA
ATOM      3  C   UNL     1       7.633   5.816  15.788  0.00  0.00    +0.000 A 
ATOM      4  C   UNL     1       6.748   5.341  16.749  0.00  0.00    +0.000 A 
ATOM      5  N   UNL     1       6.547   5.659  18.071  0.00  0.00    +0.000 NA
ATOM      6  C   UNL     1       5.554   4.883  18.457  0.00  0.00    +0.000 A 
ATOM      7  N   UNL     1       5.103   4.079  17.441  0.00  0.00    +0.000 N 
ATOM      8  C   UNL     1       5.864   4.360  16.335  0.00  0.00    +0.000 A 
ATOM      9  N   UNL     1       5.772   3.826  15.104  0.00  0.00    +0.000 NA
ENDROOT
BRANCH   1  10
ATOM     10  S   UNL     1       6.569   3.798  12.564  0.00  0.00    +0.000 S 
BRANCH  10  11
ATOM     11  C   UNL     1       4.775   3.480  12.441  0.00  0.00    +0.000 C 
BRANCH  11  12
ATOM     12  C   UNL     1       4.484   2.786  11.105  0.00  0.00    +0.000 C 
BRANCH  12  14
ATOM     13  C   UNL     1       3.074   4.299   9.655  0.00  0.00    +0.000 C 
ATOM     14  C   UNL     1       3.075   3.092  10.586  0.00  0.00    +0.000 C 
ENDBRANCH  12  14
ENDBRANCH  11  12
ENDBRANCH  10  11
ENDBRANCH   1  10
BRANCH   7  15
ATOM     15  C   UNL     1       3.954   3.193  17.494  0.00  0.00    +0.000 C 
BRANCH  15  16
ATOM     16  C   UNL     1       3.000   3.562  18.593  0.00  0.00    +0.000 A 
ATOM     17  C   UNL     1       2.157   4.670  18.477  0.00  0.00    +0.000 A 
ATOM     18  F   UNL     1       2.240   5.460  17.399  0.00  0.00    +0.000 F 
ATOM     19  C   UNL     1       1.229   4.992  19.466  0.00  0.00    +0.000 A 
ATOM     20  C   UNL     1       1.123   4.197  20.605  0.00  0.00    +0.000 A 
ATOM     21  C   UNL     1       1.969   3.098  20.753  0.00  0.00    +0.000 A 
ATOM     22 CL   UNL     1       1.829   2.110  22.156  0.00  0.00    +0.000 Cl
ATOM     23  C   UNL     1       2.905   2.794  19.758  0.00  0.00    +0.000 A 
ATOM     24  F   UNL     1       3.735   1.752  19.914  0.00  0.00    +0.000 F 
ENDBRANCH  15  16
ENDBRANCH   7  15
TORSDOF 6
ENDMDL
MODEL 7
REMARK VINA RESULT:      -7.1      1.579      1.875
REMARK  Name = 
REMARK  7 active torsions:
REMARK  status: ('A' for Active; 'I' for Inactive)
REMARK    1  A    between atoms: C_1  and  C_2
REMARK    2  A    between atoms: C_2  and  C_3
REMARK    3  A    between atoms: C_3  and  C_4
REMARK    4  A    between atoms: C_4  and  S_5
REMARK    5  A    between atoms: S_5  and  C_6
REMARK    6  A    between atoms: N_12  and  C_13
REMARK    7  A    between atoms: C_13  and  C_14
REMARK                            x       y       z     vdW  Elec       q    Type
REMARK                         _______ _______ _______ _____ _____    ______ ____
ROOT
ATOM      1  C   UNL     1       5.797   4.531  15.228  0.00  0.00    +0.000 A 
ATOM      2  N   UNL     1       7.117   4.353  15.463  0.00  0.00    +0.000 NA
ATOM      3  C   UNL     1       7.575   4.508  16.734  0.00  0.00    +0.000 A 
ATOM      4  C   UNL     1       6.680   4.818  17.750  0.00  0.00    +0.000 A 
ATOM      5  N   UNL     1       6.836   5.028  19.100  0.00  0.00    +0.000 NA
ATOM      6  C   UNL     1       5.625   5.303  19.541  0.00  0.00    +0.000 A 
ATOM      7  N   UNL     1       4.693   5.282  18.534  0.00  0.00    +0.000 N 
ATOM      8  C   UNL     1       5.356   4.968  17.376  0.00  0.00    +0.000 A 
ATOM      9  N   UNL     1       4.852   4.849  16.134  0.00  0.00    +0.000 NA
ENDROOT
BRANCH   1  10
ATOM     10  S   UNL     1       5.263   4.472  13.531  0.00  0.00    +0.000 S 
BRANCH  10  11
ATOM     11  C   UNL     1       6.536   3.371  12.825  0.00  0.00    +0.000 C 
BRANCH  11  12
ATOM     12  C   UNL     1       5.933   2.612  11.637  0.00  0.00    +0.000 C 
BRANCH  12  14
ATOM     13  C   UNL     1       6.127   0.128  11.218  0.00  0.00    +0.000 C 
ATOM     14  C   UNL     1       6.839   1.474  11.154  0.00  0.00    +0.000 C 
ENDBRANCH  12  14
ENDBRANCH  11  12
ENDBRANCH  10  11
ENDBRANCH   1  10
BRANCH   7  15
ATOM     15  C   UNL     1       3.293   5.649  18.654  0.00  0.00    +0.000 C 
BRANCH  15  16
ATOM     16  C   UNL     1       2.425   4.478  19.013  0.00  0.00    +0.000 A 
ATOM     17  C   UNL     1       1.819   3.698  18.026  0.00  0.00    +0.000 A 
ATOM     18  F   UNL     1       1.955   4.032  16.736  0.00  0.00    +0.000 F 
ATOM     19  C   UNL     1       1.055   2.575  18.343  0.00  0.00    +0.000 A 
ATOM     20  C   UNL     1       0.885   2.205  19.676  0.00  0.00    +0.000 A 
ATOM     21  C   UNL     1       1.464   2.982  20.681  0.00  0.00    +0.000 A 
ATOM     22 CL   UNL     1       1.262   2.516  22.325  0.00  0.00    +0.000 Cl
ATOM     23  C   UNL     1       2.216   4.113  20.347  0.00  0.00    +0.000 A 
ATOM     24  F   UNL     1       2.750   4.872  21.315  0.00  0.00    +0.000 F 
ENDBRANCH  15  16
ENDBRANCH   7  15
TORSDOF 6
ENDMDL
MODEL 8
REMARK VINA RESULT:      -7.0      2.978      5.205
REMARK  Name = 
REMARK  7 active torsions:
REMARK  status: ('A' for Active; 'I' for Inactive)
REMARK    1  A    between atoms: C_1  and  C_2
REMARK    2  A    between atoms: C_2  and  C_3
REMARK    3  A    between atoms: C_3  and  C_4
REMARK    4  A    between atoms: C_4  and  S_5
REMARK    5  A    between atoms: S_5  and  C_6
REMARK    6  A    between atoms: N_12  and  C_13
REMARK    7  A    between atoms: C_13  and  C_14
REMARK                            x       y       z     vdW  Elec       q    Type
REMARK                         _______ _______ _______ _____ _____    ______ ____
ROOT
ATOM      1  C   UNL     1       7.331   6.530  17.776  0.00  0.00    +0.000 A 
ATOM      2  N   UNL     1       7.477   6.699  16.441  0.00  0.00    +0.000 NA
ATOM      3  C   UNL     1       6.787   5.880  15.605  0.00  0.00    +0.000 A 
ATOM      4  C   UNL     1       5.941   4.915  16.138  0.00  0.00    +0.000 A 
ATOM      5  N   UNL     1       5.129   3.966  15.564  0.00  0.00    +0.000 NA
ATOM      6  C   UNL     1       4.581   3.331  16.581  0.00  0.00    +0.000 A 
ATOM      7  N   UNL     1       5.006   3.827  17.787  0.00  0.00    +0.000 N 
ATOM      8  C   UNL     1       5.879   4.850  17.519  0.00  0.00    +0.000 A 
ATOM      9  N   UNL     1       6.554   5.618  18.392  0.00  0.00    +0.000 NA
ENDROOT
BRANCH   1  10
ATOM     10  S   UNL     1       8.367   7.517  18.834  0.00  0.00    +0.000 S 
BRANCH  10  11
ATOM     11  C   UNL     1       8.252   9.132  17.991  0.00  0.00    +0.000 C 
BRANCH  11  12
ATOM     12  C   UNL     1       9.058  10.166  18.787  0.00  0.00    +0.000 C 
BRANCH  12  14
ATOM     13  C   UNL     1      10.636  11.837  17.738  0.00  0.00    +0.000 C 
ATOM     14  C   UNL     1       9.181  11.502  18.047  0.00  0.00    +0.000 C 
ENDBRANCH  12  14
ENDBRANCH  11  12
ENDBRANCH  10  11
ENDBRANCH   1  10
BRANCH   7  15
ATOM     15  C   UNL     1       4.688   3.286  19.097  0.00  0.00    +0.000 C 
BRANCH  15  16
ATOM     16  C   UNL     1       3.296   3.640  19.537  0.00  0.00    +0.000 A 
ATOM     17  C   UNL     1       2.278   2.683  19.552  0.00  0.00    +0.000 A 
ATOM     18  F   UNL     1       2.522   1.444  19.108  0.00  0.00    +0.000 F 
ATOM     19  C   UNL     1       0.996   2.984  20.010  0.00  0.00    +0.000 A 
ATOM     20  C   UNL     1       0.706   4.266  20.471  0.00  0.00    +0.000 A 
ATOM     21  C   UNL     1       1.701   5.244  20.444  0.00  0.00    +0.000 A 
ATOM     22 CL   UNL     1       1.343   6.825  21.024  0.00  0.00    +0.000 Cl
ATOM     23  C   UNL     1       2.979   4.931  19.970  0.00  0.00    +0.000 A 
ATOM     24  F   UNL     1       3.927   5.879  19.922  0.00  0.00    +0.000 F 
ENDBRANCH  15  16
ENDBRANCH   7  15
TORSDOF 6
ENDMDL
MODEL 9
REMARK VINA RESULT:      -7.0      1.733      2.268
REMARK  Name = 
REMARK  7 active torsions:
REMARK  status: ('A' for Active; 'I' for Inactive)
REMARK    1  A    between atoms: C_1  and  C_2
REMARK    2  A    between atoms: C_2  and  C_3
REMARK    3  A    between atoms: C_3  and  C_4
REMARK    4  A    between atoms: C_4  and  S_5
REMARK    5  A    between atoms: S_5  and  C_6
REMARK    6  A    between atoms: N_12  and  C_13
REMARK    7  A    between atoms: C_13  and  C_14
REMARK                            x       y       z     vdW  Elec       q    Type
REMARK                         _______ _______ _______ _____ _____    ______ ____
ROOT
ATOM      1  C   UNL     1       6.422   4.069  13.968  0.00  0.00    +0.000 A 
ATOM      2  N   UNL     1       7.416   4.975  14.122  0.00  0.00    +0.000 NA
ATOM      3  C   UNL     1       7.473   5.684  15.280  0.00  0.00    +0.000 A 
ATOM      4  C   UNL     1       6.532   5.446  16.274  0.00  0.00    +0.000 A 
ATOM      5  N   UNL     1       6.337   5.987  17.523  0.00  0.00    +0.000 NA
ATOM      6  C   UNL     1       5.271   5.371  17.995  0.00  0.00    +0.000 A 
ATOM      7  N   UNL     1       4.769   4.457  17.104  0.00  0.00    +0.000 N 
ATOM      8  C   UNL     1       5.571   4.491  15.993  0.00  0.00    +0.000 A 
ATOM      9  N   UNL     1       5.454   3.777  14.859  0.00  0.00    +0.000 NA
ENDROOT
BRANCH   1  10
ATOM     10  S   UNL     1       6.290   3.274  12.382  0.00  0.00    +0.000 S 
BRANCH  10  11
ATOM     11  C   UNL     1       4.516   3.529  12.034  0.00  0.00    +0.000 C 
BRANCH  11  12
ATOM     12  C   UNL     1       4.335   3.772  10.531  0.00  0.00    +0.000 C 
BRANCH  12  14
ATOM     13  C   UNL     1       2.411   4.707   9.187  0.00  0.00    +0.000 C 
ATOM     14  C   UNL     1       2.885   3.566  10.079  0.00  0.00    +0.000 C 
ENDBRANCH  12  14
ENDBRANCH  11  12
ENDBRANCH  10  11
ENDBRANCH   1  10
BRANCH   7  15
ATOM     15  C   UNL     1       3.544   3.692  17.260  0.00  0.00    +0.000 C 
BRANCH  15  16
ATOM     16  C   UNL     1       2.995   3.772  18.655  0.00  0.00    +0.000 A 
ATOM     17  C   UNL     1       3.189   2.732  19.568  0.00  0.00    +0.000 A 
ATOM     18  F   UNL     1       3.818   1.614  19.182  0.00  0.00    +0.000 F 
ATOM     19  C   UNL     1       2.733   2.816  20.883  0.00  0.00    +0.000 A 
ATOM     20  C   UNL     1       2.067   3.961  21.315  0.00  0.00    +0.000 A 
ATOM     21  C   UNL     1       1.842   5.003  20.415  0.00  0.00    +0.000 A 
ATOM     22 CL   UNL     1       1.029   6.421  20.954  0.00  0.00    +0.000 Cl
ATOM     23  C   UNL     1       2.295   4.899  19.095  0.00  0.00    +0.000 A 
ATOM     24  F   UNL     1       2.056   5.891  18.225  0.00  0.00    +0.000 F 
ENDBRANCH  15  16
ENDBRANCH   7  15
TORSDOF 6
ENDMDL
