MODEL 1
REMARK VINA RESULT:      -7.0      0.000      0.000
REMARK  Name = 
REMARK  6 active torsions:
REMARK  status: ('A' for Active; 'I' for Inactive)
REMARK    1  A    between atoms: C_1  and  C_2
REMARK    2  A    between atoms: C_2  and  C_3
REMARK    3  A    between atoms: C_2  and  C_4
REMARK    4  A    between atoms: C_4  and  C_5
REMARK    5  A    between atoms: C_15  and  N_16
REMARK    6  A    between atoms: N_16  and  C_17
REMARK                            x       y       z     vdW  Elec       q    Type
REMARK                         _______ _______ _______ _____ _____    ______ ____
ROOT
ATOM      1  C   UNL     1       2.909   6.814  18.516  0.00  0.00    +0.000 A 
ATOM      2  N   UNL     1       2.574   8.104  18.159  0.00  0.00    +0.000 NA
ATOM      3  C   UNL     1       1.955   8.637  19.188  0.00  0.00    +0.000 A 
ATOM      4  C   UNL     1       1.359   9.923  19.380  0.00  0.00    +0.000 A 
ATOM      5 BR   UNL     1       1.587  11.214  18.054  0.00  0.00    +0.000 Br
ATOM      6  C   UNL     1       0.652  10.173  20.503  0.00  0.00    +0.000 A 
ATOM      7  C   UNL     1       0.488   9.163  21.534  0.00  0.00    +0.000 A 
ATOM      8 BR   UNL     1      -0.553   9.573  23.022  0.00  0.00    +0.000 Br
ATOM      9  C   UNL     1       1.087   7.973  21.378  0.00  0.00    +0.000 A 
ATOM     10  N   UNL     1       1.831   7.716  20.220  0.00  0.00    +0.000 N 
ATOM     11  C   UNL     1       2.541   6.571  19.845  0.00  0.00    +0.000 A 
ENDROOT
BRANCH  11  12
ATOM     12  N   UNL     1       2.616   5.512  20.717  0.00  0.00    +0.000 N 
ATOM     13  H   UNL     1       3.539   5.134  20.908  0.00  0.00    +0.000 HD
BRANCH  12  14
ATOM     14  C   UNL     1       1.594   4.464  20.880  0.00  0.00    +0.000 C 
ATOM     15  C   UNL     1       0.966   3.978  19.567  0.00  0.00    +0.000 C 
ATOM     16  C   UNL     1       1.925   3.182  18.678  0.00  0.00    +0.000 C 
ATOM     17  C   UNL     1       2.559   2.007  19.410  0.00  0.00    +0.000 C 
ATOM     18  C   UNL     1       3.211   2.441  20.713  0.00  0.00    +0.000 C 
ATOM     19  C   UNL     1       2.241   3.247  21.601  0.00  0.00    +0.000 C 
ENDBRANCH  12  14
ENDBRANCH  11  12
BRANCH   1  20
ATOM     20  C   UNL     1       3.328   5.880  17.421  0.00  0.00    +0.000 C 
BRANCH  20  22
ATOM     21  C   UNL     1       5.387   4.789  18.624  0.00  0.00    +0.000 C 
ATOM     22  C   UNL     1       4.800   5.401  17.346  0.00  0.00    +0.000 C 
ATOM     23  C   UNL     1       5.070   4.483  16.156  0.00  0.00    +0.000 C 
ENDBRANCH  20  22
ENDBRANCH   1  20
TORSDOF 4
ENDMDL
MODEL 2
REMARK VINA RESULT:      -6.6      1.100      4.211
REMARK  Name = 
REMARK  6 active torsions:
REMARK  status: ('A' for Active; 'I' for Inactive)
REMARK    1  A    between atoms: C_1  and  C_2
REMARK    2  A    between atoms: C_2  and  C_3
REMARK    3  A    between atoms: C_2  and  C_4
REMARK    4  A    between atoms: C_4  and  C_5
REMARK    5  A    between atoms: C_15  and  N_16
REMARK    6  A    between atoms: N_16  and  C_17
REMARK                            x       y       z     vdW  Elec       q    Type
REMARK                         _______ _______ _______ _____ _____    ______ ____
ROOT
ATOM      1  C   UNL     1       2.288   5.890  20.066  0.00  0.00    +0.000 A 
ATOM      2  N   UNL     1       1.464   6.667  20.853  0.00  0.00    +0.000 NA
ATOM      3  C   UNL     1       1.386   7.846  20.279  0.00  0.00    +0.000 A 
ATOM      4  C   UNL     1       0.710   9.048  20.658  0.00  0.00    +0.000 A 
ATOM      5 BR   UNL     1      -0.433   8.997  22.130  0.00  0.00    +0.000 Br
ATOM      6  C   UNL     1       0.911  10.180  19.951  0.00  0.00    +0.000 A 
ATOM      7  C   UNL     1       1.797  10.207  18.800  0.00  0.00    +0.000 A 
ATOM      8 BR   UNL     1       2.063  11.826  17.920  0.00  0.00    +0.000 Br
ATOM      9  C   UNL     1       2.394   9.070  18.414  0.00  0.00    +0.000 A 
ATOM     10  N   UNL     1       2.177   7.891  19.138  0.00  0.00    +0.000 N 
ATOM     11  C   UNL     1       2.677   6.602  18.925  0.00  0.00    +0.000 A 
ENDROOT
BRANCH  11  12
ATOM     12  N   UNL     1       3.461   6.360  17.824  0.00  0.00    +0.000 N 
ATOM     13  H   UNL     1       3.012   5.935  17.019  0.00  0.00    +0.000 HD
BRANCH  12  14
ATOM     14  C   UNL     1       4.890   6.005  17.854  0.00  0.00    +0.000 C 
ATOM     15  C   UNL     1       5.171   4.497  17.836  0.00  0.00    +0.000 C 
ATOM     16  C   UNL     1       4.828   3.817  16.509  0.00  0.00    +0.000 C 
ATOM     17  C   UNL     1       5.509   4.480  15.320  0.00  0.00    +0.000 C 
ATOM     18  C   UNL     1       5.246   5.978  15.283  0.00  0.00    +0.000 C 
ATOM     19  C   UNL     1       5.590   6.655  16.626  0.00  0.00    +0.000 C 
ENDBRANCH  12  14
ENDBRANCH  11  12
BRANCH   1  20
ATOM     20  C   UNL     1       2.807   4.613  20.657  0.00  0.00    +0.000 C 
BRANCH  20  22
ATOM     21  C   UNL     1       1.387   2.639  21.640  0.00  0.00    +0.000 C 
ATOM     22  C   UNL     1       2.039   3.289  20.413  0.00  0.00    +0.000 C 
ATOM     23  C   UNL     1       1.025   3.387  19.275  0.00  0.00    +0.000 C 
ENDBRANCH  20  22
ENDBRANCH   1  20
TORSDOF 4
ENDMDL
MODEL 3
REMARK VINA RESULT:      -6.6      0.750      1.038
REMARK  Name = 
REMARK  6 active torsions:
REMARK  status: ('A' for Active; 'I' for Inactive)
REMARK    1  A    between atoms: C_1  and  C_2
REMARK    2  A    between atoms: C_2  and  C_3
REMARK    3  A    between atoms: C_2  and  C_4
REMARK    4  A    between atoms: C_4  and  C_5
REMARK    5  A    between atoms: C_15  and  N_16
REMARK    6  A    between atoms: N_16  and  C_17
REMARK                            x       y       z     vdW  Elec       q    Type
REMARK                         _______ _______ _______ _____ _____    ______ ____
ROOT
ATOM      1  C   UNL     1       3.497   6.730  18.139  0.00  0.00    +0.000 A 
ATOM      2  N   UNL     1       3.059   8.001  17.831  0.00  0.00    +0.000 NA
ATOM      3  C   UNL     1       2.334   8.412  18.846  0.00  0.00    +0.000 A 
ATOM      4  C   UNL     1       1.606   9.623  19.069  0.00  0.00    +0.000 A 
ATOM      5 BR   UNL     1       1.781  11.006  17.831  0.00  0.00    +0.000 Br
ATOM      6  C   UNL     1       0.815   9.738  20.158  0.00  0.00    +0.000 A 
ATOM      7  C   UNL     1       0.691   8.658  21.121  0.00  0.00    +0.000 A 
ATOM      8 BR   UNL     1      -0.468   8.879  22.561  0.00  0.00    +0.000 Br
ATOM      9  C   UNL     1       1.411   7.541  20.939  0.00  0.00    +0.000 A 
ATOM     10  N   UNL     1       2.242   7.424  19.818  0.00  0.00    +0.000 N 
ATOM     11  C   UNL     1       3.079   6.375  19.427  0.00  0.00    +0.000 A 
ENDROOT
BRANCH  11  12
ATOM     12  N   UNL     1       3.208   5.278  20.244  0.00  0.00    +0.000 N 
ATOM     13  H   UNL     1       4.133   4.868  20.327  0.00  0.00    +0.000 HD
BRANCH  12  14
ATOM     14  C   UNL     1       2.175   4.251  20.465  0.00  0.00    +0.000 C 
ATOM     15  C   UNL     1       1.211   4.054  19.288  0.00  0.00    +0.000 C 
ATOM     16  C   UNL     1       1.859   3.419  18.055  0.00  0.00    +0.000 C 
ATOM     17  C   UNL     1       2.556   2.103  18.374  0.00  0.00    +0.000 C 
ATOM     18  C   UNL     1       3.537   2.250  19.527  0.00  0.00    +0.000 C 
ATOM     19  C   UNL     1       2.878   2.896  20.764  0.00  0.00    +0.000 C 
ENDBRANCH  12  14
ENDBRANCH  11  12
BRANCH   1  20
ATOM     20  C   UNL     1       4.067   5.906  17.023  0.00  0.00    +0.000 C 
BRANCH  20  22
ATOM     21  C   UNL     1       5.455   3.833  16.214  0.00  0.00    +0.000 C 
ATOM     22  C   UNL     1       5.133   4.826  17.337  0.00  0.00    +0.000 C 
ATOM     23  C   UNL     1       6.426   5.409  17.903  0.00  0.00    +0.000 C 
ENDBRANCH  20  22
ENDBRANCH   1  20
TORSDOF 4
ENDMDL
MODEL 4
REMARK VINA RESULT:      -6.5      5.219      7.225
REMARK  Name = 
REMARK  6 active torsions:
REMARK  status: ('A' for Active; 'I' for Inactive)
REMARK    1  A    between atoms: C_1  and  C_2
REMARK    2  A    between atoms: C_2  and  C_3
REMARK    3  A    between atoms: C_2  and  C_4
REMARK    4  A    between atoms: C_4  and  C_5
REMARK    5  A    between atoms: C_15  and  N_16
REMARK    6  A    between atoms: N_16  and  C_17
REMARK                            x       y       z     vdW  Elec       q    Type
REMARK                         _______ _______ _______ _____ _____    ______ ____
ROOT
ATOM      1  C   UNL     1       6.961   4.702  16.472  0.00  0.00    +0.000 A 
ATOM      2  N   UNL     1       7.686   5.134  15.381  0.00  0.00    +0.000 NA
ATOM      3  C   UNL     1       6.994   4.815  14.311  0.00  0.00    +0.000 A 
ATOM      4  C   UNL     1       7.264   4.982  12.916  0.00  0.00    +0.000 A 
ATOM      5 BR   UNL     1       8.766   5.966  12.414  0.00  0.00    +0.000 Br
ATOM      6  C   UNL     1       6.436   4.430  12.003  0.00  0.00    +0.000 A 
ATOM      7  C   UNL     1       5.264   3.672  12.404  0.00  0.00    +0.000 A 
ATOM      8 BR   UNL     1       4.212   2.895  11.080  0.00  0.00    +0.000 Br
ATOM      9  C   UNL     1       4.982   3.556  13.710  0.00  0.00    +0.000 A 
ATOM     10  N   UNL     1       5.832   4.138  14.659  0.00  0.00    +0.000 N 
ATOM     11  C   UNL     1       5.740   4.156  16.054  0.00  0.00    +0.000 A 
ENDROOT
BRANCH  11  12
ATOM     12  N   UNL     1       4.649   3.587  16.663  0.00  0.00    +0.000 N 
ATOM     13  H   UNL     1       3.807   3.485  16.104  0.00  0.00    +0.000 HD
BRANCH  12  14
ATOM     14  C   UNL     1       4.299   3.718  18.088  0.00  0.00    +0.000 C 
ATOM     15  C   UNL     1       3.373   4.898  18.410  0.00  0.00    +0.000 C 
ATOM     16  C   UNL     1       1.949   4.733  17.873  0.00  0.00    +0.000 C 
ATOM     17  C   UNL     1       1.301   3.432  18.327  0.00  0.00    +0.000 C 
ATOM     18  C   UNL     1       2.176   2.227  18.013  0.00  0.00    +0.000 C 
ATOM     19  C   UNL     1       3.610   2.403  18.553  0.00  0.00    +0.000 C 
ENDBRANCH  12  14
ENDBRANCH  11  12
BRANCH   1  20
ATOM     20  C   UNL     1       7.667   4.644  17.793  0.00  0.00    +0.000 C 
BRANCH  20  22
ATOM     21  C   UNL     1       8.234   5.669  20.140  0.00  0.00    +0.000 C 
ATOM     22  C   UNL     1       7.515   5.818  18.793  0.00  0.00    +0.000 C 
ATOM     23  C   UNL     1       7.841   7.176  18.176  0.00  0.00    +0.000 C 
ENDBRANCH  20  22
ENDBRANCH   1  20
TORSDOF 4
ENDMDL
MODEL 5
REMARK VINA RESULT:      -6.4      5.423      7.175
REMARK  Name = 
REMARK  6 active torsions:
REMARK  status: ('A' for Active; 'I' for Inactive)
REMARK    1  A    between atoms: C_1  and  C_2
REMARK    2  A    between atoms: C_2  and  C_3
REMARK    3  A    between atoms: C_2  and  C_4
REMARK    4  A    between atoms: C_4  and  C_5
REMARK    5  A    between atoms: C_15  and  N_16
REMARK    6  A    between atoms: N_16  and  C_17
REMARK                            x       y       z     vdW  Elec       q    Type
REMARK                         _______ _______ _______ _____ _____    ______ ____
ROOT
ATOM      1  C   UNL     1       6.995   4.681  16.504  0.00  0.00    +0.000 A 
ATOM      2  N   UNL     1       7.708   5.125  15.409  0.00  0.00    +0.000 NA
ATOM      3  C   UNL     1       7.012   4.803  14.343  0.00  0.00    +0.000 A 
ATOM      4  C   UNL     1       7.270   4.978  12.947  0.00  0.00    +0.000 A 
ATOM      5 BR   UNL     1       8.758   5.981  12.439  0.00  0.00    +0.000 Br
ATOM      6  C   UNL     1       6.443   4.421  12.037  0.00  0.00    +0.000 A 
ATOM      7  C   UNL     1       5.282   3.648  12.444  0.00  0.00    +0.000 A 
ATOM      8 BR   UNL     1       4.230   2.864  11.123  0.00  0.00    +0.000 Br
ATOM      9  C   UNL     1       5.010   3.524  13.751  0.00  0.00    +0.000 A 
ATOM     10  N   UNL     1       5.860   4.111  14.697  0.00  0.00    +0.000 N 
ATOM     11  C   UNL     1       5.778   4.123  16.092  0.00  0.00    +0.000 A 
ENDROOT
BRANCH  11  12
ATOM     12  N   UNL     1       4.697   3.540  16.706  0.00  0.00    +0.000 N 
ATOM     13  H   UNL     1       4.262   2.755  16.231  0.00  0.00    +0.000 HD
BRANCH  12  14
ATOM     14  C   UNL     1       3.707   4.240  17.542  0.00  0.00    +0.000 C 
ATOM     15  C   UNL     1       2.286   3.665  17.462  0.00  0.00    +0.000 C 
ATOM     16  C   UNL     1       2.140   2.282  18.102  0.00  0.00    +0.000 C 
ATOM     17  C   UNL     1       2.627   2.251  19.544  0.00  0.00    +0.000 C 
ATOM     18  C   UNL     1       4.040   2.797  19.674  0.00  0.00    +0.000 C 
ATOM     19  C   UNL     1       4.181   4.189  19.022  0.00  0.00    +0.000 C 
ENDBRANCH  12  14
ENDBRANCH  11  12
BRANCH   1  20
ATOM     20  C   UNL     1       7.711   4.626  17.820  0.00  0.00    +0.000 C 
BRANCH  20  22
ATOM     21  C   UNL     1       8.233   5.621  20.189  0.00  0.00    +0.000 C 
ATOM     22  C   UNL     1       7.547   5.792  18.828  0.00  0.00    +0.000 C 
ATOM     23  C   UNL     1       7.902   7.152  18.233  0.00  0.00    +0.000 C 
ENDBRANCH  20  22
ENDBRANCH   1  20
TORSDOF 4
ENDMDL
MODEL 6
REMARK VINA RESULT:      -6.4      0.954      1.770
REMARK  Name = 
REMARK  6 active torsions:
REMARK  status: ('A' for Active; 'I' for Inactive)
REMARK    1  A    between atoms: C_1  and  C_2
REMARK    2  A    between atoms: C_2  and  C_3
REMARK    3  A    between atoms: C_2  and  C_4
REMARK    4  A    between atoms: C_4  and  C_5
REMARK    5  A    between atoms: C_15  and  N_16
REMARK    6  A    between atoms: N_16  and  C_17
REMARK                            x       y       z     vdW  Elec       q    Type
REMARK                         _______ _______ _______ _____ _____    ______ ____
ROOT
ATOM      1  C   UNL     1       3.453   7.153  17.933  0.00  0.00    +0.000 A 
ATOM      2  N   UNL     1       2.947   8.423  17.741  0.00  0.00    +0.000 NA
ATOM      3  C   UNL     1       2.237   8.716  18.806  0.00  0.00    +0.000 A 
ATOM      4  C   UNL     1       1.461   9.869  19.147  0.00  0.00    +0.000 A 
ATOM      5 BR   UNL     1       1.534  11.353  18.020  0.00  0.00    +0.000 Br
ATOM      6  C   UNL     1       0.702   9.860  20.263  0.00  0.00    +0.000 A 
ATOM      7  C   UNL     1       0.659   8.701  21.139  0.00  0.00    +0.000 A 
ATOM      8 BR   UNL     1      -0.463   8.752  22.624  0.00  0.00    +0.000 Br
ATOM      9  C   UNL     1       1.423   7.638  20.848  0.00  0.00    +0.000 A 
ATOM     10  N   UNL     1       2.221   7.650  19.697  0.00  0.00    +0.000 N 
ATOM     11  C   UNL     1       3.093   6.677  19.200  0.00  0.00    +0.000 A 
ENDROOT
BRANCH  11  12
ATOM     12  N   UNL     1       3.297   5.527  19.921  0.00  0.00    +0.000 N 
ATOM     13  H   UNL     1       4.003   5.556  20.650  0.00  0.00    +0.000 HD
BRANCH  12  14
ATOM     14  C   UNL     1       3.161   4.156  19.401  0.00  0.00    +0.000 C 
ATOM     15  C   UNL     1       3.559   3.056  20.395  0.00  0.00    +0.000 C 
ATOM     16  C   UNL     1       2.600   2.914  21.579  0.00  0.00    +0.000 C 
ATOM     17  C   UNL     1       1.156   2.711  21.140  0.00  0.00    +0.000 C 
ATOM     18  C   UNL     1       0.707   3.789  20.164  0.00  0.00    +0.000 C 
ATOM     19  C   UNL     1       1.682   3.930  18.976  0.00  0.00    +0.000 C 
ENDBRANCH  12  14
ENDBRANCH  11  12
BRANCH   1  20
ATOM     20  C   UNL     1       4.023   6.449  16.739  0.00  0.00    +0.000 C 
BRANCH  20  22
ATOM     21  C   UNL     1       5.893   4.999  15.607  0.00  0.00    +0.000 C 
ATOM     22  C   UNL     1       5.411   5.767  16.844  0.00  0.00    +0.000 C 
ATOM     23  C   UNL     1       6.507   6.713  17.329  0.00  0.00    +0.000 C 
ENDBRANCH  20  22
ENDBRANCH   1  20
TORSDOF 4
ENDMDL
MODEL 7
REMARK VINA RESULT:      -6.3      1.206      4.200
REMARK  Name = 
REMARK  6 active torsions:
REMARK  status: ('A' for Active; 'I' for Inactive)
REMARK    1  A    between atoms: C_1  and  C_2
REMARK    2  A    between atoms: C_2  and  C_3
REMARK    3  A    between atoms: C_2  and  C_4
REMARK    4  A    between atoms: C_4  and  C_5
REMARK    5  A    between atoms: C_15  and  N_16
REMARK    6  A    between atoms: N_16  and  C_17
REMARK                            x       y       z     vdW  Elec       q    Type
REMARK                         _______ _______ _______ _____ _____    ______ ____
ROOT
ATOM      1  C   UNL     1       2.291   5.756  20.117  0.00  0.00    +0.000 A 
ATOM      2  N   UNL     1       1.508   6.581  20.898  0.00  0.00    +0.000 NA
ATOM      3  C   UNL     1       1.444   7.741  20.284  0.00  0.00    +0.000 A 
ATOM      4  C   UNL     1       0.809   8.973  20.637  0.00  0.00    +0.000 A 
ATOM      5 BR   UNL     1      -0.294   9.004  22.140  0.00  0.00    +0.000 Br
ATOM      6  C   UNL     1       1.018  10.075  19.886  0.00  0.00    +0.000 A 
ATOM      7  C   UNL     1       1.874  10.038  18.712  0.00  0.00    +0.000 A 
ATOM      8 BR   UNL     1       2.156  11.618  17.769  0.00  0.00    +0.000 Br
ATOM      9  C   UNL     1       2.431   8.873  18.351  0.00  0.00    +0.000 A 
ATOM     10  N   UNL     1       2.205   7.726  19.122  0.00  0.00    +0.000 N 
ATOM     11  C   UNL     1       2.666   6.419  18.941  0.00  0.00    +0.000 A 
ENDROOT
BRANCH  11  12
ATOM     12  N   UNL     1       3.414   6.117  17.830  0.00  0.00    +0.000 N 
ATOM     13  H   UNL     1       3.029   6.379  16.928  0.00  0.00    +0.000 HD
BRANCH  12  14
ATOM     14  C   UNL     1       4.300   4.950  17.686  0.00  0.00    +0.000 C 
ATOM     15  C   UNL     1       4.687   4.620  16.238  0.00  0.00    +0.000 C 
ATOM     16  C   UNL     1       5.616   5.652  15.594  0.00  0.00    +0.000 C 
ATOM     17  C   UNL     1       6.872   5.901  16.418  0.00  0.00    +0.000 C 
ATOM     18  C   UNL     1       6.540   6.250  17.861  0.00  0.00    +0.000 C 
ATOM     19  C   UNL     1       5.599   5.208  18.501  0.00  0.00    +0.000 C 
ENDBRANCH  12  14
ENDBRANCH  11  12
BRANCH   1  20
ATOM     20  C   UNL     1       2.793   4.488  20.739  0.00  0.00    +0.000 C 
BRANCH  20  22
ATOM     21  C   UNL     1       1.386   2.522  21.756  0.00  0.00    +0.000 C 
ATOM     22  C   UNL     1       2.017   3.166  20.515  0.00  0.00    +0.000 C 
ATOM     23  C   UNL     1       0.983   3.262  19.396  0.00  0.00    +0.000 C 
ENDBRANCH  20  22
ENDBRANCH   1  20
TORSDOF 4
ENDMDL
MODEL 8
REMARK VINA RESULT:      -6.1      0.953      1.236
REMARK  Name = 
REMARK  6 active torsions:
REMARK  status: ('A' for Active; 'I' for Inactive)
REMARK    1  A    between atoms: C_1  and  C_2
REMARK    2  A    between atoms: C_2  and  C_3
REMARK    3  A    between atoms: C_2  and  C_4
REMARK    4  A    between atoms: C_4  and  C_5
REMARK    5  A    between atoms: C_15  and  N_16
REMARK    6  A    between atoms: N_16  and  C_17
REMARK                            x       y       z     vdW  Elec       q    Type
REMARK                         _______ _______ _______ _____ _____    ______ ____
ROOT
ATOM      1  C   UNL     1       2.917   7.694  18.173  0.00  0.00    +0.000 A 
ATOM      2  N   UNL     1       2.624   9.037  18.062  0.00  0.00    +0.000 NA
ATOM      3  C   UNL     1       1.955   9.374  19.141  0.00  0.00    +0.000 A 
ATOM      4  C   UNL     1       1.369  10.612  19.552  0.00  0.00    +0.000 A 
ATOM      5 BR   UNL     1       1.693  12.132  18.522  0.00  0.00    +0.000 Br
ATOM      6  C   UNL     1       0.603  10.655  20.663  0.00  0.00    +0.000 A 
ATOM      7  C   UNL     1       0.363   9.466  21.463  0.00  0.00    +0.000 A 
ATOM      8 BR   UNL     1      -0.756   9.602  22.944  0.00  0.00    +0.000 Br
ATOM      9  C   UNL     1       0.951   8.314  21.106  0.00  0.00    +0.000 A 
ATOM     10  N   UNL     1       1.757   8.270  19.962  0.00  0.00    +0.000 N 
ATOM     11  C   UNL     1       2.469   7.203  19.406  0.00  0.00    +0.000 A 
ENDROOT
BRANCH  11  12
ATOM     12  N   UNL     1       2.477   5.992  20.053  0.00  0.00    +0.000 N 
ATOM     13  H   UNL     1       3.288   5.778  20.625  0.00  0.00    +0.000 HD
BRANCH  12  14
ATOM     14  C   UNL     1       1.868   4.749  19.549  0.00  0.00    +0.000 C 
ATOM     15  C   UNL     1       2.851   3.792  18.862  0.00  0.00    +0.000 C 
ATOM     16  C   UNL     1       3.857   3.145  19.818  0.00  0.00    +0.000 C 
ATOM     17  C   UNL     1       3.182   2.438  20.984  0.00  0.00    +0.000 C 
ATOM     18  C   UNL     1       2.207   3.352  21.711  0.00  0.00    +0.000 C 
ATOM     19  C   UNL     1       1.200   4.005  20.741  0.00  0.00    +0.000 C 
ENDBRANCH  12  14
ENDBRANCH  11  12
BRANCH   1  20
ATOM     20  C   UNL     1       3.384   6.983  16.938  0.00  0.00    +0.000 C 
BRANCH  20  22
ATOM     21  C   UNL     1       5.629   6.082  17.950  0.00  0.00    +0.000 C 
ATOM     22  C   UNL     1       4.894   6.690  16.749  0.00  0.00    +0.000 C 
ATOM     23  C   UNL     1       5.194   5.880  15.490  0.00  0.00    +0.000 C 
ENDBRANCH  20  22
ENDBRANCH   1  20
TORSDOF 4
ENDMDL
MODEL 9
REMARK VINA RESULT:      -6.1      5.077      7.277
REMARK  Name = 
REMARK  6 active torsions:
REMARK  status: ('A' for Active; 'I' for Inactive)
REMARK    1  A    between atoms: C_1  and  C_2
REMARK    2  A    between atoms: C_2  and  C_3
REMARK    3  A    between atoms: C_2  and  C_4
REMARK    4  A    between atoms: C_4  and  C_5
REMARK    5  A    between atoms: C_15  and  N_16
REMARK    6  A    between atoms: N_16  and  C_17
REMARK                            x       y       z     vdW  Elec       q    Type
REMARK                         _______ _______ _______ _____ _____    ______ ____
ROOT
ATOM      1  C   UNL     1       6.156   5.645  16.494  0.00  0.00    +0.000 A 
ATOM      2  N   UNL     1       7.150   5.901  15.573  0.00  0.00    +0.000 NA
ATOM      3  C   UNL     1       6.872   5.191  14.503  0.00  0.00    +0.000 A 
ATOM      4  C   UNL     1       7.559   5.033  13.258  0.00  0.00    +0.000 A 
ATOM      5 BR   UNL     1       9.045   6.108  12.922  0.00  0.00    +0.000 Br
ATOM      6  C   UNL     1       7.123   4.120  12.364  0.00  0.00    +0.000 A 
ATOM      7  C   UNL     1       5.959   3.293  12.633  0.00  0.00    +0.000 A 
ATOM      8 BR   UNL     1       5.466   2.017  11.370  0.00  0.00    +0.000 Br
ATOM      9  C   UNL     1       5.285   3.474  13.777  0.00  0.00    +0.000 A 
ATOM     10  N   UNL     1       5.727   4.429  14.701  0.00  0.00    +0.000 N 
ATOM     11  C   UNL     1       5.191   4.796  15.939  0.00  0.00    +0.000 A 
ENDROOT
BRANCH  11  12
ATOM     12  N   UNL     1       4.019   4.217  16.361  0.00  0.00    +0.000 N 
ATOM     13  H   UNL     1       3.184   4.794  16.340  0.00  0.00    +0.000 HD
BRANCH  12  14
ATOM     14  C   UNL     1       3.901   3.191  17.411  0.00  0.00    +0.000 C 
ATOM     15  C   UNL     1       4.312   3.664  18.812  0.00  0.00    +0.000 C 
ATOM     16  C   UNL     1       3.352   4.686  19.427  0.00  0.00    +0.000 C 
ATOM     17  C   UNL     1       1.912   4.193  19.453  0.00  0.00    +0.000 C 
ATOM     18  C   UNL     1       1.451   3.727  18.080  0.00  0.00    +0.000 C 
ATOM     19  C   UNL     1       2.426   2.701  17.464  0.00  0.00    +0.000 C 
ENDBRANCH  12  14
ENDBRANCH  11  12
BRANCH   1  20
ATOM     20  C   UNL     1       6.403   6.066  17.912  0.00  0.00    +0.000 C 
BRANCH  20  22
ATOM     21  C   UNL     1       8.241   7.879  18.372  0.00  0.00    +0.000 C 
ATOM     22  C   UNL     1       7.845   6.397  18.372  0.00  0.00    +0.000 C 
ATOM     23  C   UNL     1       8.207   5.761  19.711  0.00  0.00    +0.000 C 
ENDBRANCH  20  22
ENDBRANCH   1  20
TORSDOF 4
ENDMDL
