MODEL 1
REMARK VINA RESULT:      -9.3      0.000      0.000
REMARK  Name = 
REMARK  9 active torsions:
REMARK  status: ('A' for Active; 'I' for Inactive)
REMARK    1  A    between atoms: C_1  and  O_2
REMARK    2  A    between atoms: O_2  and  C_3
REMARK    3  A    between atoms: C_3  and  C_4
REMARK    4  A    between atoms: N_8  and  N_9
REMARK    5  A    between atoms: C_10  and  C_11
REMARK    6  A    between atoms: C_17  and  N_18
REMARK    7  A    between atoms: N_18  and  C_19
REMARK    8  A    between atoms: N_26  and  C_27
REMARK    9  A    between atoms: C_27  and  C_28
REMARK                            x       y       z     vdW  Elec       q    Type
REMARK                         _______ _______ _______ _____ _____    ______ ____
ROOT
ATOM      1  C   UNL     1       2.836   4.059  18.919  0.00  0.00    +0.000 A 
ATOM      2  C   UNL     1       2.285   2.783  18.838  0.00  0.00    +0.000 A 
ATOM      3  N   UNL     1       2.711   1.820  17.919  0.00  0.00    +0.000 N 
ATOM      4  N   UNL     1       1.330   2.353  19.672  0.00  0.00    +0.000 NA
ATOM      5  C   UNL     1       0.899   3.236  20.580  0.00  0.00    +0.000 A 
ATOM      6  N   UNL     1       1.320   4.497  20.716  0.00  0.00    +0.000 NA
ATOM      7  C   UNL     1       2.309   4.911  19.895  0.00  0.00    +0.000 A 
ATOM      8  H   UNL     1       2.655   2.130  16.956  0.00  0.00    +0.000 HD
ATOM      9  H   UNL     1       2.138   0.991  18.069  0.00  0.00    +0.000 HD
ENDROOT
BRANCH   1  11
ATOM     10  N   UNL     1       4.902   3.715  17.685  0.00  0.00    +0.000 NA
ATOM     11  C   UNL     1       3.878   4.462  17.965  0.00  0.00    +0.000 C 
BRANCH  10  16
ATOM     12  C   UNL     1       5.734   5.769  16.587  0.00  0.00    +0.000 C 
ATOM     13  C   UNL     1       5.503   5.916  15.081  0.00  0.00    +0.000 C 
ATOM     14  C   UNL     1       6.220   4.714  14.511  0.00  0.00    +0.000 C 
ATOM     15  C   UNL     1       5.868   3.637  15.513  0.00  0.00    +0.000 C 
ATOM     16  N   UNL     1       5.800   4.296  16.837  0.00  0.00    +0.000 N 
BRANCH  12  17
ATOM     17  C   UNL     1       7.063   6.437  17.017  0.00  0.00    +0.000 C 
BRANCH  17  19
ATOM     18  C   UNL     1       7.850   5.878  19.180  0.00  0.00    +0.000 C 
ATOM     19  O   UNL     1       7.845   5.527  17.801  0.00  0.00    +0.000 OA
ENDBRANCH  17  19
ENDBRANCH  12  17
ENDBRANCH  10  16
ENDBRANCH   1  11
BRANCH   7  20
ATOM     20  N   UNL     1       2.749   6.246  19.999  0.00  0.00    +0.000 N 
ATOM     21  H   UNL     1       3.625   6.317  20.515  0.00  0.00    +0.000 HD
BRANCH  20  22
ATOM     22  C   UNL     1       2.086   7.461  19.737  0.00  0.00    +0.000 A 
ATOM     23  C   UNL     1       2.039   8.038  18.459  0.00  0.00    +0.000 A 
ATOM     24  C   UNL     1       1.470   9.304  18.222  0.00  0.00    +0.000 A 
ATOM     25  C   UNL     1       0.921   9.986  19.315  0.00  0.00    +0.000 A 
ATOM     26  C   UNL     1       0.898   9.417  20.586  0.00  0.00    +0.000 A 
ATOM     27  C   UNL     1       0.251  10.374  21.394  0.00  0.00    +0.000 A 
ATOM     28  N   UNL     1      -0.064  11.487  20.732  0.00  0.00    +0.000 NA
ATOM     29  N   UNL     1       0.338  11.230  19.464  0.00  0.00    +0.000 N 
ATOM     30  C   UNL     1       1.467   8.145  20.795  0.00  0.00    +0.000 A 
BRANCH  29  31
ATOM     31  C   UNL     1       0.195  12.284  18.459  0.00  0.00    +0.000 C 
BRANCH  31  32
ATOM     32  C   UNL     1       1.226  13.375  18.632  0.00  0.00    +0.000 A 
ATOM     33  C   UNL     1       0.871  14.626  19.166  0.00  0.00    +0.000 A 
ATOM     34  C   UNL     1       1.799  15.669  19.232  0.00  0.00    +0.000 A 
ATOM     35  C   UNL     1       3.103  15.462  18.791  0.00  0.00    +0.000 A 
ATOM     36  C   UNL     1       3.476  14.207  18.327  0.00  0.00    +0.000 A 
ATOM     37  F   UNL     1       4.739  13.999  17.930  0.00  0.00    +0.000 F 
ATOM     38  C   UNL     1       2.558  13.162  18.253  0.00  0.00    +0.000 A 
ENDBRANCH  31  32
ENDBRANCH  29  31
ENDBRANCH  20  22
ENDBRANCH   7  20
TORSDOF 8
ENDMDL
MODEL 2
REMARK VINA RESULT:      -9.2      2.431      3.475
REMARK  Name = 
REMARK  9 active torsions:
REMARK  status: ('A' for Active; 'I' for Inactive)
REMARK    1  A    between atoms: C_1  and  O_2
REMARK    2  A    between atoms: O_2  and  C_3
REMARK    3  A    between atoms: C_3  and  C_4
REMARK    4  A    between atoms: N_8  and  N_9
REMARK    5  A    between atoms: C_10  and  C_11
REMARK    6  A    between atoms: C_17  and  N_18
REMARK    7  A    between atoms: N_18  and  C_19
REMARK    8  A    between atoms: N_26  and  C_27
REMARK    9  A    between atoms: C_27  and  C_28
REMARK                            x       y       z     vdW  Elec       q    Type
REMARK                         _______ _______ _______ _____ _____    ______ ____
ROOT
ATOM      1  C   UNL     1       3.177   4.110  19.291  0.00  0.00    +0.000 A 
ATOM      2  C   UNL     1       2.788   2.801  19.022  0.00  0.00    +0.000 A 
ATOM      3  N   UNL     1       3.500   1.947  18.175  0.00  0.00    +0.000 N 
ATOM      4  N   UNL     1       1.720   2.230  19.596  0.00  0.00    +0.000 NA
ATOM      5  C   UNL     1       1.014   3.005  20.428  0.00  0.00    +0.000 A 
ATOM      6  N   UNL     1       1.267   4.284  20.720  0.00  0.00    +0.000 NA
ATOM      7  C   UNL     1       2.365   4.841  20.165  0.00  0.00    +0.000 A 
ATOM      8  H   UNL     1       3.626   2.321  17.242  0.00  0.00    +0.000 HD
ATOM      9  H   UNL     1       2.994   1.063  18.149  0.00  0.00    +0.000 HD
ENDROOT
BRANCH   1  11
ATOM     10  N   UNL     1       4.283   5.344  17.512  0.00  0.00    +0.000 NA
ATOM     11  C   UNL     1       4.357   4.670  18.619  0.00  0.00    +0.000 C 
BRANCH  10  16
ATOM     12  C   UNL     1       6.699   4.873  17.279  0.00  0.00    +0.000 C 
ATOM     13  C   UNL     1       7.679   5.795  18.008  0.00  0.00    +0.000 C 
ATOM     14  C   UNL     1       7.371   7.151  17.415  0.00  0.00    +0.000 C 
ATOM     15  C   UNL     1       5.861   7.112  17.317  0.00  0.00    +0.000 C 
ATOM     16  N   UNL     1       5.494   5.713  17.002  0.00  0.00    +0.000 N 
BRANCH  12  17
ATOM     17  C   UNL     1       7.300   4.357  15.949  0.00  0.00    +0.000 C 
BRANCH  17  19
ATOM     18  C   UNL     1       6.165   3.923  13.916  0.00  0.00    +0.000 C 
ATOM     19  O   UNL     1       6.596   4.921  14.835  0.00  0.00    +0.000 OA
ENDBRANCH  17  19
ENDBRANCH  12  17
ENDBRANCH  10  16
ENDBRANCH   1  11
BRANCH   7  20
ATOM     20  N   UNL     1       2.636   6.198  20.435  0.00  0.00    +0.000 N 
ATOM     21  H   UNL     1       3.470   6.311  21.009  0.00  0.00    +0.000 HD
BRANCH  20  22
ATOM     22  C   UNL     1       1.846   7.350  20.259  0.00  0.00    +0.000 A 
ATOM     23  C   UNL     1       1.755   8.027  19.035  0.00  0.00    +0.000 A 
ATOM     24  C   UNL     1       1.052   9.238  18.891  0.00  0.00    +0.000 A 
ATOM     25  C   UNL     1       0.412   9.759  20.023  0.00  0.00    +0.000 A 
ATOM     26  C   UNL     1       0.432   9.082  21.240  0.00  0.00    +0.000 A 
ATOM     27  C   UNL     1      -0.331   9.888  22.109  0.00  0.00    +0.000 A 
ATOM     28  N   UNL     1      -0.758  11.013  21.536  0.00  0.00    +0.000 NA
ATOM     29  N   UNL     1      -0.309  10.913  20.261  0.00  0.00    +0.000 N 
ATOM     30  C   UNL     1       1.137   7.867  21.356  0.00  0.00    +0.000 A 
BRANCH  29  31
ATOM     31  C   UNL     1      -0.553  12.028  19.346  0.00  0.00    +0.000 C 
BRANCH  31  32
ATOM     32  C   UNL     1      -1.797  11.817  18.515  0.00  0.00    +0.000 A 
ATOM     33  C   UNL     1      -3.076  11.995  19.072  0.00  0.00    +0.000 A 
ATOM     34  C   UNL     1      -4.227  11.702  18.337  0.00  0.00    +0.000 A 
ATOM     35  C   UNL     1      -4.113  11.256  17.023  0.00  0.00    +0.000 A 
ATOM     36  C   UNL     1      -2.854  11.146  16.446  0.00  0.00    +0.000 A 
ATOM     37  F   UNL     1      -2.745  10.744  15.173  0.00  0.00    +0.000 F 
ATOM     38  C   UNL     1      -1.700  11.431  17.172  0.00  0.00    +0.000 A 
ENDBRANCH  31  32
ENDBRANCH  29  31
ENDBRANCH  20  22
ENDBRANCH   7  20
TORSDOF 8
ENDMDL
MODEL 3
REMARK VINA RESULT:      -9.2      0.789      1.133
REMARK  Name = 
REMARK  9 active torsions:
REMARK  status: ('A' for Active; 'I' for Inactive)
REMARK    1  A    between atoms: C_1  and  O_2
REMARK    2  A    between atoms: O_2  and  C_3
REMARK    3  A    between atoms: C_3  and  C_4
REMARK    4  A    between atoms: N_8  and  N_9
REMARK    5  A    between atoms: C_10  and  C_11
REMARK    6  A    between atoms: C_17  and  N_18
REMARK    7  A    between atoms: N_18  and  C_19
REMARK    8  A    between atoms: N_26  and  C_27
REMARK    9  A    between atoms: C_27  and  C_28
REMARK                            x       y       z     vdW  Elec       q    Type
REMARK                         _______ _______ _______ _____ _____    ______ ____
ROOT
ATOM      1  C   UNL     1       2.888   4.044  19.008  0.00  0.00    +0.000 A 
ATOM      2  C   UNL     1       2.364   2.756  18.940  0.00  0.00    +0.000 A 
ATOM      3  N   UNL     1       2.797   1.799  18.018  0.00  0.00    +0.000 N 
ATOM      4  N   UNL     1       1.433   2.307  19.792  0.00  0.00    +0.000 NA
ATOM      5  C   UNL     1       0.997   3.183  20.704  0.00  0.00    +0.000 A 
ATOM      6  N   UNL     1       1.392   4.454  20.829  0.00  0.00    +0.000 NA
ATOM      7  C   UNL     1       2.357   4.888  19.990  0.00  0.00    +0.000 A 
ATOM      8  H   UNL     1       2.718   2.105  17.055  0.00  0.00    +0.000 HD
ATOM      9  H   UNL     1       2.245   0.958  18.179  0.00  0.00    +0.000 HD
ENDROOT
BRANCH   1  11
ATOM     10  N   UNL     1       4.942   3.744  17.744  0.00  0.00    +0.000 NA
ATOM     11  C   UNL     1       3.904   4.467  18.036  0.00  0.00    +0.000 C 
BRANCH  10  16
ATOM     12  C   UNL     1       5.717   5.814  16.635  0.00  0.00    +0.000 C 
ATOM     13  C   UNL     1       5.451   5.963  15.136  0.00  0.00    +0.000 C 
ATOM     14  C   UNL     1       6.175   4.774  14.545  0.00  0.00    +0.000 C 
ATOM     15  C   UNL     1       5.861   3.688  15.551  0.00  0.00    +0.000 C 
ATOM     16  N   UNL     1       5.812   4.342  16.878  0.00  0.00    +0.000 N 
BRANCH  12  17
ATOM     17  C   UNL     1       7.044   6.502  17.039  0.00  0.00    +0.000 C 
BRANCH  17  19
ATOM     18  C   UNL     1       7.857   5.886  19.176  0.00  0.00    +0.000 C 
ATOM     19  O   UNL     1       7.867   5.595  17.783  0.00  0.00    +0.000 OA
ENDBRANCH  17  19
ENDBRANCH  12  17
ENDBRANCH  10  16
ENDBRANCH   1  11
BRANCH   7  20
ATOM     20  N   UNL     1       2.769   6.232  20.083  0.00  0.00    +0.000 N 
ATOM     21  H   UNL     1       3.641   6.327  20.602  0.00  0.00    +0.000 HD
BRANCH  20  22
ATOM     22  C   UNL     1       2.082   7.430  19.805  0.00  0.00    +0.000 A 
ATOM     23  C   UNL     1       2.022   7.989  18.520  0.00  0.00    +0.000 A 
ATOM     24  C   UNL     1       1.428   9.240  18.267  0.00  0.00    +0.000 A 
ATOM     25  C   UNL     1       0.867   9.926  19.350  0.00  0.00    +0.000 A 
ATOM     26  C   UNL     1       0.857   9.374  20.630  0.00  0.00    +0.000 A 
ATOM     27  C   UNL     1       0.192  10.329  21.425  0.00  0.00    +0.000 A 
ATOM     28  N   UNL     1      -0.146  11.426  20.749  0.00  0.00    +0.000 NA
ATOM     29  N   UNL     1       0.260  11.160  19.484  0.00  0.00    +0.000 N 
ATOM     30  C   UNL     1       1.451   8.117  20.855  0.00  0.00    +0.000 A 
BRANCH  29  31
ATOM     31  C   UNL     1       0.095  12.198  18.465  0.00  0.00    +0.000 C 
BRANCH  31  32
ATOM     32  C   UNL     1       1.145  13.277  18.581  0.00  0.00    +0.000 A 
ATOM     33  C   UNL     1       2.480  13.029  18.214  0.00  0.00    +0.000 A 
ATOM     34  C   UNL     1       3.472  13.992  18.416  0.00  0.00    +0.000 A 
ATOM     35  C   UNL     1       3.134  15.228  18.960  0.00  0.00    +0.000 A 
ATOM     36  C   UNL     1       1.806  15.503  19.259  0.00  0.00    +0.000 A 
ATOM     37  F   UNL     1       1.476  16.702  19.756  0.00  0.00    +0.000 F 
ATOM     38  C   UNL     1       0.810  14.549  19.066  0.00  0.00    +0.000 A 
ENDBRANCH  31  32
ENDBRANCH  29  31
ENDBRANCH  20  22
ENDBRANCH   7  20
TORSDOF 8
ENDMDL
MODEL 4
REMARK VINA RESULT:      -9.2      2.279      2.986
REMARK  Name = 
REMARK  9 active torsions:
REMARK  status: ('A' for Active; 'I' for Inactive)
REMARK    1  A    between atoms: C_1  and  O_2
REMARK    2  A    between atoms: O_2  and  C_3
REMARK    3  A    between atoms: C_3  and  C_4
REMARK    4  A    between atoms: N_8  and  N_9
REMARK    5  A    between atoms: C_10  and  C_11
REMARK    6  A    between atoms: C_17  and  N_18
REMARK    7  A    between atoms: N_18  and  C_19
REMARK    8  A    between atoms: N_26  and  C_27
REMARK    9  A    between atoms: C_27  and  C_28
REMARK                            x       y       z     vdW  Elec       q    Type
REMARK                         _______ _______ _______ _____ _____    ______ ____
ROOT
ATOM      1  C   UNL     1       3.050   3.868  19.085  0.00  0.00    +0.000 A 
ATOM      2  C   UNL     1       2.588   2.557  19.153  0.00  0.00    +0.000 A 
ATOM      3  N   UNL     1       3.023   1.544  18.295  0.00  0.00    +0.000 N 
ATOM      4  N   UNL     1       1.720   2.143  20.086  0.00  0.00    +0.000 NA
ATOM      5  C   UNL     1       1.285   3.075  20.942  0.00  0.00    +0.000 A 
ATOM      6  N   UNL     1       1.623   4.368  20.939  0.00  0.00    +0.000 NA
ATOM      7  C   UNL     1       2.525   4.770  20.018  0.00  0.00    +0.000 A 
ATOM      8  H   UNL     1       2.884   1.761  17.315  0.00  0.00    +0.000 HD
ATOM      9  H   UNL     1       2.522   0.696  18.555  0.00  0.00    +0.000 HD
ENDROOT
BRANCH   1  11
ATOM     10  N   UNL     1       5.285   4.165  18.177  0.00  0.00    +0.000 NA
ATOM     11  C   UNL     1       3.998   4.251  18.031  0.00  0.00    +0.000 C 
BRANCH  10  16
ATOM     12  C   UNL     1       5.894   6.085  16.742  0.00  0.00    +0.000 C 
ATOM     13  C   UNL     1       5.369   6.095  15.305  0.00  0.00    +0.000 C 
ATOM     14  C   UNL     1       5.951   4.828  14.723  0.00  0.00    +0.000 C 
ATOM     15  C   UNL     1       5.799   3.858  15.875  0.00  0.00    +0.000 C 
ATOM     16  N   UNL     1       6.000   4.641  17.116  0.00  0.00    +0.000 N 
BRANCH  12  17
ATOM     17  C   UNL     1       7.286   6.757  16.835  0.00  0.00    +0.000 C 
BRANCH  17  19
ATOM     18  C   UNL     1       8.205   8.649  17.922  0.00  0.00    +0.000 C 
ATOM     19  O   UNL     1       7.408   7.479  18.066  0.00  0.00    +0.000 OA
ENDBRANCH  17  19
ENDBRANCH  12  17
ENDBRANCH  10  16
ENDBRANCH   1  11
BRANCH   7  20
ATOM     20  N   UNL     1       2.875   6.135  19.976  0.00  0.00    +0.000 N 
ATOM     21  H   UNL     1       3.869   6.277  20.149  0.00  0.00    +0.000 HD
BRANCH  20  22
ATOM     22  C   UNL     1       2.074   7.294  19.979  0.00  0.00    +0.000 A 
ATOM     23  C   UNL     1       1.918   8.110  18.849  0.00  0.00    +0.000 A 
ATOM     24  C   UNL     1       1.206   9.324  18.886  0.00  0.00    +0.000 A 
ATOM     25  C   UNL     1       0.626   9.702  20.103  0.00  0.00    +0.000 A 
ATOM     26  C   UNL     1       0.712   8.887  21.230  0.00  0.00    +0.000 A 
ATOM     27  C   UNL     1      -0.005   9.579  22.226  0.00  0.00    +0.000 A 
ATOM     28  N   UNL     1      -0.464  10.760  21.813  0.00  0.00    +0.000 NA
ATOM     29  N   UNL     1      -0.083  10.814  20.514  0.00  0.00    +0.000 N 
ATOM     30  C   UNL     1       1.423   7.673  21.164  0.00  0.00    +0.000 A 
BRANCH  29  31
ATOM     31  C   UNL     1      -0.377  12.028  19.750  0.00  0.00    +0.000 C 
BRANCH  31  32
ATOM     32  C   UNL     1      -1.624  11.881  18.912  0.00  0.00    +0.000 A 
ATOM     33  C   UNL     1      -2.898  12.103  19.466  0.00  0.00    +0.000 A 
ATOM     34  C   UNL     1      -4.057  11.869  18.722  0.00  0.00    +0.000 A 
ATOM     35  C   UNL     1      -3.955  11.438  17.402  0.00  0.00    +0.000 A 
ATOM     36  C   UNL     1      -2.699  11.286  16.828  0.00  0.00    +0.000 A 
ATOM     37  F   UNL     1      -2.600  10.899  15.550  0.00  0.00    +0.000 F 
ATOM     38  C   UNL     1      -1.537  11.512  17.563  0.00  0.00    +0.000 A 
ENDBRANCH  31  32
ENDBRANCH  29  31
ENDBRANCH  20  22
ENDBRANCH   7  20
TORSDOF 8
ENDMDL
MODEL 5
REMARK VINA RESULT:      -9.1      0.944      1.745
REMARK  Name = 
REMARK  9 active torsions:
REMARK  status: ('A' for Active; 'I' for Inactive)
REMARK    1  A    between atoms: C_1  and  O_2
REMARK    2  A    between atoms: O_2  and  C_3
REMARK    3  A    between atoms: C_3  and  C_4
REMARK    4  A    between atoms: N_8  and  N_9
REMARK    5  A    between atoms: C_10  and  C_11
REMARK    6  A    between atoms: C_17  and  N_18
REMARK    7  A    between atoms: N_18  and  C_19
REMARK    8  A    between atoms: N_26  and  C_27
REMARK    9  A    between atoms: C_27  and  C_28
REMARK                            x       y       z     vdW  Elec       q    Type
REMARK                         _______ _______ _______ _____ _____    ______ ____
ROOT
ATOM      1  C   UNL     1       3.178   4.335  19.243  0.00  0.00    +0.000 A 
ATOM      2  C   UNL     1       2.753   3.035  18.982  0.00  0.00    +0.000 A 
ATOM      3  N   UNL     1       3.490   2.124  18.221  0.00  0.00    +0.000 N 
ATOM      4  N   UNL     1       1.619   2.530  19.486  0.00  0.00    +0.000 NA
ATOM      5  C   UNL     1       0.885   3.361  20.234  0.00  0.00    +0.000 A 
ATOM      6  N   UNL     1       1.171   4.637  20.508  0.00  0.00    +0.000 NA
ATOM      7  C   UNL     1       2.334   5.128  20.027  0.00  0.00    +0.000 A 
ATOM      8  H   UNL     1       3.706   2.461  17.290  0.00  0.00    +0.000 HD
ATOM      9  H   UNL     1       2.949   1.262  18.180  0.00  0.00    +0.000 HD
ENDROOT
BRANCH   1  11
ATOM     10  N   UNL     1       4.485   5.855  17.868  0.00  0.00    +0.000 NA
ATOM     11  C   UNL     1       4.432   4.821  18.651  0.00  0.00    +0.000 C 
BRANCH  10  16
ATOM     12  C   UNL     1       6.899   5.318  17.851  0.00  0.00    +0.000 C 
ATOM     13  C   UNL     1       7.864   6.353  18.434  0.00  0.00    +0.000 C 
ATOM     14  C   UNL     1       7.613   7.571  17.575  0.00  0.00    +0.000 C 
ATOM     15  C   UNL     1       6.109   7.533  17.412  0.00  0.00    +0.000 C 
ATOM     16  N   UNL     1       5.726   6.103  17.357  0.00  0.00    +0.000 N 
BRANCH  12  17
ATOM     17  C   UNL     1       7.549   4.546  16.677  0.00  0.00    +0.000 C 
BRANCH  17  19
ATOM     18  C   UNL     1       6.704   4.440  14.467  0.00  0.00    +0.000 C 
ATOM     19  O   UNL     1       7.345   5.250  15.445  0.00  0.00    +0.000 OA
ENDBRANCH  17  19
ENDBRANCH  12  17
ENDBRANCH  10  16
ENDBRANCH   1  11
BRANCH   7  20
ATOM     20  N   UNL     1       2.644   6.480  20.277  0.00  0.00    +0.000 N 
ATOM     21  H   UNL     1       3.409   6.577  20.943  0.00  0.00    +0.000 HD
BRANCH  20  22
ATOM     22  C   UNL     1       1.943   7.662  19.965  0.00  0.00    +0.000 A 
ATOM     23  C   UNL     1       1.938   8.224  18.681  0.00  0.00    +0.000 A 
ATOM     24  C   UNL     1       1.328   9.460  18.398  0.00  0.00    +0.000 A 
ATOM     25  C   UNL     1       0.691  10.128  19.452  0.00  0.00    +0.000 A 
ATOM     26  C   UNL     1       0.626   9.570  20.727  0.00  0.00    +0.000 A 
ATOM     27  C   UNL     1      -0.105  10.506  21.488  0.00  0.00    +0.000 A 
ATOM     28  N   UNL     1      -0.433  11.597  20.797  0.00  0.00    +0.000 NA
ATOM     29  N   UNL     1       0.047  11.346  19.555  0.00  0.00    +0.000 N 
ATOM     30  C   UNL     1       1.238   8.328  20.981  0.00  0.00    +0.000 A 
BRANCH  29  31
ATOM     31  C   UNL     1      -0.089  12.383  18.531  0.00  0.00    +0.000 C 
BRANCH  31  32
ATOM     32  C   UNL     1       0.976  13.446  18.658  0.00  0.00    +0.000 A 
ATOM     33  C   UNL     1       0.662  14.730  19.137  0.00  0.00    +0.000 A 
ATOM     34  C   UNL     1       1.622  15.745  19.159  0.00  0.00    +0.000 A 
ATOM     35  C   UNL     1       2.919  15.478  18.729  0.00  0.00    +0.000 A 
ATOM     36  C   UNL     1       3.252  14.192  18.321  0.00  0.00    +0.000 A 
ATOM     37  F   UNL     1       4.507  13.927  17.934  0.00  0.00    +0.000 F 
ATOM     38  C   UNL     1       2.302  13.175  18.291  0.00  0.00    +0.000 A 
ENDBRANCH  31  32
ENDBRANCH  29  31
ENDBRANCH  20  22
ENDBRANCH   7  20
TORSDOF 8
ENDMDL
MODEL 6
REMARK VINA RESULT:      -9.0      2.479      3.333
REMARK  Name = 
REMARK  9 active torsions:
REMARK  status: ('A' for Active; 'I' for Inactive)
REMARK    1  A    between atoms: C_1  and  O_2
REMARK    2  A    between atoms: O_2  and  C_3
REMARK    3  A    between atoms: C_3  and  C_4
REMARK    4  A    between atoms: N_8  and  N_9
REMARK    5  A    between atoms: C_10  and  C_11
REMARK    6  A    between atoms: C_17  and  N_18
REMARK    7  A    between atoms: N_18  and  C_19
REMARK    8  A    between atoms: N_26  and  C_27
REMARK    9  A    between atoms: C_27  and  C_28
REMARK                            x       y       z     vdW  Elec       q    Type
REMARK                         _______ _______ _______ _____ _____    ______ ____
ROOT
ATOM      1  C   UNL     1       3.169   3.928  19.198  0.00  0.00    +0.000 A 
ATOM      2  C   UNL     1       2.755   2.602  19.291  0.00  0.00    +0.000 A 
ATOM      3  N   UNL     1       3.204   1.596  18.432  0.00  0.00    +0.000 N 
ATOM      4  N   UNL     1       1.927   2.168  20.250  0.00  0.00    +0.000 NA
ATOM      5  C   UNL     1       1.481   3.094  21.107  0.00  0.00    +0.000 A 
ATOM      6  N   UNL     1       1.772   4.398  21.082  0.00  0.00    +0.000 NA
ATOM      7  C   UNL     1       2.636   4.821  20.134  0.00  0.00    +0.000 A 
ATOM      8  H   UNL     1       3.032   1.797  17.453  0.00  0.00    +0.000 HD
ATOM      9  H   UNL     1       2.739   0.734  18.713  0.00  0.00    +0.000 HD
ENDROOT
BRANCH   1  11
ATOM     10  N   UNL     1       5.341   4.043  18.113  0.00  0.00    +0.000 NA
ATOM     11  C   UNL     1       4.075   4.332  18.115  0.00  0.00    +0.000 C 
BRANCH  10  16
ATOM     12  C   UNL     1       5.835   6.009  16.696  0.00  0.00    +0.000 C 
ATOM     13  C   UNL     1       5.322   5.995  15.254  0.00  0.00    +0.000 C 
ATOM     14  C   UNL     1       5.991   4.772  14.669  0.00  0.00    +0.000 C 
ATOM     15  C   UNL     1       5.893   3.787  15.813  0.00  0.00    +0.000 C 
ATOM     16  N   UNL     1       6.032   4.572  17.061  0.00  0.00    +0.000 N 
BRANCH  12  17
ATOM     17  C   UNL     1       7.179   6.769  16.805  0.00  0.00    +0.000 C 
BRANCH  17  19
ATOM     18  C   UNL     1       8.315   8.078  18.419  0.00  0.00    +0.000 C 
ATOM     19  O   UNL     1       7.572   6.889  18.178  0.00  0.00    +0.000 OA
ENDBRANCH  17  19
ENDBRANCH  12  17
ENDBRANCH  10  16
ENDBRANCH   1  11
BRANCH   7  20
ATOM     20  N   UNL     1       2.936   6.196  20.069  0.00  0.00    +0.000 N 
ATOM     21  H   UNL     1       3.888   6.392  20.375  0.00  0.00    +0.000 HD
BRANCH  20  22
ATOM     22  C   UNL     1       2.100   7.317  19.895  0.00  0.00    +0.000 A 
ATOM     23  C   UNL     1       1.896   7.924  18.647  0.00  0.00    +0.000 A 
ATOM     24  C   UNL     1       1.148   9.107  18.495  0.00  0.00    +0.000 A 
ATOM     25  C   UNL     1       0.581   9.671  19.645  0.00  0.00    +0.000 A 
ATOM     26  C   UNL     1       0.714   9.062  20.891  0.00  0.00    +0.000 A 
ATOM     27  C   UNL     1      -0.004   9.895  21.773  0.00  0.00    +0.000 A 
ATOM     28  N   UNL     1      -0.507  10.975  21.177  0.00  0.00    +0.000 NA
ATOM     29  N   UNL     1      -0.154  10.817  19.878  0.00  0.00    +0.000 N 
ATOM     30  C   UNL     1       1.462   7.875  21.014  0.00  0.00    +0.000 A 
BRANCH  29  31
ATOM     31  C   UNL     1      -0.500  11.875  18.927  0.00  0.00    +0.000 C 
BRANCH  31  32
ATOM     32  C   UNL     1      -1.804  11.593  18.218  0.00  0.00    +0.000 A 
ATOM     33  C   UNL     1      -1.822  10.950  16.967  0.00  0.00    +0.000 A 
ATOM     34  C   UNL     1      -3.016  10.780  16.263  0.00  0.00    +0.000 A 
ATOM     35  C   UNL     1      -4.214  11.226  16.816  0.00  0.00    +0.000 A 
ATOM     36  C   UNL     1      -4.210  11.798  18.082  0.00  0.00    +0.000 A 
ATOM     37  F   UNL     1      -5.366  12.201  18.627  0.00  0.00    +0.000 F 
ATOM     38  C   UNL     1      -3.024  11.976  18.791  0.00  0.00    +0.000 A 
ENDBRANCH  31  32
ENDBRANCH  29  31
ENDBRANCH  20  22
ENDBRANCH   7  20
TORSDOF 8
ENDMDL
MODEL 7
REMARK VINA RESULT:      -9.0      2.707      3.812
REMARK  Name = 
REMARK  9 active torsions:
REMARK  status: ('A' for Active; 'I' for Inactive)
REMARK    1  A    between atoms: C_1  and  O_2
REMARK    2  A    between atoms: O_2  and  C_3
REMARK    3  A    between atoms: C_3  and  C_4
REMARK    4  A    between atoms: N_8  and  N_9
REMARK    5  A    between atoms: C_10  and  C_11
REMARK    6  A    between atoms: C_17  and  N_18
REMARK    7  A    between atoms: N_18  and  C_19
REMARK    8  A    between atoms: N_26  and  C_27
REMARK    9  A    between atoms: C_27  and  C_28
REMARK                            x       y       z     vdW  Elec       q    Type
REMARK                         _______ _______ _______ _____ _____    ______ ____
ROOT
ATOM      1  C   UNL     1       3.151   4.345  19.308  0.00  0.00    +0.000 A 
ATOM      2  C   UNL     1       2.789   3.016  19.111  0.00  0.00    +0.000 A 
ATOM      3  N   UNL     1       3.473   2.152  18.251  0.00  0.00    +0.000 N 
ATOM      4  N   UNL     1       1.779   2.435  19.773  0.00  0.00    +0.000 NA
ATOM      5  C   UNL     1       1.102   3.218  20.620  0.00  0.00    +0.000 A 
ATOM      6  N   UNL     1       1.330   4.515  20.850  0.00  0.00    +0.000 NA
ATOM      7  C   UNL     1       2.373   5.083  20.206  0.00  0.00    +0.000 A 
ATOM      8  H   UNL     1       3.528   2.495  17.299  0.00  0.00    +0.000 HD
ATOM      9  H   UNL     1       2.996   1.253  18.288  0.00  0.00    +0.000 HD
ENDROOT
BRANCH   1  11
ATOM     10  N   UNL     1       4.205   5.134  17.264  0.00  0.00    +0.000 NA
ATOM     11  C   UNL     1       4.268   4.915  18.542  0.00  0.00    +0.000 C 
BRANCH  10  16
ATOM     12  C   UNL     1       6.578   4.714  16.713  0.00  0.00    +0.000 C 
ATOM     13  C   UNL     1       7.641   5.477  17.506  0.00  0.00    +0.000 C 
ATOM     14  C   UNL     1       7.305   6.922  17.216  0.00  0.00    +0.000 C 
ATOM     15  C   UNL     1       5.792   6.905  17.260  0.00  0.00    +0.000 C 
ATOM     16  N   UNL     1       5.369   5.593  16.719  0.00  0.00    +0.000 N 
BRANCH  12  17
ATOM     17  C   UNL     1       7.039   4.463  15.256  0.00  0.00    +0.000 C 
BRANCH  17  19
ATOM     18  C   UNL     1       6.270   3.727  13.140  0.00  0.00    +0.000 C 
ATOM     19  O   UNL     1       6.054   3.702  14.547  0.00  0.00    +0.000 OA
ENDBRANCH  17  19
ENDBRANCH  12  17
ENDBRANCH  10  16
ENDBRANCH   1  11
BRANCH   7  20
ATOM     20  N   UNL     1       2.616   6.457  20.410  0.00  0.00    +0.000 N 
ATOM     21  H   UNL     1       3.475   6.616  20.934  0.00  0.00    +0.000 HD
BRANCH  20  22
ATOM     22  C   UNL     1       1.782   7.578  20.232  0.00  0.00    +0.000 A 
ATOM     23  C   UNL     1       1.570   8.174  18.981  0.00  0.00    +0.000 A 
ATOM     24  C   UNL     1       0.825   9.358  18.824  0.00  0.00    +0.000 A 
ATOM     25  C   UNL     1       0.269   9.936  19.973  0.00  0.00    +0.000 A 
ATOM     26  C   UNL     1       0.411   9.338  21.224  0.00  0.00    +0.000 A 
ATOM     27  C   UNL     1      -0.297  10.181  22.104  0.00  0.00    +0.000 A 
ATOM     28  N   UNL     1      -0.802  11.257  21.502  0.00  0.00    +0.000 NA
ATOM     29  N   UNL     1      -0.460  11.086  20.202  0.00  0.00    +0.000 N 
ATOM     30  C   UNL     1       1.155   8.149  21.352  0.00  0.00    +0.000 A 
BRANCH  29  31
ATOM     31  C   UNL     1      -0.811  12.136  19.244  0.00  0.00    +0.000 C 
BRANCH  31  32
ATOM     32  C   UNL     1      -2.053  11.792  18.457  0.00  0.00    +0.000 A 
ATOM     33  C   UNL     1      -1.963  11.309  17.140  0.00  0.00    +0.000 A 
ATOM     34  C   UNL     1      -3.111  11.087  16.375  0.00  0.00    +0.000 A 
ATOM     35  C   UNL     1      -4.366  11.317  16.931  0.00  0.00    +0.000 A 
ATOM     36  C   UNL     1      -4.462  11.728  18.254  0.00  0.00    +0.000 A 
ATOM     37  F   UNL     1      -5.671  11.923  18.798  0.00  0.00    +0.000 F 
ATOM     38  C   UNL     1      -3.324  11.957  19.024  0.00  0.00    +0.000 A 
ENDBRANCH  31  32
ENDBRANCH  29  31
ENDBRANCH  20  22
ENDBRANCH   7  20
TORSDOF 8
ENDMDL
MODEL 8
REMARK VINA RESULT:      -8.9      2.615      3.659
REMARK  Name = 
REMARK  9 active torsions:
REMARK  status: ('A' for Active; 'I' for Inactive)
REMARK    1  A    between atoms: C_1  and  O_2
REMARK    2  A    between atoms: O_2  and  C_3
REMARK    3  A    between atoms: C_3  and  C_4
REMARK    4  A    between atoms: N_8  and  N_9
REMARK    5  A    between atoms: C_10  and  C_11
REMARK    6  A    between atoms: C_17  and  N_18
REMARK    7  A    between atoms: N_18  and  C_19
REMARK    8  A    between atoms: N_26  and  C_27
REMARK    9  A    between atoms: C_27  and  C_28
REMARK                            x       y       z     vdW  Elec       q    Type
REMARK                         _______ _______ _______ _____ _____    ______ ____
ROOT
ATOM      1  C   UNL     1       2.844   3.826  19.002  0.00  0.00    +0.000 A 
ATOM      2  C   UNL     1       2.262   2.573  18.831  0.00  0.00    +0.000 A 
ATOM      3  N   UNL     1       2.629   1.688  17.813  0.00  0.00    +0.000 N 
ATOM      4  N   UNL     1       1.332   2.087  19.664  0.00  0.00    +0.000 NA
ATOM      5  C   UNL     1       0.958   2.892  20.664  0.00  0.00    +0.000 A 
ATOM      6  N   UNL     1       1.412   4.127  20.894  0.00  0.00    +0.000 NA
ATOM      7  C   UNL     1       2.376   4.596  20.072  0.00  0.00    +0.000 A 
ATOM      8  H   UNL     1       2.540   2.086  16.885  0.00  0.00    +0.000 HD
ATOM      9  H   UNL     1       2.044   0.860  17.912  0.00  0.00    +0.000 HD
ENDROOT
BRANCH   1  11
ATOM     10  N   UNL     1       5.033   3.758  17.947  0.00  0.00    +0.000 NA
ATOM     11  C   UNL     1       3.855   4.294  18.045  0.00  0.00    +0.000 C 
BRANCH  10  16
ATOM     12  C   UNL     1       5.778   5.866  16.891  0.00  0.00    +0.000 C 
ATOM     13  C   UNL     1       5.419   6.093  15.422  0.00  0.00    +0.000 C 
ATOM     14  C   UNL     1       6.077   4.923  14.728  0.00  0.00    +0.000 C 
ATOM     15  C   UNL     1       5.806   3.794  15.698  0.00  0.00    +0.000 C 
ATOM     16  N   UNL     1       5.857   4.382  17.056  0.00  0.00    +0.000 N 
BRANCH  12  17
ATOM     17  C   UNL     1       7.144   6.508  17.240  0.00  0.00    +0.000 C 
BRANCH  17  19
ATOM     18  C   UNL     1       8.065   8.588  17.896  0.00  0.00    +0.000 C 
ATOM     19  O   UNL     1       7.067   7.934  17.122  0.00  0.00    +0.000 OA
ENDBRANCH  17  19
ENDBRANCH  12  17
ENDBRANCH  10  16
ENDBRANCH   1  11
BRANCH   7  20
ATOM     20  N   UNL     1       2.849   5.908  20.277  0.00  0.00    +0.000 N 
ATOM     21  H   UNL     1       3.750   5.916  20.753  0.00  0.00    +0.000 HD
BRANCH  20  22
ATOM     22  C   UNL     1       2.201   7.153  20.159  0.00  0.00    +0.000 A 
ATOM     23  C   UNL     1       1.281   7.621  21.109  0.00  0.00    +0.000 A 
ATOM     24  C   UNL     1       0.556   8.814  20.934  0.00  0.00    +0.000 A 
ATOM     25  C   UNL     1       0.790   9.555  19.769  0.00  0.00    +0.000 A 
ATOM     26  C   UNL     1       1.740   9.150  18.833  0.00  0.00    +0.000 A 
ATOM     27  C   UNL     1       1.708  10.148  17.839  0.00  0.00    +0.000 A 
ATOM     28  N   UNL     1       0.787  11.083  18.067  0.00  0.00    +0.000 NA
ATOM     29  N   UNL     1       0.246  10.715  19.253  0.00  0.00    +0.000 N 
ATOM     30  C   UNL     1       2.459   7.955  19.036  0.00  0.00    +0.000 A 
BRANCH  29  31
ATOM     31  C   UNL     1      -0.865  11.505  19.788  0.00  0.00    +0.000 C 
BRANCH  31  32
ATOM     32  C   UNL     1      -2.153  11.247  19.043  0.00  0.00    +0.000 A 
ATOM     33  C   UNL     1      -2.262  10.177  18.138  0.00  0.00    +0.000 A 
ATOM     34  C   UNL     1      -3.417   9.997  17.372  0.00  0.00    +0.000 A 
ATOM     35  C   UNL     1      -4.490  10.871  17.525  0.00  0.00    +0.000 A 
ATOM     36  C   UNL     1      -4.413  11.888  18.468  0.00  0.00    +0.000 A 
ATOM     37  F   UNL     1      -5.456  12.712  18.637  0.00  0.00    +0.000 F 
ATOM     38  C   UNL     1      -3.265  12.078  19.234  0.00  0.00    +0.000 A 
ENDBRANCH  31  32
ENDBRANCH  29  31
ENDBRANCH  20  22
ENDBRANCH   7  20
TORSDOF 8
ENDMDL
MODEL 9
REMARK VINA RESULT:      -8.9      2.326      3.033
REMARK  Name = 
REMARK  9 active torsions:
REMARK  status: ('A' for Active; 'I' for Inactive)
REMARK    1  A    between atoms: C_1  and  O_2
REMARK    2  A    between atoms: O_2  and  C_3
REMARK    3  A    between atoms: C_3  and  C_4
REMARK    4  A    between atoms: N_8  and  N_9
REMARK    5  A    between atoms: C_10  and  C_11
REMARK    6  A    between atoms: C_17  and  N_18
REMARK    7  A    between atoms: N_18  and  C_19
REMARK    8  A    between atoms: N_26  and  C_27
REMARK    9  A    between atoms: C_27  and  C_28
REMARK                            x       y       z     vdW  Elec       q    Type
REMARK                         _______ _______ _______ _____ _____    ______ ____
ROOT
ATOM      1  C   UNL     1       3.107   3.790  19.106  0.00  0.00    +0.000 A 
ATOM      2  C   UNL     1       2.595   2.498  19.191  0.00  0.00    +0.000 A 
ATOM      3  N   UNL     1       3.153   1.405  18.523  0.00  0.00    +0.000 N 
ATOM      4  N   UNL     1       1.549   2.184  19.967  0.00  0.00    +0.000 NA
ATOM      5  C   UNL     1       0.989   3.196  20.639  0.00  0.00    +0.000 A 
ATOM      6  N   UNL     1       1.365   4.477  20.594  0.00  0.00    +0.000 NA
ATOM      7  C   UNL     1       2.443   4.780  19.838  0.00  0.00    +0.000 A 
ATOM      8  H   UNL     1       3.214   1.537  17.520  0.00  0.00    +0.000 HD
ATOM      9  H   UNL     1       2.581   0.593  18.749  0.00  0.00    +0.000 HD
ENDROOT
BRANCH   1  11
ATOM     10  N   UNL     1       4.337   3.602  17.017  0.00  0.00    +0.000 NA
ATOM     11  C   UNL     1       4.254   4.060  18.229  0.00  0.00    +0.000 C 
BRANCH  10  16
ATOM     12  C   UNL     1       6.351   5.030  16.884  0.00  0.00    +0.000 C 
ATOM     13  C   UNL     1       6.463   5.996  15.703  0.00  0.00    +0.000 C 
ATOM     14  C   UNL     1       6.420   5.074  14.506  0.00  0.00    +0.000 C 
ATOM     15  C   UNL     1       5.370   4.068  14.926  0.00  0.00    +0.000 C 
ATOM     16  N   UNL     1       5.513   3.894  16.390  0.00  0.00    +0.000 N 
BRANCH  12  17
ATOM     17  C   UNL     1       7.744   4.508  17.315  0.00  0.00    +0.000 C 
BRANCH  17  19
ATOM     18  C   UNL     1       7.549   5.853  19.255  0.00  0.00    +0.000 C 
ATOM     19  O   UNL     1       7.877   4.568  18.741  0.00  0.00    +0.000 OA
ENDBRANCH  17  19
ENDBRANCH  12  17
ENDBRANCH  10  16
ENDBRANCH   1  11
BRANCH   7  20
ATOM     20  N   UNL     1       2.841   6.129  19.751  0.00  0.00    +0.000 N 
ATOM     21  H   UNL     1       3.855   6.226  19.762  0.00  0.00    +0.000 HD
BRANCH  20  22
ATOM     22  C   UNL     1       2.104   7.321  19.894  0.00  0.00    +0.000 A 
ATOM     23  C   UNL     1       1.824   8.172  18.815  0.00  0.00    +0.000 A 
ATOM     24  C   UNL     1       1.182   9.414  18.979  0.00  0.00    +0.000 A 
ATOM     25  C   UNL     1       0.802   9.785  20.275  0.00  0.00    +0.000 A 
ATOM     26  C   UNL     1       1.012   8.937  21.361  0.00  0.00    +0.000 A 
ATOM     27  C   UNL     1       0.480   9.634  22.465  0.00  0.00    +0.000 A 
ATOM     28  N   UNL     1       0.021  10.844  22.146  0.00  0.00    +0.000 NA
ATOM     29  N   UNL     1       0.213  10.916  20.807  0.00  0.00    +0.000 N 
ATOM     30  C   UNL     1       1.650   7.696  21.168  0.00  0.00    +0.000 A 
BRANCH  29  31
ATOM     31  C   UNL     1      -0.132  12.161  20.118  0.00  0.00    +0.000 C 
BRANCH  31  32
ATOM     32  C   UNL     1      -1.594  12.213  19.741  0.00  0.00    +0.000 A 
ATOM     33  C   UNL     1      -2.520  12.914  20.534  0.00  0.00    +0.000 A 
ATOM     34  C   UNL     1      -3.886  12.879  20.244  0.00  0.00    +0.000 A 
ATOM     35  C   UNL     1      -4.340  12.165  19.138  0.00  0.00    +0.000 A 
ATOM     36  C   UNL     1      -3.422  11.528  18.313  0.00  0.00    +0.000 A 
ATOM     37  F   UNL     1      -3.855  10.865  17.233  0.00  0.00    +0.000 F 
ATOM     38  C   UNL     1      -2.058  11.553  18.595  0.00  0.00    +0.000 A 
ENDBRANCH  31  32
ENDBRANCH  29  31
ENDBRANCH  20  22
ENDBRANCH   7  20
TORSDOF 8
ENDMDL
