MODEL 1
REMARK VINA RESULT:      -8.5      0.000      0.000
REMARK  Name = 
REMARK  4 active torsions:
REMARK  status: ('A' for Active; 'I' for Inactive)
REMARK    1  A    between atoms: N_5  and  C_6
REMARK    2  A    between atoms: C_9  and  O_10
REMARK    3  A    between atoms: O_10  and  C_11
REMARK    4  A    between atoms: C_11  and  C_12
REMARK                            x       y       z     vdW  Elec       q    Type
REMARK                         _______ _______ _______ _____ _____    ______ ____
ROOT
ATOM      1  C   UNL     1       1.277   9.257  19.124  0.00  0.00    +0.000 A 
ATOM      2  C   UNL     1       1.907   8.913  17.921  0.00  0.00    +0.000 A 
ATOM      3  C   UNL     1       2.593   7.706  17.773  0.00  0.00    +0.000 A 
ATOM      4  C   UNL     1       2.696   6.827  18.843  0.00  0.00    +0.000 A 
ATOM      5  C   UNL     1       2.090   7.154  20.055  0.00  0.00    +0.000 A 
ATOM      6  C   UNL     1       1.396   8.361  20.194  0.00  0.00    +0.000 A 
ENDROOT
BRANCH   1  11
ATOM      7  O   UNL     1      -2.753   9.774  16.132  0.00  0.00    +0.000 OA
ATOM      8  C   UNL     1      -2.447  10.286  17.205  0.00  0.00    +0.000 A 
ATOM      9  N   UNL     1      -1.232  10.066  17.765  0.00  0.00    +0.000 NA
ATOM     10  C   UNL     1      -0.717  10.708  18.754  0.00  0.00    +0.000 A 
ATOM     11  N   UNL     1       0.509  10.424  19.303  0.00  0.00    +0.000 N 
ATOM     12  S   UNL     1      -1.499  12.037  19.573  0.00  0.00    +0.000 S 
ATOM     13  C   UNL     1      -3.147  11.868  18.975  0.00  0.00    +0.000 A 
ATOM     14  N   UNL     1      -4.078  12.611  19.630  0.00  0.00    +0.000 NA
ATOM     15  C   UNL     1      -5.354  12.551  19.189  0.00  0.00    +0.000 A 
ATOM     16  C   UNL     1      -5.762  11.782  18.112  0.00  0.00    +0.000 A 
ATOM     17  C   UNL     1      -4.798  11.030  17.455  0.00  0.00    +0.000 A 
ATOM     18  C   UNL     1      -3.471  11.072  17.895  0.00  0.00    +0.000 A 
ATOM     19  H   UNL     1       0.768  10.992  20.098  0.00  0.00    +0.000 HD
ENDBRANCH   1  11
BRANCH   4  20
ATOM     20  O   UNL     1       3.377   5.671  18.589  0.00  0.00    +0.000 OA
BRANCH  20  21
ATOM     21  C   UNL     1       4.190   5.713  17.418  0.00  0.00    +0.000 C 
BRANCH  21  22
ATOM     22  C   UNL     1       5.605   6.056  17.804  0.00  0.00    +0.000 A 
ATOM     23  C   UNL     1       6.291   7.094  17.159  0.00  0.00    +0.000 A 
ATOM     24  C   UNL     1       7.567   7.464  17.583  0.00  0.00    +0.000 A 
ATOM     25  C   UNL     1       8.170   6.798  18.648  0.00  0.00    +0.000 A 
ATOM     26  C   UNL     1       7.505   5.750  19.281  0.00  0.00    +0.000 A 
ATOM     27  C   UNL     1       6.228   5.379  18.861  0.00  0.00    +0.000 A 
ENDBRANCH  21  22
ENDBRANCH  20  21
ENDBRANCH   4  20
TORSDOF 4
ENDMDL
MODEL 2
REMARK VINA RESULT:      -8.5      1.951      3.247
REMARK  Name = 
REMARK  4 active torsions:
REMARK  status: ('A' for Active; 'I' for Inactive)
REMARK    1  A    between atoms: N_5  and  C_6
REMARK    2  A    between atoms: C_9  and  O_10
REMARK    3  A    between atoms: O_10  and  C_11
REMARK    4  A    between atoms: C_11  and  C_12
REMARK                            x       y       z     vdW  Elec       q    Type
REMARK                         _______ _______ _______ _____ _____    ______ ____
ROOT
ATOM      1  C   UNL     1       0.898   9.800  19.276  0.00  0.00    +0.000 A 
ATOM      2  C   UNL     1       1.565   9.655  18.052  0.00  0.00    +0.000 A 
ATOM      3  C   UNL     1       2.387   8.557  17.792  0.00  0.00    +0.000 A 
ATOM      4  C   UNL     1       2.592   7.593  18.769  0.00  0.00    +0.000 A 
ATOM      5  C   UNL     1       1.951   7.722  20.000  0.00  0.00    +0.000 A 
ATOM      6  C   UNL     1       1.120   8.819  20.251  0.00  0.00    +0.000 A 
ENDROOT
BRANCH   1  11
ATOM      7  O   UNL     1      -2.698  10.670  15.845  0.00  0.00    +0.000 OA
ATOM      8  C   UNL     1      -2.600  10.958  17.034  0.00  0.00    +0.000 A 
ATOM      9  N   UNL     1      -1.461  10.707  17.725  0.00  0.00    +0.000 NA
ATOM     10  C   UNL     1      -1.160  11.155  18.892  0.00  0.00    +0.000 A 
ATOM     11  N   UNL     1      -0.001  10.845  19.562  0.00  0.00    +0.000 N 
ATOM     12  S   UNL     1      -2.180  12.220  19.828  0.00  0.00    +0.000 S 
ATOM     13  C   UNL     1      -3.701  12.071  18.952  0.00  0.00    +0.000 A 
ATOM     14  N   UNL     1      -4.785  12.589  19.587  0.00  0.00    +0.000 NA
ATOM     15  C   UNL     1      -5.974  12.538  18.944  0.00  0.00    +0.000 A 
ATOM     16  C   UNL     1      -6.145  11.993  17.683  0.00  0.00    +0.000 A 
ATOM     17  C   UNL     1      -5.026  11.468  17.050  0.00  0.00    +0.000 A 
ATOM     18  C   UNL     1      -3.786  11.505  17.696  0.00  0.00    +0.000 A 
ATOM     19  H   UNL     1       0.084  11.245  20.487  0.00  0.00    +0.000 HD
ENDBRANCH   1  11
BRANCH   4  20
ATOM     20  O   UNL     1       3.404   6.555  18.408  0.00  0.00    +0.000 OA
BRANCH  20  21
ATOM     21  C   UNL     1       3.718   5.659  19.472  0.00  0.00    +0.000 C 
BRANCH  21  22
ATOM     22  C   UNL     1       2.720   4.531  19.488  0.00  0.00    +0.000 A 
ATOM     23  C   UNL     1       2.093   4.147  20.680  0.00  0.00    +0.000 A 
ATOM     24  C   UNL     1       1.105   3.163  20.670  0.00  0.00    +0.000 A 
ATOM     25  C   UNL     1       0.739   2.552  19.473  0.00  0.00    +0.000 A 
ATOM     26  C   UNL     1       1.373   2.911  18.285  0.00  0.00    +0.000 A 
ATOM     27  C   UNL     1       2.359   3.896  18.291  0.00  0.00    +0.000 A 
ENDBRANCH  21  22
ENDBRANCH  20  21
ENDBRANCH   4  20
TORSDOF 4
ENDMDL
MODEL 3
REMARK VINA RESULT:      -8.4      2.142      3.078
REMARK  Name = 
REMARK  4 active torsions:
REMARK  status: ('A' for Active; 'I' for Inactive)
REMARK    1  A    between atoms: N_5  and  C_6
REMARK    2  A    between atoms: C_9  and  O_10
REMARK    3  A    between atoms: O_10  and  C_11
REMARK    4  A    between atoms: C_11  and  C_12
REMARK                            x       y       z     vdW  Elec       q    Type
REMARK                         _______ _______ _______ _____ _____    ______ ____
ROOT
ATOM      1  C   UNL     1       1.099   9.564  19.183  0.00  0.00    +0.000 A 
ATOM      2  C   UNL     1       1.786   9.355  17.980  0.00  0.00    +0.000 A 
ATOM      3  C   UNL     1       2.562   8.214  17.769  0.00  0.00    +0.000 A 
ATOM      4  C   UNL     1       2.699   7.268  18.776  0.00  0.00    +0.000 A 
ATOM      5  C   UNL     1       2.037   7.461  19.988  0.00  0.00    +0.000 A 
ATOM      6  C   UNL     1       1.252   8.602  20.189  0.00  0.00    +0.000 A 
ENDROOT
BRANCH   1  11
ATOM      7  O   UNL     1      -2.652  10.233  15.875  0.00  0.00    +0.000 OA
ATOM      8  C   UNL     1      -2.484  10.623  17.027  0.00  0.00    +0.000 A 
ATOM      9  N   UNL     1      -1.316  10.400  17.678  0.00  0.00    +0.000 NA
ATOM     10  C   UNL     1      -0.942  10.941  18.784  0.00  0.00    +0.000 A 
ATOM     11  N   UNL     1       0.243  10.657  19.419  0.00  0.00    +0.000 N 
ATOM     12  S   UNL     1      -1.883  12.114  19.670  0.00  0.00    +0.000 S 
ATOM     13  C   UNL     1      -3.452  11.934  18.890  0.00  0.00    +0.000 A 
ATOM     14  N   UNL     1      -4.488  12.539  19.530  0.00  0.00    +0.000 NA
ATOM     15  C   UNL     1      -5.710  12.466  18.956  0.00  0.00    +0.000 A 
ATOM     16  C   UNL     1      -5.962  11.817  17.759  0.00  0.00    +0.000 A 
ATOM     17  C   UNL     1      -4.892  11.204  17.120  0.00  0.00    +0.000 A 
ATOM     18  C   UNL     1      -3.619  11.262  17.696  0.00  0.00    +0.000 A 
ATOM     19  H   UNL     1       0.387  11.135  20.298  0.00  0.00    +0.000 HD
ENDBRANCH   1  11
BRANCH   4  20
ATOM     20  O   UNL     1       3.470   6.185  18.463  0.00  0.00    +0.000 OA
BRANCH  20  21
ATOM     21  C   UNL     1       2.735   5.059  17.989  0.00  0.00    +0.000 C 
BRANCH  21  22
ATOM     22  C   UNL     1       2.469   4.117  19.134  0.00  0.00    +0.000 A 
ATOM     23  C   UNL     1       3.524   3.459  19.779  0.00  0.00    +0.000 A 
ATOM     24  C   UNL     1       3.278   2.659  20.894  0.00  0.00    +0.000 A 
ATOM     25  C   UNL     1       1.977   2.506  21.371  0.00  0.00    +0.000 A 
ATOM     26  C   UNL     1       0.919   3.139  20.723  0.00  0.00    +0.000 A 
ATOM     27  C   UNL     1       1.162   3.941  19.609  0.00  0.00    +0.000 A 
ENDBRANCH  21  22
ENDBRANCH  20  21
ENDBRANCH   4  20
TORSDOF 4
ENDMDL
MODEL 4
REMARK VINA RESULT:      -8.4      1.974      3.243
REMARK  Name = 
REMARK  4 active torsions:
REMARK  status: ('A' for Active; 'I' for Inactive)
REMARK    1  A    between atoms: N_5  and  C_6
REMARK    2  A    between atoms: C_9  and  O_10
REMARK    3  A    between atoms: O_10  and  C_11
REMARK    4  A    between atoms: C_11  and  C_12
REMARK                            x       y       z     vdW  Elec       q    Type
REMARK                         _______ _______ _______ _____ _____    ______ ____
ROOT
ATOM      1  C   UNL     1       1.301   9.251  19.018  0.00  0.00    +0.000 A 
ATOM      2  C   UNL     1       1.493   8.222  19.949  0.00  0.00    +0.000 A 
ATOM      3  C   UNL     1       2.370   7.165  19.700  0.00  0.00    +0.000 A 
ATOM      4  C   UNL     1       3.051   7.093  18.493  0.00  0.00    +0.000 A 
ATOM      5  C   UNL     1       2.866   8.097  17.544  0.00  0.00    +0.000 A 
ATOM      6  C   UNL     1       1.992   9.160  17.803  0.00  0.00    +0.000 A 
ENDROOT
BRANCH   1  11
ATOM      7  O   UNL     1      -2.573   9.909  15.854  0.00  0.00    +0.000 OA
ATOM      8  C   UNL     1      -2.343  10.337  16.981  0.00  0.00    +0.000 A 
ATOM      9  N   UNL     1      -1.154  10.103  17.589  0.00  0.00    +0.000 NA
ATOM     10  C   UNL     1      -0.716  10.673  18.656  0.00  0.00    +0.000 A 
ATOM     11  N   UNL     1       0.488  10.377  19.249  0.00  0.00    +0.000 N 
ATOM     12  S   UNL     1      -1.583  11.906  19.537  0.00  0.00    +0.000 S 
ATOM     13  C   UNL     1      -3.190  11.744  18.834  0.00  0.00    +0.000 A 
ATOM     14  N   UNL     1      -4.178  12.402  19.494  0.00  0.00    +0.000 NA
ATOM     15  C   UNL     1      -5.426  12.345  18.977  0.00  0.00    +0.000 A 
ATOM     16  C   UNL     1      -5.750  11.660  17.819  0.00  0.00    +0.000 A 
ATOM     17  C   UNL     1      -4.727  10.992  17.157  0.00  0.00    +0.000 A 
ATOM     18  C   UNL     1      -3.429  11.033  17.675  0.00  0.00    +0.000 A 
ATOM     19  H   UNL     1       0.684  10.882  20.103  0.00  0.00    +0.000 HD
ENDBRANCH   1  11
BRANCH   4  20
ATOM     20  O   UNL     1       3.893   6.026  18.356  0.00  0.00    +0.000 OA
BRANCH  20  21
ATOM     21  C   UNL     1       3.296   4.881  17.750  0.00  0.00    +0.000 C 
BRANCH  21  22
ATOM     22  C   UNL     1       2.660   4.026  18.816  0.00  0.00    +0.000 A 
ATOM     23  C   UNL     1       3.403   3.591  19.921  0.00  0.00    +0.000 A 
ATOM     24  C   UNL     1       2.785   2.877  20.947  0.00  0.00    +0.000 A 
ATOM     25  C   UNL     1       1.423   2.586  20.875  0.00  0.00    +0.000 A 
ATOM     26  C   UNL     1       0.682   2.996  19.769  0.00  0.00    +0.000 A 
ATOM     27  C   UNL     1       1.296   3.712  18.743  0.00  0.00    +0.000 A 
ENDBRANCH  21  22
ENDBRANCH  20  21
ENDBRANCH   4  20
TORSDOF 4
ENDMDL
MODEL 5
REMARK VINA RESULT:      -8.4      2.854      3.671
REMARK  Name = 
REMARK  4 active torsions:
REMARK  status: ('A' for Active; 'I' for Inactive)
REMARK    1  A    between atoms: N_5  and  C_6
REMARK    2  A    between atoms: C_9  and  O_10
REMARK    3  A    between atoms: O_10  and  C_11
REMARK    4  A    between atoms: C_11  and  C_12
REMARK                            x       y       z     vdW  Elec       q    Type
REMARK                         _______ _______ _______ _____ _____    ______ ____
ROOT
ATOM      1  C   UNL     1       1.931   6.695  20.225  0.00  0.00    +0.000 A 
ATOM      2  C   UNL     1       1.610   5.340  20.375  0.00  0.00    +0.000 A 
ATOM      3  C   UNL     1       1.890   4.407  19.374  0.00  0.00    +0.000 A 
ATOM      4  C   UNL     1       2.467   4.817  18.180  0.00  0.00    +0.000 A 
ATOM      5  C   UNL     1       2.782   6.163  18.002  0.00  0.00    +0.000 A 
ATOM      6  C   UNL     1       2.508   7.092  19.012  0.00  0.00    +0.000 A 
ENDROOT
BRANCH   1  11
ATOM      7  O   UNL     1      -0.125  11.067  18.771  0.00  0.00    +0.000 OA
ATOM      8  C   UNL     1      -0.028  10.522  19.866  0.00  0.00    +0.000 A 
ATOM      9  N   UNL     1       0.685   9.378  20.018  0.00  0.00    +0.000 NA
ATOM     10  C   UNL     1       1.042   8.841  21.132  0.00  0.00    +0.000 A 
ATOM     11  N   UNL     1       1.740   7.663  21.231  0.00  0.00    +0.000 N 
ATOM     12  S   UNL     1       0.683   9.513  22.703  0.00  0.00    +0.000 S 
ATOM     13  C   UNL     1      -0.543  10.703  22.280  0.00  0.00    +0.000 A 
ATOM     14  N   UNL     1      -1.223  11.231  23.333  0.00  0.00    +0.000 NA
ATOM     15  C   UNL     1      -2.151  12.179  23.071  0.00  0.00    +0.000 A 
ATOM     16  C   UNL     1      -2.443  12.641  21.799  0.00  0.00    +0.000 A 
ATOM     17  C   UNL     1      -1.740  12.090  20.735  0.00  0.00    +0.000 A 
ATOM     18  C   UNL     1      -0.778  11.104  20.980  0.00  0.00    +0.000 A 
ATOM     19  H   UNL     1       1.921   7.346  22.173  0.00  0.00    +0.000 HD
ENDBRANCH   1  11
BRANCH   4  20
ATOM     20  O   UNL     1       2.710   3.824  17.274  0.00  0.00    +0.000 OA
BRANCH  20  21
ATOM     21  C   UNL     1       3.926   3.113  17.495  0.00  0.00    +0.000 C 
BRANCH  21  22
ATOM     22  C   UNL     1       5.073   3.889  16.901  0.00  0.00    +0.000 A 
ATOM     23  C   UNL     1       6.111   4.366  17.713  0.00  0.00    +0.000 A 
ATOM     24  C   UNL     1       7.212   5.005  17.144  0.00  0.00    +0.000 A 
ATOM     25  C   UNL     1       7.285   5.176  15.763  0.00  0.00    +0.000 A 
ATOM     26  C   UNL     1       6.248   4.724  14.950  0.00  0.00    +0.000 A 
ATOM     27  C   UNL     1       5.146   4.084  15.515  0.00  0.00    +0.000 A 
ENDBRANCH  21  22
ENDBRANCH  20  21
ENDBRANCH   4  20
TORSDOF 4
ENDMDL
MODEL 6
REMARK VINA RESULT:      -8.3      2.095      3.179
REMARK  Name = 
REMARK  4 active torsions:
REMARK  status: ('A' for Active; 'I' for Inactive)
REMARK    1  A    between atoms: N_5  and  C_6
REMARK    2  A    between atoms: C_9  and  O_10
REMARK    3  A    between atoms: O_10  and  C_11
REMARK    4  A    between atoms: C_11  and  C_12
REMARK                            x       y       z     vdW  Elec       q    Type
REMARK                         _______ _______ _______ _____ _____    ______ ____
ROOT
ATOM      1  C   UNL     1       0.791   9.918  19.243  0.00  0.00    +0.000 A 
ATOM      2  C   UNL     1       1.427   9.702  18.013  0.00  0.00    +0.000 A 
ATOM      3  C   UNL     1       2.246   8.593  17.798  0.00  0.00    +0.000 A 
ATOM      4  C   UNL     1       2.479   7.688  18.825  0.00  0.00    +0.000 A 
ATOM      5  C   UNL     1       1.869   7.889  20.062  0.00  0.00    +0.000 A 
ATOM      6  C   UNL     1       1.041   8.998  20.269  0.00  0.00    +0.000 A 
ENDROOT
BRANCH   1  11
ATOM      7  O   UNL     1      -3.208  10.236  16.183  0.00  0.00    +0.000 OA
ATOM      8  C   UNL     1      -2.982  10.690  17.301  0.00  0.00    +0.000 A 
ATOM      9  N   UNL     1      -1.762  10.558  17.877  0.00  0.00    +0.000 NA
ATOM     10  C   UNL     1      -1.342  11.170  18.928  0.00  0.00    +0.000 A 
ATOM     11  N   UNL     1      -0.103  10.978  19.489  0.00  0.00    +0.000 N 
ATOM     12  S   UNL     1      -2.282  12.337  19.825  0.00  0.00    +0.000 S 
ATOM     13  C   UNL     1      -3.888  12.041  19.167  0.00  0.00    +0.000 A 
ATOM     14  N   UNL     1      -4.909  12.623  19.850  0.00  0.00    +0.000 NA
ATOM     15  C   UNL     1      -6.162  12.461  19.369  0.00  0.00    +0.000 A 
ATOM     16  C   UNL     1      -6.460  11.742  18.224  0.00  0.00    +0.000 A 
ATOM     17  C   UNL     1      -5.406  11.153  17.539  0.00  0.00    +0.000 A 
ATOM     18  C   UNL     1      -4.101  11.303  18.020  0.00  0.00    +0.000 A 
ATOM     19  H   UNL     1       0.075  11.504  20.334  0.00  0.00    +0.000 HD
ENDBRANCH   1  11
BRANCH   4  20
ATOM     20  O   UNL     1       3.284   6.632  18.506  0.00  0.00    +0.000 OA
BRANCH  20  21
ATOM     21  C   UNL     1       3.434   5.671  19.549  0.00  0.00    +0.000 C 
BRANCH  21  22
ATOM     22  C   UNL     1       2.557   4.480  19.261  0.00  0.00    +0.000 A 
ATOM     23  C   UNL     1       2.807   3.658  18.155  0.00  0.00    +0.000 A 
ATOM     24  C   UNL     1       2.046   2.508  17.947  0.00  0.00    +0.000 A 
ATOM     25  C   UNL     1       1.028   2.173  18.837  0.00  0.00    +0.000 A 
ATOM     26  C   UNL     1       0.757   2.996  19.928  0.00  0.00    +0.000 A 
ATOM     27  C   UNL     1       1.517   4.146  20.140  0.00  0.00    +0.000 A 
ENDBRANCH  21  22
ENDBRANCH  20  21
ENDBRANCH   4  20
TORSDOF 4
ENDMDL
MODEL 7
REMARK VINA RESULT:      -8.3      2.764      3.367
REMARK  Name = 
REMARK  4 active torsions:
REMARK  status: ('A' for Active; 'I' for Inactive)
REMARK    1  A    between atoms: N_5  and  C_6
REMARK    2  A    between atoms: C_9  and  O_10
REMARK    3  A    between atoms: O_10  and  C_11
REMARK    4  A    between atoms: C_11  and  C_12
REMARK                            x       y       z     vdW  Elec       q    Type
REMARK                         _______ _______ _______ _____ _____    ______ ____
ROOT
ATOM      1  C   UNL     1       1.967   6.774  20.325  0.00  0.00    +0.000 A 
ATOM      2  C   UNL     1       2.483   7.102  19.064  0.00  0.00    +0.000 A 
ATOM      3  C   UNL     1       2.675   6.133  18.078  0.00  0.00    +0.000 A 
ATOM      4  C   UNL     1       2.390   4.801  18.344  0.00  0.00    +0.000 A 
ATOM      5  C   UNL     1       1.890   4.447  19.596  0.00  0.00    +0.000 A 
ATOM      6  C   UNL     1       1.690   5.424  20.578  0.00  0.00    +0.000 A 
ENDROOT
BRANCH   1  11
ATOM      7  O   UNL     1      -0.002  11.155  18.781  0.00  0.00    +0.000 OA
ATOM      8  C   UNL     1       0.008  10.590  19.870  0.00  0.00    +0.000 A 
ATOM      9  N   UNL     1       0.717   9.450  20.062  0.00  0.00    +0.000 NA
ATOM     10  C   UNL     1       0.983   8.895  21.191  0.00  0.00    +0.000 A 
ATOM     11  N   UNL     1       1.683   7.721  21.328  0.00  0.00    +0.000 N 
ATOM     12  S   UNL     1       0.487   9.534  22.739  0.00  0.00    +0.000 S 
ATOM     13  C   UNL     1      -0.711  10.722  22.235  0.00  0.00    +0.000 A 
ATOM     14  N   UNL     1      -1.482  11.224  23.236  0.00  0.00    +0.000 NA
ATOM     15  C   UNL     1      -2.394  12.169  22.913  0.00  0.00    +0.000 A 
ATOM     16  C   UNL     1      -2.582  12.652  21.629  0.00  0.00    +0.000 A 
ATOM     17  C   UNL     1      -1.786  12.127  20.620  0.00  0.00    +0.000 A 
ATOM     18  C   UNL     1      -0.839  11.145  20.927  0.00  0.00    +0.000 A 
ATOM     19  H   UNL     1       1.786   7.388  22.277  0.00  0.00    +0.000 HD
ENDBRANCH   1  11
BRANCH   4  20
ATOM     20  O   UNL     1       2.602   3.936  17.307  0.00  0.00    +0.000 OA
BRANCH  20  21
ATOM     21  C   UNL     1       3.772   3.133  17.443  0.00  0.00    +0.000 C 
BRANCH  21  22
ATOM     22  C   UNL     1       4.983   3.945  17.063  0.00  0.00    +0.000 A 
ATOM     23  C   UNL     1       5.166   4.382  15.745  0.00  0.00    +0.000 A 
ATOM     24  C   UNL     1       6.242   5.208  15.421  0.00  0.00    +0.000 A 
ATOM     25  C   UNL     1       7.146   5.599  16.408  0.00  0.00    +0.000 A 
ATOM     26  C   UNL     1       6.984   5.151  17.717  0.00  0.00    +0.000 A 
ATOM     27  C   UNL     1       5.908   4.327  18.045  0.00  0.00    +0.000 A 
ENDBRANCH  21  22
ENDBRANCH  20  21
ENDBRANCH   4  20
TORSDOF 4
ENDMDL
MODEL 8
REMARK VINA RESULT:      -8.2      0.505      1.071
REMARK  Name = 
REMARK  4 active torsions:
REMARK  status: ('A' for Active; 'I' for Inactive)
REMARK    1  A    between atoms: N_5  and  C_6
REMARK    2  A    between atoms: C_9  and  O_10
REMARK    3  A    between atoms: O_10  and  C_11
REMARK    4  A    between atoms: C_11  and  C_12
REMARK                            x       y       z     vdW  Elec       q    Type
REMARK                         _______ _______ _______ _____ _____    ______ ____
ROOT
ATOM      1  C   UNL     1       1.520   8.930  19.192  0.00  0.00    +0.000 A 
ATOM      2  C   UNL     1       1.694   7.905  20.131  0.00  0.00    +0.000 A 
ATOM      3  C   UNL     1       2.396   6.739  19.820  0.00  0.00    +0.000 A 
ATOM      4  C   UNL     1       2.911   6.554  18.545  0.00  0.00    +0.000 A 
ATOM      5  C   UNL     1       2.738   7.554  17.588  0.00  0.00    +0.000 A 
ATOM      6  C   UNL     1       2.041   8.724  17.908  0.00  0.00    +0.000 A 
ENDROOT
BRANCH   1  11
ATOM      7  O   UNL     1      -2.560  10.039  16.438  0.00  0.00    +0.000 OA
ATOM      8  C   UNL     1      -2.156  10.450  17.522  0.00  0.00    +0.000 A 
ATOM      9  N   UNL     1      -0.947  10.072  18.007  0.00  0.00    +0.000 NA
ATOM     10  C   UNL     1      -0.326  10.596  19.005  0.00  0.00    +0.000 A 
ATOM     11  N   UNL     1       0.887  10.156  19.475  0.00  0.00    +0.000 N 
ATOM     12  S   UNL     1      -0.928  11.945  19.936  0.00  0.00    +0.000 S 
ATOM     13  C   UNL     1      -2.609  11.983  19.412  0.00  0.00    +0.000 A 
ATOM     14  N   UNL     1      -3.427  12.774  20.155  0.00  0.00    +0.000 NA
ATOM     15  C   UNL     1      -4.721  12.872  19.775  0.00  0.00    +0.000 A 
ATOM     16  C   UNL     1      -5.254  12.217  18.677  0.00  0.00    +0.000 A 
ATOM     17  C   UNL     1      -4.403  11.412  17.931  0.00  0.00    +0.000 A 
ATOM     18  C   UNL     1      -3.061  11.292  18.306  0.00  0.00    +0.000 A 
ATOM     19  H   UNL     1       1.238  10.644  20.288  0.00  0.00    +0.000 HD
ENDBRANCH   1  11
BRANCH   4  20
ATOM     20  O   UNL     1       3.591   5.385  18.349  0.00  0.00    +0.000 OA
BRANCH  20  21
ATOM     21  C   UNL     1       4.492   5.409  17.245  0.00  0.00    +0.000 C 
BRANCH  21  22
ATOM     22  C   UNL     1       5.832   5.922  17.705  0.00  0.00    +0.000 A 
ATOM     23  C   UNL     1       6.432   7.020  17.076  0.00  0.00    +0.000 A 
ATOM     24  C   UNL     1       7.628   7.544  17.564  0.00  0.00    +0.000 A 
ATOM     25  C   UNL     1       8.238   6.972  18.679  0.00  0.00    +0.000 A 
ATOM     26  C   UNL     1       7.661   5.865  19.298  0.00  0.00    +0.000 A 
ATOM     27  C   UNL     1       6.463   5.341  18.813  0.00  0.00    +0.000 A 
ENDBRANCH  21  22
ENDBRANCH  20  21
ENDBRANCH   4  20
TORSDOF 4
ENDMDL
MODEL 9
REMARK VINA RESULT:      -8.2      1.112      1.789
REMARK  Name = 
REMARK  4 active torsions:
REMARK  status: ('A' for Active; 'I' for Inactive)
REMARK    1  A    between atoms: N_5  and  C_6
REMARK    2  A    between atoms: C_9  and  O_10
REMARK    3  A    between atoms: O_10  and  C_11
REMARK    4  A    between atoms: C_11  and  C_12
REMARK                            x       y       z     vdW  Elec       q    Type
REMARK                         _______ _______ _______ _____ _____    ______ ____
ROOT
ATOM      1  C   UNL     1       1.053   9.220  19.415  0.00  0.00    +0.000 A 
ATOM      2  C   UNL     1       1.254   8.245  20.401  0.00  0.00    +0.000 A 
ATOM      3  C   UNL     1       2.118   7.168  20.199  0.00  0.00    +0.000 A 
ATOM      4  C   UNL     1       2.777   7.020  18.986  0.00  0.00    +0.000 A 
ATOM      5  C   UNL     1       2.583   7.970  17.984  0.00  0.00    +0.000 A 
ATOM      6  C   UNL     1       1.722   9.052  18.195  0.00  0.00    +0.000 A 
ENDROOT
BRANCH   1  11
ATOM      7  O   UNL     1      -2.486  10.054  15.917  0.00  0.00    +0.000 OA
ATOM      8  C   UNL     1      -2.352  10.452  17.070  0.00  0.00    +0.000 A 
ATOM      9  N   UNL     1      -1.232  10.172  17.782  0.00  0.00    +0.000 NA
ATOM     10  C   UNL     1      -0.881  10.707  18.898  0.00  0.00    +0.000 A 
ATOM     11  N   UNL     1       0.252  10.365  19.594  0.00  0.00    +0.000 N 
ATOM     12  S   UNL     1      -1.794  11.947  19.721  0.00  0.00    +0.000 S 
ATOM     13  C   UNL     1      -3.331  11.846  18.866  0.00  0.00    +0.000 A 
ATOM     14  N   UNL     1      -4.359  12.520  19.446  0.00  0.00    +0.000 NA
ATOM     15  C   UNL     1      -5.554  12.509  18.813  0.00  0.00    +0.000 A 
ATOM     16  C   UNL     1      -5.785  11.857  17.614  0.00  0.00    +0.000 A 
ATOM     17  C   UNL     1      -4.723  11.173  17.036  0.00  0.00    +0.000 A 
ATOM     18  C   UNL     1      -3.478  11.166  17.674  0.00  0.00    +0.000 A 
ATOM     19  H   UNL     1       0.381  10.847  20.473  0.00  0.00    +0.000 HD
ENDBRANCH   1  11
BRANCH   4  20
ATOM     20  O   UNL     1       3.608   5.940  18.897  0.00  0.00    +0.000 OA
BRANCH  20  21
ATOM     21  C   UNL     1       3.391   5.125  17.747  0.00  0.00    +0.000 C 
BRANCH  21  22
ATOM     22  C   UNL     1       4.664   5.041  16.945  0.00  0.00    +0.000 A 
ATOM     23  C   UNL     1       5.724   5.923  17.192  0.00  0.00    +0.000 A 
ATOM     24  C   UNL     1       6.931   5.781  16.508  0.00  0.00    +0.000 A 
ATOM     25  C   UNL     1       7.087   4.762  15.570  0.00  0.00    +0.000 A 
ATOM     26  C   UNL     1       6.031   3.894  15.302  0.00  0.00    +0.000 A 
ATOM     27  C   UNL     1       4.823   4.032  15.985  0.00  0.00    +0.000 A 
ENDBRANCH  21  22
ENDBRANCH  20  21
ENDBRANCH   4  20
TORSDOF 4
ENDMDL
