MODEL 1
REMARK VINA RESULT:      -6.7      0.000      0.000
REMARK  Name = 
REMARK  3 active torsions:
REMARK  status: ('A' for Active; 'I' for Inactive)
REMARK    1  A    between atoms: C_2  and  C_11
REMARK    2  A    between atoms: N_3  and  C_4
REMARK    3  A    between atoms: C_9  and  O_10
REMARK                            x       y       z     vdW  Elec       q    Type
REMARK                         _______ _______ _______ _____ _____    ______ ____
ROOT
ATOM      1  O   UNL     1       5.500   3.379  19.518  0.00  0.00    +0.000 OA
ATOM      2  C   UNL     1       5.287   4.375  18.834  0.00  0.00    +0.000 C 
ATOM      3  N   UNL     1       4.039   4.890  18.517  0.00  0.00    +0.000 N 
ATOM      4  H   UNL     1       3.945   5.299  17.601  0.00  0.00    +0.000 HD
ENDROOT
BRANCH   3   5
ATOM      5  C   UNL     1       2.857   4.280  18.939  0.00  0.00    +0.000 A 
ATOM      6  N   UNL     1       2.394   3.331  18.090  0.00  0.00    +0.000 NA
ATOM      7  C   UNL     1       1.303   2.640  18.483  0.00  0.00    +0.000 A 
ATOM      8  C   UNL     1       0.611   2.891  19.658  0.00  0.00    +0.000 A 
ATOM      9  C   UNL     1       1.051   3.927  20.476  0.00  0.00    +0.000 A 
ATOM     10  C   UNL     1       2.190   4.639  20.112  0.00  0.00    +0.000 A 
BRANCH  10  11
ATOM     11  O   UNL     1       2.581   5.726  20.841  0.00  0.00    +0.000 OA
ATOM     12  H   UNL     1       2.742   6.469  20.238  0.00  0.00    +0.000 HD
ENDBRANCH  10  11
ENDBRANCH   3   5
BRANCH   2  13
ATOM     13  C   UNL     1       6.418   5.202  18.228  0.00  0.00    +0.000 C 
ATOM     14  C   UNL     1       5.948   6.480  17.534  0.00  0.00    +0.000 C 
ATOM     15  C   UNL     1       7.234   7.279  17.358  0.00  0.00    +0.000 C 
ATOM     16  C   UNL     1       8.115   6.905  18.548  0.00  0.00    +0.000 C 
ATOM     17  C   UNL     1       7.410   5.746  19.253  0.00  0.00    +0.000 C 
ENDBRANCH   2  13
TORSDOF 3
ENDMDL
MODEL 2
REMARK VINA RESULT:      -6.7      1.708      1.976
REMARK  Name = 
REMARK  3 active torsions:
REMARK  status: ('A' for Active; 'I' for Inactive)
REMARK    1  A    between atoms: C_2  and  C_11
REMARK    2  A    between atoms: N_3  and  C_4
REMARK    3  A    between atoms: C_9  and  O_10
REMARK                            x       y       z     vdW  Elec       q    Type
REMARK                         _______ _______ _______ _____ _____    ______ ____
ROOT
ATOM      1  O   UNL     1       5.552   3.874  16.296  0.00  0.00    +0.000 OA
ATOM      2  C   UNL     1       5.705   4.629  17.251  0.00  0.00    +0.000 C 
ATOM      3  N   UNL     1       4.888   4.697  18.370  0.00  0.00    +0.000 N 
ATOM      4  H   UNL     1       4.758   5.612  18.772  0.00  0.00    +0.000 HD
ENDROOT
BRANCH   3   5
ATOM      5  C   UNL     1       3.750   3.902  18.506  0.00  0.00    +0.000 A 
ATOM      6  N   UNL     1       2.612   4.490  18.065  0.00  0.00    +0.000 NA
ATOM      7  C   UNL     1       1.489   3.740  18.086  0.00  0.00    +0.000 A 
ATOM      8  C   UNL     1       1.433   2.448  18.584  0.00  0.00    +0.000 A 
ATOM      9  C   UNL     1       2.593   1.891  19.113  0.00  0.00    +0.000 A 
ATOM     10  C   UNL     1       3.773   2.629  19.080  0.00  0.00    +0.000 A 
BRANCH  10  11
ATOM     11  O   UNL     1       4.899   2.148  19.685  0.00  0.00    +0.000 OA
ATOM     12  H   UNL     1       5.176   2.772  20.375  0.00  0.00    +0.000 HD
ENDBRANCH  10  11
ENDBRANCH   3   5
BRANCH   2  13
ATOM     13  C   UNL     1       6.863   5.620  17.326  0.00  0.00    +0.000 C 
ATOM     14  C   UNL     1       6.454   7.071  17.076  0.00  0.00    +0.000 C 
ATOM     15  C   UNL     1       7.660   7.866  17.562  0.00  0.00    +0.000 C 
ATOM     16  C   UNL     1       8.258   7.048  18.704  0.00  0.00    +0.000 C 
ATOM     17  C   UNL     1       7.518   5.710  18.703  0.00  0.00    +0.000 C 
ENDBRANCH   2  13
TORSDOF 3
ENDMDL
MODEL 3
REMARK VINA RESULT:      -6.5      2.059      5.639
REMARK  Name = 
REMARK  3 active torsions:
REMARK  status: ('A' for Active; 'I' for Inactive)
REMARK    1  A    between atoms: C_2  and  C_11
REMARK    2  A    between atoms: N_3  and  C_4
REMARK    3  A    between atoms: C_9  and  O_10
REMARK                            x       y       z     vdW  Elec       q    Type
REMARK                         _______ _______ _______ _____ _____    ______ ____
ROOT
ATOM      1  O   UNL     1       3.388   6.372  17.746  0.00  0.00    +0.000 OA
ATOM      2  C   UNL     1       3.175   5.180  17.945  0.00  0.00    +0.000 C 
ATOM      3  N   UNL     1       3.952   4.129  17.481  0.00  0.00    +0.000 N 
ATOM      4  H   UNL     1       3.457   3.289  17.223  0.00  0.00    +0.000 HD
ENDROOT
BRANCH   3   5
ATOM      5  C   UNL     1       5.078   4.335  16.685  0.00  0.00    +0.000 A 
ATOM      6  N   UNL     1       4.812   4.395  15.358  0.00  0.00    +0.000 NA
ATOM      7  C   UNL     1       5.846   4.682  14.539  0.00  0.00    +0.000 A 
ATOM      8  C   UNL     1       7.151   4.853  14.974  0.00  0.00    +0.000 A 
ATOM      9  C   UNL     1       7.422   4.702  16.331  0.00  0.00    +0.000 A 
ATOM     10  C   UNL     1       6.371   4.434  17.203  0.00  0.00    +0.000 A 
BRANCH  10  11
ATOM     11  O   UNL     1       6.624   4.179  18.521  0.00  0.00    +0.000 OA
ATOM     12  H   UNL     1       7.568   4.324  18.695  0.00  0.00    +0.000 HD
ENDBRANCH  10  11
ENDBRANCH   3   5
BRANCH   2  13
ATOM     13  C   UNL     1       1.983   4.693  18.764  0.00  0.00    +0.000 C 
ATOM     14  C   UNL     1       1.557   3.260  18.448  0.00  0.00    +0.000 C 
ATOM     15  C   UNL     1       0.640   2.900  19.610  0.00  0.00    +0.000 C 
ATOM     16  C   UNL     1       1.177   3.674  20.812  0.00  0.00    +0.000 C 
ATOM     17  C   UNL     1       2.246   4.620  20.266  0.00  0.00    +0.000 C 
ENDBRANCH   2  13
TORSDOF 3
ENDMDL
MODEL 4
REMARK VINA RESULT:      -6.5      1.601      5.793
REMARK  Name = 
REMARK  3 active torsions:
REMARK  status: ('A' for Active; 'I' for Inactive)
REMARK    1  A    between atoms: C_2  and  C_11
REMARK    2  A    between atoms: N_3  and  C_4
REMARK    3  A    between atoms: C_9  and  O_10
REMARK                            x       y       z     vdW  Elec       q    Type
REMARK                         _______ _______ _______ _____ _____    ______ ____
ROOT
ATOM      1  O   UNL     1       2.985   6.793  18.904  0.00  0.00    +0.000 OA
ATOM      2  C   UNL     1       3.095   5.578  18.780  0.00  0.00    +0.000 C 
ATOM      3  N   UNL     1       4.283   4.885  18.599  0.00  0.00    +0.000 N 
ATOM      4  H   UNL     1       4.240   4.075  18.001  0.00  0.00    +0.000 HD
ENDROOT
BRANCH   3   5
ATOM      5  C   UNL     1       5.513   5.536  18.506  0.00  0.00    +0.000 A 
ATOM      6  N   UNL     1       6.344   5.296  19.549  0.00  0.00    +0.000 NA
ATOM      7  C   UNL     1       7.584   5.825  19.477  0.00  0.00    +0.000 A 
ATOM      8  C   UNL     1       8.019   6.636  18.440  0.00  0.00    +0.000 A 
ATOM      9  C   UNL     1       7.123   6.944  17.420  0.00  0.00    +0.000 A 
ATOM     10  C   UNL     1       5.847   6.390  17.452  0.00  0.00    +0.000 A 
BRANCH  10  11
ATOM     11  O   UNL     1       4.917   6.758  16.522  0.00  0.00    +0.000 OA
ATOM     12  H   UNL     1       5.362   6.898  15.671  0.00  0.00    +0.000 HD
ENDBRANCH  10  11
ENDBRANCH   3   5
BRANCH   2  13
ATOM     13  C   UNL     1       1.888   4.644  18.816  0.00  0.00    +0.000 C 
ATOM     14  C   UNL     1       2.137   3.284  18.165  0.00  0.00    +0.000 C 
ATOM     15  C   UNL     1       0.963   2.442  18.648  0.00  0.00    +0.000 C 
ATOM     16  C   UNL     1       0.616   2.978  20.035  0.00  0.00    +0.000 C 
ATOM     17  C   UNL     1       1.449   4.246  20.223  0.00  0.00    +0.000 C 
ENDBRANCH   2  13
TORSDOF 3
ENDMDL
MODEL 5
REMARK VINA RESULT:      -6.5      1.710      5.697
REMARK  Name = 
REMARK  3 active torsions:
REMARK  status: ('A' for Active; 'I' for Inactive)
REMARK    1  A    between atoms: C_2  and  C_11
REMARK    2  A    between atoms: N_3  and  C_4
REMARK    3  A    between atoms: C_9  and  O_10
REMARK                            x       y       z     vdW  Elec       q    Type
REMARK                         _______ _______ _______ _____ _____    ______ ____
ROOT
ATOM      1  O   UNL     1       4.453   3.182  17.539  0.00  0.00    +0.000 OA
ATOM      2  C   UNL     1       3.997   3.610  18.595  0.00  0.00    +0.000 C 
ATOM      3  N   UNL     1       4.459   4.719  19.288  0.00  0.00    +0.000 N 
ATOM      4  H   UNL     1       4.422   4.663  20.294  0.00  0.00    +0.000 HD
ENDROOT
BRANCH   3   5
ATOM      5  C   UNL     1       5.552   5.465  18.848  0.00  0.00    +0.000 A 
ATOM      6  N   UNL     1       6.673   5.287  19.586  0.00  0.00    +0.000 NA
ATOM      7  C   UNL     1       7.792   5.912  19.159  0.00  0.00    +0.000 A 
ATOM      8  C   UNL     1       7.832   6.759  18.062  0.00  0.00    +0.000 A 
ATOM      9  C   UNL     1       6.651   6.999  17.367  0.00  0.00    +0.000 A 
ATOM     10  C   UNL     1       5.488   6.346  17.766  0.00  0.00    +0.000 A 
BRANCH  10  11
ATOM     11  O   UNL     1       4.297   6.643  17.168  0.00  0.00    +0.000 OA
ATOM     12  H   UNL     1       4.008   5.879  16.644  0.00  0.00    +0.000 HD
ENDBRANCH  10  11
ENDBRANCH   3   5
BRANCH   2  13
ATOM     13  C   UNL     1       2.815   2.947  19.297  0.00  0.00    +0.000 C 
ATOM     14  C   UNL     1       2.803   3.146  20.812  0.00  0.00    +0.000 C 
ATOM     15  C   UNL     1       1.391   2.736  21.211  0.00  0.00    +0.000 C 
ATOM     16  C   UNL     1       0.506   3.104  20.022  0.00  0.00    +0.000 C 
ATOM     17  C   UNL     1       1.454   3.512  18.894  0.00  0.00    +0.000 C 
ENDBRANCH   2  13
TORSDOF 3
ENDMDL
MODEL 6
REMARK VINA RESULT:      -6.5      1.520      5.858
REMARK  Name = 
REMARK  3 active torsions:
REMARK  status: ('A' for Active; 'I' for Inactive)
REMARK    1  A    between atoms: C_2  and  C_11
REMARK    2  A    between atoms: N_3  and  C_4
REMARK    3  A    between atoms: C_9  and  O_10
REMARK                            x       y       z     vdW  Elec       q    Type
REMARK                         _______ _______ _______ _____ _____    ______ ____
ROOT
ATOM      1  O   UNL     1       3.392   6.101  19.357  0.00  0.00    +0.000 OA
ATOM      2  C   UNL     1       3.883   4.982  19.463  0.00  0.00    +0.000 C 
ATOM      3  N   UNL     1       5.188   4.636  19.144  0.00  0.00    +0.000 N 
ATOM      4  H   UNL     1       5.322   3.716  18.755  0.00  0.00    +0.000 HD
ENDROOT
BRANCH   3   5
ATOM      5  C   UNL     1       6.093   5.559  18.621  0.00  0.00    +0.000 A 
ATOM      6  N   UNL     1       5.730   6.065  17.418  0.00  0.00    +0.000 NA
ATOM      7  C   UNL     1       6.517   7.031  16.898  0.00  0.00    +0.000 A 
ATOM      8  C   UNL     1       7.688   7.476  17.493  0.00  0.00    +0.000 A 
ATOM      9  C   UNL     1       8.092   6.883  18.686  0.00  0.00    +0.000 A 
ATOM     10  C   UNL     1       7.285   5.905  19.260  0.00  0.00    +0.000 A 
BRANCH  10  11
ATOM     11  O   UNL     1       7.709   5.236  20.373  0.00  0.00    +0.000 OA
ATOM     12  H   UNL     1       8.123   5.868  20.982  0.00  0.00    +0.000 HD
ENDBRANCH  10  11
ENDBRANCH   3   5
BRANCH   2  13
ATOM     13  C   UNL     1       3.085   3.790  19.985  0.00  0.00    +0.000 C 
ATOM     14  C   UNL     1       2.268   4.092  21.239  0.00  0.00    +0.000 C 
ATOM     15  C   UNL     1       1.312   2.909  21.331  0.00  0.00    +0.000 C 
ATOM     16  C   UNL     1       1.043   2.486  19.889  0.00  0.00    +0.000 C 
ATOM     17  C   UNL     1       2.012   3.289  19.021  0.00  0.00    +0.000 C 
ENDBRANCH   2  13
TORSDOF 3
ENDMDL
MODEL 7
REMARK VINA RESULT:      -6.5      2.105      2.875
REMARK  Name = 
REMARK  3 active torsions:
REMARK  status: ('A' for Active; 'I' for Inactive)
REMARK    1  A    between atoms: C_2  and  C_11
REMARK    2  A    between atoms: N_3  and  C_4
REMARK    3  A    between atoms: C_9  and  O_10
REMARK                            x       y       z     vdW  Elec       q    Type
REMARK                         _______ _______ _______ _____ _____    ______ ____
ROOT
ATOM      1  O   UNL     1       5.734   3.973  18.968  0.00  0.00    +0.000 OA
ATOM      2  C   UNL     1       5.024   4.345  18.040  0.00  0.00    +0.000 C 
ATOM      3  N   UNL     1       3.637   4.345  18.029  0.00  0.00    +0.000 N 
ATOM      4  H   UNL     1       3.198   4.137  17.146  0.00  0.00    +0.000 HD
ENDROOT
BRANCH   3   5
ATOM      5  C   UNL     1       2.888   3.874  19.108  0.00  0.00    +0.000 A 
ATOM      6  N   UNL     1       2.801   4.745  20.141  0.00  0.00    +0.000 NA
ATOM      7  C   UNL     1       2.016   4.386  21.179  0.00  0.00    +0.000 A 
ATOM      8  C   UNL     1       1.359   3.168  21.265  0.00  0.00    +0.000 A 
ATOM      9  C   UNL     1       1.528   2.250  20.233  0.00  0.00    +0.000 A 
ATOM     10  C   UNL     1       2.309   2.603  19.136  0.00  0.00    +0.000 A 
BRANCH  10  11
ATOM     11  O   UNL     1       2.577   1.684  18.162  0.00  0.00    +0.000 OA
ATOM     12  H   UNL     1       2.806   2.151  17.343  0.00  0.00    +0.000 HD
ENDBRANCH  10  11
ENDBRANCH   3   5
BRANCH   2  13
ATOM     13  C   UNL     1       5.606   4.876  16.733  0.00  0.00    +0.000 C 
ATOM     14  C   UNL     1       7.098   4.595  16.560  0.00  0.00    +0.000 C 
ATOM     15  C   UNL     1       7.340   4.875  15.082  0.00  0.00    +0.000 C 
ATOM     16  C   UNL     1       6.037   4.506  14.375  0.00  0.00    +0.000 C 
ATOM     17  C   UNL     1       5.016   4.234  15.480  0.00  0.00    +0.000 C 
ENDBRANCH   2  13
TORSDOF 3
ENDMDL
MODEL 8
REMARK VINA RESULT:      -6.5      2.161      2.854
REMARK  Name = 
REMARK  3 active torsions:
REMARK  status: ('A' for Active; 'I' for Inactive)
REMARK    1  A    between atoms: C_2  and  C_11
REMARK    2  A    between atoms: N_3  and  C_4
REMARK    3  A    between atoms: C_9  and  O_10
REMARK                            x       y       z     vdW  Elec       q    Type
REMARK                         _______ _______ _______ _____ _____    ______ ____
ROOT
ATOM      1  O   UNL     1       4.788   5.877  18.713  0.00  0.00    +0.000 OA
ATOM      2  C   UNL     1       4.592   5.045  17.833  0.00  0.00    +0.000 C 
ATOM      3  N   UNL     1       3.773   3.930  17.938  0.00  0.00    +0.000 N 
ATOM      4  H   UNL     1       4.083   3.102  17.454  0.00  0.00    +0.000 HD
ENDROOT
BRANCH   3   5
ATOM      5  C   UNL     1       3.091   3.620  19.115  0.00  0.00    +0.000 A 
ATOM      6  N   UNL     1       1.898   4.249  19.242  0.00  0.00    +0.000 NA
ATOM      7  C   UNL     1       1.147   3.925  20.316  0.00  0.00    +0.000 A 
ATOM      8  C   UNL     1       1.556   3.045  21.306  0.00  0.00    +0.000 A 
ATOM      9  C   UNL     1       2.821   2.474  21.204  0.00  0.00    +0.000 A 
ATOM     10  C   UNL     1       3.607   2.768  20.093  0.00  0.00    +0.000 A 
BRANCH  10  11
ATOM     11  O   UNL     1       4.890   2.305  20.021  0.00  0.00    +0.000 OA
ATOM     12  H   UNL     1       4.932   1.428  20.434  0.00  0.00    +0.000 HD
ENDBRANCH  10  11
ENDBRANCH   3   5
BRANCH   2  13
ATOM     13  C   UNL     1       5.251   5.144  16.460  0.00  0.00    +0.000 C 
ATOM     14  C   UNL     1       6.778   5.162  16.504  0.00  0.00    +0.000 C 
ATOM     15  C   UNL     1       7.176   4.892  15.059  0.00  0.00    +0.000 C 
ATOM     16  C   UNL     1       6.079   3.993  14.492  0.00  0.00    +0.000 C 
ATOM     17  C   UNL     1       4.976   3.949  15.549  0.00  0.00    +0.000 C 
ENDBRANCH   2  13
TORSDOF 3
ENDMDL
MODEL 9
REMARK VINA RESULT:      -6.5      2.186      5.576
REMARK  Name = 
REMARK  3 active torsions:
REMARK  status: ('A' for Active; 'I' for Inactive)
REMARK    1  A    between atoms: C_2  and  C_11
REMARK    2  A    between atoms: N_3  and  C_4
REMARK    3  A    between atoms: C_9  and  O_10
REMARK                            x       y       z     vdW  Elec       q    Type
REMARK                         _______ _______ _______ _____ _____    ______ ____
ROOT
ATOM      1  O   UNL     1       3.902   1.727  17.670  0.00  0.00    +0.000 OA
ATOM      2  C   UNL     1       3.483   2.782  18.134  0.00  0.00    +0.000 C 
ATOM      3  N   UNL     1       3.964   4.048  17.833  0.00  0.00    +0.000 N 
ATOM      4  H   UNL     1       3.965   4.715  18.588  0.00  0.00    +0.000 HD
ENDROOT
BRANCH   3   5
ATOM      5  C   UNL     1       5.037   4.245  16.963  0.00  0.00    +0.000 A 
ATOM      6  N   UNL     1       4.688   4.263  15.654  0.00  0.00    +0.000 NA
ATOM      7  C   UNL     1       5.666   4.539  14.765  0.00  0.00    +0.000 A 
ATOM      8  C   UNL     1       6.993   4.739  15.114  0.00  0.00    +0.000 A 
ATOM      9  C   UNL     1       7.349   4.631  16.455  0.00  0.00    +0.000 A 
ATOM     10  C   UNL     1       6.357   4.375  17.398  0.00  0.00    +0.000 A 
BRANCH  10  11
ATOM     11  O   UNL     1       6.694   4.161  18.704  0.00  0.00    +0.000 OA
ATOM     12  H   UNL     1       6.415   4.927  19.231  0.00  0.00    +0.000 HD
ENDBRANCH  10  11
ENDBRANCH   3   5
BRANCH   2  13
ATOM     13  C   UNL     1       2.331   2.831  19.134  0.00  0.00    +0.000 C 
ATOM     14  C   UNL     1       2.767   2.671  20.589  0.00  0.00    +0.000 C 
ATOM     15  C   UNL     1       1.541   3.117  21.376  0.00  0.00    +0.000 C 
ATOM     16  C   UNL     1       0.867   4.183  20.516  0.00  0.00    +0.000 C 
ATOM     17  C   UNL     1       1.593   4.167  19.171  0.00  0.00    +0.000 C 
ENDBRANCH   2  13
TORSDOF 3
ENDMDL
