MODEL 1
REMARK VINA RESULT:      -6.7      0.000      0.000
REMARK  Name = 
REMARK  5 active torsions:
REMARK  status: ('A' for Active; 'I' for Inactive)
REMARK    1  A    between atoms: C_6  and  O_7
REMARK    2  A    between atoms: O_7  and  C_8
REMARK    3  A    between atoms: C_8  and  C_9
REMARK    4  A    between atoms: C_9  and  N_10
REMARK    5  A    between atoms: N_10  and  C_11
REMARK                            x       y       z     vdW  Elec       q    Type
REMARK                         _______ _______ _______ _____ _____    ______ ____
ROOT
ATOM      1  O   UNL     1       6.690   5.524  19.779  0.00  0.00    +0.000 OA
ENDROOT
BRANCH   1   7
ATOM      2  C   UNL     1       4.350   6.077  19.257  0.00  0.00    +0.000 A 
ATOM      3  C   UNL     1       3.109   5.642  18.809  0.00  0.00    +0.000 A 
ATOM      4  C   UNL     1       2.972   4.309  18.470  0.00  0.00    +0.000 A 
ATOM      5  C   UNL     1       4.022   3.402  18.627  0.00  0.00    +0.000 A 
ATOM      6  C   UNL     1       5.256   3.826  19.077  0.00  0.00    +0.000 A 
ATOM      7  C   UNL     1       5.430   5.181  19.376  0.00  0.00    +0.000 A 
ATOM      8  C   UNL     1       3.575   2.016  18.289  0.00  0.00    +0.000 C 
ATOM      9  C   UNL     1       2.337   2.317  17.437  0.00  0.00    +0.000 C 
ATOM     10  C   UNL     1       1.740   3.627  17.973  0.00  0.00    +0.000 C 
ENDBRANCH   1   7
BRANCH   1  11
ATOM     11  C   UNL     1       7.682   5.588  18.753  0.00  0.00    +0.000 C 
BRANCH  11  12
ATOM     12  C   UNL     1       7.367   6.767  17.826  0.00  0.00    +0.000 C 
BRANCH  12  13
ATOM     13  N   UNL     1       7.574   6.403  16.422  0.00  0.00    +0.000 NA
ATOM     14  H   UNL     1       8.562   6.228  16.242  0.00  0.00    +0.000 HD
BRANCH  13  15
ATOM     15  C   UNL     1       6.771   5.272  15.993  0.00  0.00    +0.000 C 
ATOM     16  C   UNL     1       5.296   5.587  15.751  0.00  0.00    +0.000 C 
ATOM     17  C   UNL     1       4.826   4.406  14.917  0.00  0.00    +0.000 C 
ATOM     18  C   UNL     1       6.033   3.996  14.072  0.00  0.00    +0.000 C 
ATOM     19  C   UNL     1       7.223   4.784  14.617  0.00  0.00    +0.000 C 
ENDBRANCH  13  15
ENDBRANCH  12  13
ENDBRANCH  11  12
ENDBRANCH   1  11
TORSDOF 5
ENDMDL
MODEL 2
REMARK VINA RESULT:      -6.5      1.766      2.491
REMARK  Name = 
REMARK  5 active torsions:
REMARK  status: ('A' for Active; 'I' for Inactive)
REMARK    1  A    between atoms: C_6  and  O_7
REMARK    2  A    between atoms: O_7  and  C_8
REMARK    3  A    between atoms: C_8  and  C_9
REMARK    4  A    between atoms: C_9  and  N_10
REMARK    5  A    between atoms: N_10  and  C_11
REMARK                            x       y       z     vdW  Elec       q    Type
REMARK                         _______ _______ _______ _____ _____    ______ ____
ROOT
ATOM      1  O   UNL     1       4.929   6.296  18.144  0.00  0.00    +0.000 OA
ENDROOT
BRANCH   1   7
ATOM      2  C   UNL     1       2.975   4.970  17.453  0.00  0.00    +0.000 A 
ATOM      3  C   UNL     1       1.921   4.145  17.825  0.00  0.00    +0.000 A 
ATOM      4  C   UNL     1       1.770   3.849  19.166  0.00  0.00    +0.000 A 
ATOM      5  C   UNL     1       2.605   4.405  20.138  0.00  0.00    +0.000 A 
ATOM      6  C   UNL     1       3.651   5.232  19.776  0.00  0.00    +0.000 A 
ATOM      7  C   UNL     1       3.852   5.501  18.418  0.00  0.00    +0.000 A 
ATOM      8  C   UNL     1       2.159   4.006  21.507  0.00  0.00    +0.000 C 
ATOM      9  C   UNL     1       1.320   2.764  21.182  0.00  0.00    +0.000 C 
ATOM     10  C   UNL     1       0.715   2.993  19.788  0.00  0.00    +0.000 C 
ENDBRANCH   1   7
BRANCH   1  11
ATOM     11  C   UNL     1       5.318   6.374  16.771  0.00  0.00    +0.000 C 
BRANCH  11  12
ATOM     12  C   UNL     1       6.460   5.384  16.519  0.00  0.00    +0.000 C 
BRANCH  12  13
ATOM     13  N   UNL     1       7.176   5.710  15.282  0.00  0.00    +0.000 NA
ATOM     14  H   UNL     1       8.135   5.984  15.488  0.00  0.00    +0.000 HD
BRANCH  13  15
ATOM     15  C   UNL     1       7.153   4.639  14.301  0.00  0.00    +0.000 C 
ATOM     16  C   UNL     1       5.760   4.122  13.949  0.00  0.00    +0.000 C 
ATOM     17  C   UNL     1       5.991   3.378  12.643  0.00  0.00    +0.000 C 
ATOM     18  C   UNL     1       7.112   4.138  11.933  0.00  0.00    +0.000 C 
ATOM     19  C   UNL     1       7.659   5.139  12.949  0.00  0.00    +0.000 C 
ENDBRANCH  13  15
ENDBRANCH  12  13
ENDBRANCH  11  12
ENDBRANCH   1  11
TORSDOF 5
ENDMDL
MODEL 3
REMARK VINA RESULT:      -6.5      2.527      5.054
REMARK  Name = 
REMARK  5 active torsions:
REMARK  status: ('A' for Active; 'I' for Inactive)
REMARK    1  A    between atoms: C_6  and  O_7
REMARK    2  A    between atoms: O_7  and  C_8
REMARK    3  A    between atoms: C_8  and  C_9
REMARK    4  A    between atoms: C_9  and  N_10
REMARK    5  A    between atoms: N_10  and  C_11
REMARK                            x       y       z     vdW  Elec       q    Type
REMARK                         _______ _______ _______ _____ _____    ______ ____
ROOT
ATOM      1  O   UNL     1       2.565   6.263  19.457  0.00  0.00    +0.000 OA
ENDROOT
BRANCH   1   7
ATOM      2  C   UNL     1       4.809   5.264  19.587  0.00  0.00    +0.000 A 
ATOM      3  C   UNL     1       5.940   4.819  18.915  0.00  0.00    +0.000 A 
ATOM      4  C   UNL     1       5.963   4.929  17.538  0.00  0.00    +0.000 A 
ATOM      5  C   UNL     1       4.916   5.526  16.834  0.00  0.00    +0.000 A 
ATOM      6  C   UNL     1       3.791   5.976  17.496  0.00  0.00    +0.000 A 
ATOM      7  C   UNL     1       3.726   5.825  18.885  0.00  0.00    +0.000 A 
ATOM      8  C   UNL     1       5.242   5.612  15.378  0.00  0.00    +0.000 C 
ATOM      9  C   UNL     1       6.336   4.543  15.268  0.00  0.00    +0.000 C 
ATOM     10  C   UNL     1       7.068   4.522  16.619  0.00  0.00    +0.000 C 
ENDBRANCH   1   7
BRANCH   1  11
ATOM     11  C   UNL     1       2.169   5.602  20.659  0.00  0.00    +0.000 C 
BRANCH  11  12
ATOM     12  C   UNL     1       1.006   4.654  20.349  0.00  0.00    +0.000 C 
BRANCH  12  13
ATOM     13  N   UNL     1       1.316   3.284  20.769  0.00  0.00    +0.000 NA
ATOM     14  H   UNL     1       0.513   2.865  21.235  0.00  0.00    +0.000 HD
BRANCH  13  15
ATOM     15  C   UNL     1       1.774   2.436  19.682  0.00  0.00    +0.000 C 
ATOM     16  C   UNL     1       1.612   3.037  18.288  0.00  0.00    +0.000 C 
ATOM     17  C   UNL     1       2.541   2.183  17.438  0.00  0.00    +0.000 C 
ATOM     18  C   UNL     1       3.698   1.797  18.360  0.00  0.00    +0.000 C 
ATOM     19  C   UNL     1       3.286   2.226  19.767  0.00  0.00    +0.000 C 
ENDBRANCH  13  15
ENDBRANCH  12  13
ENDBRANCH  11  12
ENDBRANCH   1  11
TORSDOF 5
ENDMDL
MODEL 4
REMARK VINA RESULT:      -6.5      1.624      2.617
REMARK  Name = 
REMARK  5 active torsions:
REMARK  status: ('A' for Active; 'I' for Inactive)
REMARK    1  A    between atoms: C_6  and  O_7
REMARK    2  A    between atoms: O_7  and  C_8
REMARK    3  A    between atoms: C_8  and  C_9
REMARK    4  A    between atoms: C_9  and  N_10
REMARK    5  A    between atoms: N_10  and  C_11
REMARK                            x       y       z     vdW  Elec       q    Type
REMARK                         _______ _______ _______ _____ _____    ______ ____
ROOT
ATOM      1  O   UNL     1       4.881   6.378  17.672  0.00  0.00    +0.000 OA
ENDROOT
BRANCH   1   7
ATOM      2  C   UNL     1       3.753   4.305  16.977  0.00  0.00    +0.000 A 
ATOM      3  C   UNL     1       2.798   3.334  17.253  0.00  0.00    +0.000 A 
ATOM      4  C   UNL     1       2.059   3.462  18.413  0.00  0.00    +0.000 A 
ATOM      5  C   UNL     1       2.211   4.562  19.261  0.00  0.00    +0.000 A 
ATOM      6  C   UNL     1       3.154   5.533  18.989  0.00  0.00    +0.000 A 
ATOM      7  C   UNL     1       3.949   5.394  17.847  0.00  0.00    +0.000 A 
ATOM      8  C   UNL     1       1.221   4.506  20.379  0.00  0.00    +0.000 C 
ATOM      9  C   UNL     1       0.857   3.016  20.362  0.00  0.00    +0.000 C 
ATOM     10  C   UNL     1       0.985   2.547  18.904  0.00  0.00    +0.000 C 
ENDBRANCH   1   7
BRANCH   1  11
ATOM     11  C   UNL     1       5.503   6.431  16.387  0.00  0.00    +0.000 C 
BRANCH  11  12
ATOM     12  C   UNL     1       6.995   6.119  16.541  0.00  0.00    +0.000 C 
BRANCH  12  13
ATOM     13  N   UNL     1       7.370   4.936  15.759  0.00  0.00    +0.000 NA
ATOM     14  H   UNL     1       7.107   4.085  16.255  0.00  0.00    +0.000 HD
BRANCH  13  15
ATOM     15  C   UNL     1       6.820   4.933  14.415  0.00  0.00    +0.000 C 
ATOM     16  C   UNL     1       7.854   5.052  13.299  0.00  0.00    +0.000 C 
ATOM     17  C   UNL     1       7.088   4.583  12.072  0.00  0.00    +0.000 C 
ATOM     18  C   UNL     1       6.111   3.522  12.581  0.00  0.00    +0.000 C 
ATOM     19  C   UNL     1       6.168   3.586  14.106  0.00  0.00    +0.000 C 
ENDBRANCH  13  15
ENDBRANCH  12  13
ENDBRANCH  11  12
ENDBRANCH   1  11
TORSDOF 5
ENDMDL
MODEL 5
REMARK VINA RESULT:      -6.5      1.432      2.001
REMARK  Name = 
REMARK  5 active torsions:
REMARK  status: ('A' for Active; 'I' for Inactive)
REMARK    1  A    between atoms: C_6  and  O_7
REMARK    2  A    between atoms: O_7  and  C_8
REMARK    3  A    between atoms: C_8  and  C_9
REMARK    4  A    between atoms: C_9  and  N_10
REMARK    5  A    between atoms: N_10  and  C_11
REMARK                            x       y       z     vdW  Elec       q    Type
REMARK                         _______ _______ _______ _____ _____    ______ ____
ROOT
ATOM      1  O   UNL     1       6.340   4.278  18.736  0.00  0.00    +0.000 OA
ENDROOT
BRANCH   1   7
ATOM      2  C   UNL     1       4.347   5.469  19.547  0.00  0.00    +0.000 A 
ATOM      3  C   UNL     1       2.992   5.425  19.853  0.00  0.00    +0.000 A 
ATOM      4  C   UNL     1       2.325   4.228  19.676  0.00  0.00    +0.000 A 
ATOM      5  C   UNL     1       2.991   3.072  19.264  0.00  0.00    +0.000 A 
ATOM      6  C   UNL     1       4.339   3.107  18.965  0.00  0.00    +0.000 A 
ATOM      7  C   UNL     1       5.020   4.322  19.086  0.00  0.00    +0.000 A 
ATOM      8  C   UNL     1       2.062   1.902  19.258  0.00  0.00    +0.000 C 
ATOM      9  C   UNL     1       0.706   2.617  19.203  0.00  0.00    +0.000 C 
ATOM     10  C   UNL     1       0.881   3.952  19.943  0.00  0.00    +0.000 C 
ENDBRANCH   1   7
BRANCH   1  11
ATOM     11  C   UNL     1       6.761   5.229  17.756  0.00  0.00    +0.000 C 
BRANCH  11  12
ATOM     12  C   UNL     1       7.105   4.491  16.458  0.00  0.00    +0.000 C 
BRANCH  12  13
ATOM     13  N   UNL     1       7.516   5.431  15.411  0.00  0.00    +0.000 NA
ATOM     14  H   UNL     1       8.531   5.448  15.327  0.00  0.00    +0.000 HD
BRANCH  13  15
ATOM     15  C   UNL     1       6.903   5.163  14.122  0.00  0.00    +0.000 C 
ATOM     16  C   UNL     1       7.886   5.016  12.962  0.00  0.00    +0.000 C 
ATOM     17  C   UNL     1       7.054   4.323  11.895  0.00  0.00    +0.000 C 
ATOM     18  C   UNL     1       6.083   3.420  12.656  0.00  0.00    +0.000 C 
ATOM     19  C   UNL     1       6.212   3.800  14.130  0.00  0.00    +0.000 C 
ENDBRANCH  13  15
ENDBRANCH  12  13
ENDBRANCH  11  12
ENDBRANCH   1  11
TORSDOF 5
ENDMDL
MODEL 6
REMARK VINA RESULT:      -6.4      2.777      5.013
REMARK  Name = 
REMARK  5 active torsions:
REMARK  status: ('A' for Active; 'I' for Inactive)
REMARK    1  A    between atoms: C_6  and  O_7
REMARK    2  A    between atoms: O_7  and  C_8
REMARK    3  A    between atoms: C_8  and  C_9
REMARK    4  A    between atoms: C_9  and  N_10
REMARK    5  A    between atoms: N_10  and  C_11
REMARK                            x       y       z     vdW  Elec       q    Type
REMARK                         _______ _______ _______ _____ _____    ______ ____
ROOT
ATOM      1  O   UNL     1       2.498   5.629  20.858  0.00  0.00    +0.000 OA
ENDROOT
BRANCH   1   7
ATOM      2  C   UNL     1       2.726   6.852  18.736  0.00  0.00    +0.000 A 
ATOM      3  C   UNL     1       3.487   7.113  17.603  0.00  0.00    +0.000 A 
ATOM      4  C   UNL     1       4.690   6.450  17.462  0.00  0.00    +0.000 A 
ATOM      5  C   UNL     1       5.114   5.496  18.390  0.00  0.00    +0.000 A 
ATOM      6  C   UNL     1       4.360   5.227  19.515  0.00  0.00    +0.000 A 
ATOM      7  C   UNL     1       3.164   5.927  19.702  0.00  0.00    +0.000 A 
ATOM      8  C   UNL     1       6.389   4.857  17.945  0.00  0.00    +0.000 C 
ATOM      9  C   UNL     1       6.901   5.908  16.951  0.00  0.00    +0.000 C 
ATOM     10  C   UNL     1       5.660   6.571  16.333  0.00  0.00    +0.000 C 
ENDBRANCH   1   7
BRANCH   1  11
ATOM     11  C   UNL     1       1.186   5.083  20.702  0.00  0.00    +0.000 C 
BRANCH  11  12
ATOM     12  C   UNL     1       1.257   3.560  20.851  0.00  0.00    +0.000 C 
BRANCH  12  13
ATOM     13  N   UNL     1       0.479   2.891  19.804  0.00  0.00    +0.000 NA
ATOM     14  H   UNL     1      -0.291   3.486  19.500  0.00  0.00    +0.000 HD
BRANCH  13  15
ATOM     15  C   UNL     1       1.279   2.473  18.667  0.00  0.00    +0.000 C 
ATOM     16  C   UNL     1       1.627   3.587  17.682  0.00  0.00    +0.000 C 
ATOM     17  C   UNL     1       2.784   2.995  16.892  0.00  0.00    +0.000 C 
ATOM     18  C   UNL     1       3.537   2.102  17.878  0.00  0.00    +0.000 C 
ATOM     19  C   UNL     1       2.661   2.008  19.126  0.00  0.00    +0.000 C 
ENDBRANCH  13  15
ENDBRANCH  12  13
ENDBRANCH  11  12
ENDBRANCH   1  11
TORSDOF 5
ENDMDL
MODEL 7
REMARK VINA RESULT:      -6.3      1.190      1.819
REMARK  Name = 
REMARK  5 active torsions:
REMARK  status: ('A' for Active; 'I' for Inactive)
REMARK    1  A    between atoms: C_6  and  O_7
REMARK    2  A    between atoms: O_7  and  C_8
REMARK    3  A    between atoms: C_8  and  C_9
REMARK    4  A    between atoms: C_9  and  N_10
REMARK    5  A    between atoms: N_10  and  C_11
REMARK                            x       y       z     vdW  Elec       q    Type
REMARK                         _______ _______ _______ _____ _____    ______ ____
ROOT
ATOM      1  O   UNL     1       5.839   5.667  19.347  0.00  0.00    +0.000 OA
ENDROOT
BRANCH   1   7
ATOM      2  C   UNL     1       4.790   3.690  18.324  0.00  0.00    +0.000 A 
ATOM      3  C   UNL     1       3.671   2.874  18.217  0.00  0.00    +0.000 A 
ATOM      4  C   UNL     1       2.556   3.200  18.965  0.00  0.00    +0.000 A 
ATOM      5  C   UNL     1       2.517   4.347  19.760  0.00  0.00    +0.000 A 
ATOM      6  C   UNL     1       3.623   5.167  19.866  0.00  0.00    +0.000 A 
ATOM      7  C   UNL     1       4.780   4.824  19.158  0.00  0.00    +0.000 A 
ATOM      8  C   UNL     1       1.164   4.518  20.373  0.00  0.00    +0.000 C 
ATOM      9  C   UNL     1       0.620   3.088  20.262  0.00  0.00    +0.000 C 
ATOM     10  C   UNL     1       1.252   2.472  19.003  0.00  0.00    +0.000 C 
ENDBRANCH   1   7
BRANCH   1  11
ATOM     11  C   UNL     1       7.023   5.361  18.608  0.00  0.00    +0.000 C 
BRANCH  11  12
ATOM     12  C   UNL     1       7.569   6.649  17.983  0.00  0.00    +0.000 C 
BRANCH  12  13
ATOM     13  N   UNL     1       7.447   6.620  16.522  0.00  0.00    +0.000 NA
ATOM     14  H   UNL     1       8.368   6.668  16.088  0.00  0.00    +0.000 HD
BRANCH  13  15
ATOM     15  C   UNL     1       6.710   5.470  16.027  0.00  0.00    +0.000 C 
ATOM     16  C   UNL     1       5.339   5.793  15.437  0.00  0.00    +0.000 C 
ATOM     17  C   UNL     1       5.014   4.549  14.627  0.00  0.00    +0.000 C 
ATOM     18  C   UNL     1       6.358   4.035  14.110  0.00  0.00    +0.000 C 
ATOM     19  C   UNL     1       7.432   4.845  14.834  0.00  0.00    +0.000 C 
ENDBRANCH  13  15
ENDBRANCH  12  13
ENDBRANCH  11  12
ENDBRANCH   1  11
TORSDOF 5
ENDMDL
MODEL 8
REMARK VINA RESULT:      -6.3      1.388      1.770
REMARK  Name = 
REMARK  5 active torsions:
REMARK  status: ('A' for Active; 'I' for Inactive)
REMARK    1  A    between atoms: C_6  and  O_7
REMARK    2  A    between atoms: O_7  and  C_8
REMARK    3  A    between atoms: C_8  and  C_9
REMARK    4  A    between atoms: C_9  and  N_10
REMARK    5  A    between atoms: N_10  and  C_11
REMARK                            x       y       z     vdW  Elec       q    Type
REMARK                         _______ _______ _______ _____ _____    ______ ____
ROOT
ATOM      1  O   UNL     1       5.887   5.459  18.715  0.00  0.00    +0.000 OA
ENDROOT
BRANCH   1   7
ATOM      2  C   UNL     1       3.671   5.918  19.680  0.00  0.00    +0.000 A 
ATOM      3  C   UNL     1       2.389   5.459  19.956  0.00  0.00    +0.000 A 
ATOM      4  C   UNL     1       2.066   4.170  19.580  0.00  0.00    +0.000 A 
ATOM      5  C   UNL     1       3.007   3.319  18.996  0.00  0.00    +0.000 A 
ATOM      6  C   UNL     1       4.285   3.766  18.725  0.00  0.00    +0.000 A 
ATOM      7  C   UNL     1       4.615   5.086  19.050  0.00  0.00    +0.000 A 
ATOM      8  C   UNL     1       2.429   1.957  18.789  0.00  0.00    +0.000 C 
ATOM      9  C   UNL     1       0.929   2.275  18.832  0.00  0.00    +0.000 C 
ATOM     10  C   UNL     1       0.760   3.473  19.779  0.00  0.00    +0.000 C 
ENDBRANCH   1   7
BRANCH   1  11
ATOM     11  C   UNL     1       6.060   5.982  17.397  0.00  0.00    +0.000 C 
BRANCH  11  12
ATOM     12  C   UNL     1       7.056   5.101  16.636  0.00  0.00    +0.000 C 
BRANCH  12  13
ATOM     13  N   UNL     1       7.272   5.604  15.276  0.00  0.00    +0.000 NA
ATOM     14  H   UNL     1       8.164   6.092  15.215  0.00  0.00    +0.000 HD
BRANCH  13  15
ATOM     15  C   UNL     1       7.187   4.571  14.258  0.00  0.00    +0.000 C 
ATOM     16  C   UNL     1       5.768   4.123  13.916  0.00  0.00    +0.000 C 
ATOM     17  C   UNL     1       5.945   3.419  12.580  0.00  0.00    +0.000 C 
ATOM     18  C   UNL     1       7.082   4.160  11.875  0.00  0.00    +0.000 C 
ATOM     19  C   UNL     1       7.688   5.101  12.914  0.00  0.00    +0.000 C 
ENDBRANCH  13  15
ENDBRANCH  12  13
ENDBRANCH  11  12
ENDBRANCH   1  11
TORSDOF 5
ENDMDL
MODEL 9
REMARK VINA RESULT:      -6.2      1.275      2.016
REMARK  Name = 
REMARK  5 active torsions:
REMARK  status: ('A' for Active; 'I' for Inactive)
REMARK    1  A    between atoms: C_6  and  O_7
REMARK    2  A    between atoms: O_7  and  C_8
REMARK    3  A    between atoms: C_8  and  C_9
REMARK    4  A    between atoms: C_9  and  N_10
REMARK    5  A    between atoms: N_10  and  C_11
REMARK                            x       y       z     vdW  Elec       q    Type
REMARK                         _______ _______ _______ _____ _____    ______ ____
ROOT
ATOM      1  O   UNL     1       6.257   5.370  19.077  0.00  0.00    +0.000 OA
ENDROOT
BRANCH   1   7
ATOM      2  C   UNL     1       4.826   3.645  18.061  0.00  0.00    +0.000 A 
ATOM      3  C   UNL     1       3.580   3.034  18.002  0.00  0.00    +0.000 A 
ATOM      4  C   UNL     1       2.583   3.510  18.833  0.00  0.00    +0.000 A 
ATOM      5  C   UNL     1       2.788   4.612  19.666  0.00  0.00    +0.000 A 
ATOM      6  C   UNL     1       4.023   5.228  19.725  0.00  0.00    +0.000 A 
ATOM      7  C   UNL     1       5.059   4.727  18.931  0.00  0.00    +0.000 A 
ATOM      8  C   UNL     1       1.524   4.981  20.372  0.00  0.00    +0.000 C 
ATOM      9  C   UNL     1       0.737   3.670  20.250  0.00  0.00    +0.000 C 
ATOM     10  C   UNL     1       1.179   3.012  18.933  0.00  0.00    +0.000 C 
ENDBRANCH   1   7
BRANCH   1  11
ATOM     11  C   UNL     1       7.165   5.260  17.979  0.00  0.00    +0.000 C 
BRANCH  11  12
ATOM     12  C   UNL     1       6.616   6.062  16.794  0.00  0.00    +0.000 C 
BRANCH  12  13
ATOM     13  N   UNL     1       7.470   5.907  15.613  0.00  0.00    +0.000 NA
ATOM     14  H   UNL     1       8.449   5.848  15.887  0.00  0.00    +0.000 HD
BRANCH  13  15
ATOM     15  C   UNL     1       7.106   4.773  14.781  0.00  0.00    +0.000 C 
ATOM     16  C   UNL     1       5.605   4.582  14.579  0.00  0.00    +0.000 C 
ATOM     17  C   UNL     1       5.537   3.664  13.369  0.00  0.00    +0.000 C 
ATOM     18  C   UNL     1       6.742   4.038  12.504  0.00  0.00    +0.000 C 
ATOM     19  C   UNL     1       7.598   4.979  13.349  0.00  0.00    +0.000 C 
ENDBRANCH  13  15
ENDBRANCH  12  13
ENDBRANCH  11  12
ENDBRANCH   1  11
TORSDOF 5
ENDMDL
