MODEL 1
REMARK VINA RESULT:      -7.2      0.000      0.000
REMARK  Name = 
REMARK  8 active torsions:
REMARK  status: ('A' for Active; 'I' for Inactive)
REMARK    1  A    between atoms: C_1  and  C_2
REMARK    2  A    between atoms: C_2  and  C_3
REMARK    3  A    between atoms: C_3  and  C_4
REMARK    4  A    between atoms: C_5  and  C_6
REMARK    5  A    between atoms: N_8  and  C_9
REMARK    6  A    between atoms: C_11  and  O_12
REMARK    7  A    between atoms: C_15  and  C_16
REMARK    8  A    between atoms: N_19  and  C_20
REMARK                            x       y       z     vdW  Elec       q    Type
REMARK                         _______ _______ _______ _____ _____    ______ ____
ROOT
ATOM      1  C   UNL     1       1.049   9.077  19.940  0.00  0.00    +0.000 A 
ATOM      2  C   UNL     1       1.887   8.372  19.082  0.00  0.00    +0.000 A 
ATOM      3  C   UNL     1       2.137   9.267  18.025  0.00  0.00    +0.000 A 
ATOM      4  N   UNL     1       1.521  10.436  18.180  0.00  0.00    +0.000 NA
ATOM      5  N   UNL     1       0.942  10.360  19.408  0.00  0.00    +0.000 N 
ENDROOT
BRANCH   5   6
ATOM      6  C   UNL     1       0.293  11.505  19.953  0.00  0.00    +0.000 A 
ATOM      7  C   UNL     1      -1.085  11.671  19.763  0.00  0.00    +0.000 A 
ATOM      8  C   UNL     1      -1.751  12.725  20.398  0.00  0.00    +0.000 A 
ATOM      9  C   UNL     1      -1.042  13.630  21.190  0.00  0.00    +0.000 A 
ATOM     10  C   UNL     1       0.337  13.499  21.332  0.00  0.00    +0.000 A 
ATOM     11  C   UNL     1       1.006  12.444  20.709  0.00  0.00    +0.000 A 
ENDBRANCH   5   6
BRANCH   2  12
ATOM     12  C   UNL     1       2.280   6.976  19.180  0.00  0.00    +0.000 C 
ATOM     13  O   UNL     1       2.766   6.534  20.218  0.00  0.00    +0.000 OA
ATOM     14  N   UNL     1       2.146   6.252  18.004  0.00  0.00    +0.000 N 
ATOM     15  H   UNL     1       2.088   6.789  17.149  0.00  0.00    +0.000 HD
BRANCH  14  16
ATOM     16  C   UNL     1       2.523   4.890  17.904  0.00  0.00    +0.000 A 
ATOM     17  C   UNL     1       1.636   3.883  18.317  0.00  0.00    +0.000 A 
ATOM     18  C   UNL     1       2.003   2.544  18.221  0.00  0.00    +0.000 A 
ATOM     19  C   UNL     1       3.249   2.184  17.730  0.00  0.00    +0.000 A 
ATOM     20  C   UNL     1       4.134   3.177  17.309  0.00  0.00    +0.000 A 
ATOM     21  C   UNL     1       3.783   4.538  17.382  0.00  0.00    +0.000 A 
ATOM     22  C   UNL     1       4.794   5.565  16.958  0.00  0.00    +0.000 C 
BRANCH  18  23
ATOM     23  O   UNL     1       1.154   1.546  18.599  0.00  0.00    +0.000 OA
ATOM     24  H   UNL     1       0.242   1.868  18.510  0.00  0.00    +0.000 HD
ENDBRANCH  18  23
ENDBRANCH  14  16
ENDBRANCH   2  12
BRANCH   1  25
ATOM     25  C   UNL     1       0.304   8.579  21.148  0.00  0.00    +0.000 C 
BRANCH  25  27
ATOM     26  C   UNL     1      -0.302   9.843  23.248  0.00  0.00    +0.000 C 
ATOM     27  C   UNL     1       0.822   9.196  22.452  0.00  0.00    +0.000 C 
ENDBRANCH  25  27
ENDBRANCH   1  25
TORSDOF 6
ENDMDL
MODEL 2
REMARK VINA RESULT:      -7.1      2.396      3.666
REMARK  Name = 
REMARK  8 active torsions:
REMARK  status: ('A' for Active; 'I' for Inactive)
REMARK    1  A    between atoms: C_1  and  C_2
REMARK    2  A    between atoms: C_2  and  C_3
REMARK    3  A    between atoms: C_3  and  C_4
REMARK    4  A    between atoms: C_5  and  C_6
REMARK    5  A    between atoms: N_8  and  C_9
REMARK    6  A    between atoms: C_11  and  O_12
REMARK    7  A    between atoms: C_15  and  C_16
REMARK    8  A    between atoms: N_19  and  C_20
REMARK                            x       y       z     vdW  Elec       q    Type
REMARK                         _______ _______ _______ _____ _____    ______ ____
ROOT
ATOM      1  C   UNL     1       1.949   7.745  19.700  0.00  0.00    +0.000 A 
ATOM      2  C   UNL     1       2.453   7.684  18.404  0.00  0.00    +0.000 A 
ATOM      3  C   UNL     1       1.890   8.799  17.757  0.00  0.00    +0.000 A 
ATOM      4  N   UNL     1       1.097   9.513  18.552  0.00  0.00    +0.000 NA
ATOM      5  N   UNL     1       1.218   8.930  19.774  0.00  0.00    +0.000 N 
ENDROOT
BRANCH   5   6
ATOM      6  C   UNL     1       0.590   9.524  20.905  0.00  0.00    +0.000 A 
ATOM      7  C   UNL     1      -0.231  10.646  20.726  0.00  0.00    +0.000 A 
ATOM      8  C   UNL     1      -0.949  11.161  21.810  0.00  0.00    +0.000 A 
ATOM      9  C   UNL     1      -0.824  10.583  23.075  0.00  0.00    +0.000 A 
ATOM     10  C   UNL     1       0.035   9.505  23.265  0.00  0.00    +0.000 A 
ATOM     11  C   UNL     1       0.748   8.980  22.185  0.00  0.00    +0.000 A 
ENDBRANCH   5   6
BRANCH   2  12
ATOM     12  C   UNL     1       3.250   6.620  17.816  0.00  0.00    +0.000 C 
ATOM     13  O   UNL     1       2.793   5.485  17.705  0.00  0.00    +0.000 OA
ATOM     14  N   UNL     1       4.551   6.979  17.497  0.00  0.00    +0.000 N 
ATOM     15  H   UNL     1       4.916   7.803  17.955  0.00  0.00    +0.000 HD
BRANCH  14  16
ATOM     16  C   UNL     1       5.482   6.058  16.957  0.00  0.00    +0.000 A 
ATOM     17  C   UNL     1       5.500   5.803  15.576  0.00  0.00    +0.000 A 
ATOM     18  C   UNL     1       6.412   4.898  15.042  0.00  0.00    +0.000 A 
ATOM     19  C   UNL     1       7.307   4.227  15.861  0.00  0.00    +0.000 A 
ATOM     20  C   UNL     1       7.304   4.480  17.233  0.00  0.00    +0.000 A 
ATOM     21  C   UNL     1       6.400   5.400  17.798  0.00  0.00    +0.000 A 
ATOM     22  C   UNL     1       6.411   5.597  19.288  0.00  0.00    +0.000 C 
BRANCH  18  23
ATOM     23  O   UNL     1       6.462   4.646  13.703  0.00  0.00    +0.000 OA
ATOM     24  H   UNL     1       5.685   4.114  13.462  0.00  0.00    +0.000 HD
ENDBRANCH  18  23
ENDBRANCH  14  16
ENDBRANCH   2  12
BRANCH   1  25
ATOM     25  C   UNL     1       2.053   6.725  20.800  0.00  0.00    +0.000 C 
BRANCH  25  27
ATOM     26  C   UNL     1       1.907   4.209  20.932  0.00  0.00    +0.000 C 
ATOM     27  C   UNL     1       1.185   5.490  20.541  0.00  0.00    +0.000 C 
ENDBRANCH  25  27
ENDBRANCH   1  25
TORSDOF 6
ENDMDL
MODEL 3
REMARK VINA RESULT:      -6.9      2.152      8.210
REMARK  Name = 
REMARK  8 active torsions:
REMARK  status: ('A' for Active; 'I' for Inactive)
REMARK    1  A    between atoms: C_1  and  C_2
REMARK    2  A    between atoms: C_2  and  C_3
REMARK    3  A    between atoms: C_3  and  C_4
REMARK    4  A    between atoms: C_5  and  C_6
REMARK    5  A    between atoms: N_8  and  C_9
REMARK    6  A    between atoms: C_11  and  O_12
REMARK    7  A    between atoms: C_15  and  C_16
REMARK    8  A    between atoms: N_19  and  C_20
REMARK                            x       y       z     vdW  Elec       q    Type
REMARK                         _______ _______ _______ _____ _____    ______ ____
ROOT
ATOM      1  C   UNL     1       2.293   6.212  19.509  0.00  0.00    +0.000 A 
ATOM      2  C   UNL     1       2.242   7.543  19.104  0.00  0.00    +0.000 A 
ATOM      3  C   UNL     1       3.100   7.602  17.990  0.00  0.00    +0.000 A 
ATOM      4  N   UNL     1       3.655   6.428  17.701  0.00  0.00    +0.000 NA
ATOM      5  N   UNL     1       3.077   5.551  18.565  0.00  0.00    +0.000 N 
ENDROOT
BRANCH   5   6
ATOM      6  C   UNL     1       3.355   4.160  18.448  0.00  0.00    +0.000 A 
ATOM      7  C   UNL     1       4.314   3.576  19.286  0.00  0.00    +0.000 A 
ATOM      8  C   UNL     1       4.505   2.190  19.263  0.00  0.00    +0.000 A 
ATOM      9  C   UNL     1       3.768   1.393  18.386  0.00  0.00    +0.000 A 
ATOM     10  C   UNL     1       2.856   1.979  17.513  0.00  0.00    +0.000 A 
ATOM     11  C   UNL     1       2.654   3.360  17.537  0.00  0.00    +0.000 A 
ENDBRANCH   5   6
BRANCH   2  12
ATOM     12  C   UNL     1       1.579   8.646  19.778  0.00  0.00    +0.000 C 
ATOM     13  O   UNL     1       1.355   8.599  20.985  0.00  0.00    +0.000 OA
ATOM     14  N   UNL     1       1.157   9.669  18.940  0.00  0.00    +0.000 N 
ATOM     15  H   UNL     1       1.068   9.439  17.960  0.00  0.00    +0.000 HD
BRANCH  14  16
ATOM     16  C   UNL     1       0.454  10.801  19.419  0.00  0.00    +0.000 A 
ATOM     17  C   UNL     1       1.045  11.645  20.373  0.00  0.00    +0.000 A 
ATOM     18  C   UNL     1       0.357  12.758  20.846  0.00  0.00    +0.000 A 
ATOM     19  C   UNL     1      -0.921  13.045  20.396  0.00  0.00    +0.000 A 
ATOM     20  C   UNL     1      -1.515  12.219  19.441  0.00  0.00    +0.000 A 
ATOM     21  C   UNL     1      -0.836  11.094  18.935  0.00  0.00    +0.000 A 
ATOM     22  C   UNL     1      -1.543  10.213  17.944  0.00  0.00    +0.000 C 
BRANCH  18  23
ATOM     23  O   UNL     1       0.916  13.603  21.760  0.00  0.00    +0.000 OA
ATOM     24  H   UNL     1       1.273  13.072  22.491  0.00  0.00    +0.000 HD
ENDBRANCH  18  23
ENDBRANCH  14  16
ENDBRANCH   2  12
BRANCH   1  25
ATOM     25  C   UNL     1       1.726   5.584  20.752  0.00  0.00    +0.000 C 
BRANCH  25  27
ATOM     26  C   UNL     1       1.300   3.146  21.249  0.00  0.00    +0.000 C 
ATOM     27  C   UNL     1       0.856   4.360  20.447  0.00  0.00    +0.000 C 
ENDBRANCH  25  27
ENDBRANCH   1  25
TORSDOF 6
ENDMDL
MODEL 4
REMARK VINA RESULT:      -6.8      2.013      3.126
REMARK  Name = 
REMARK  8 active torsions:
REMARK  status: ('A' for Active; 'I' for Inactive)
REMARK    1  A    between atoms: C_1  and  C_2
REMARK    2  A    between atoms: C_2  and  C_3
REMARK    3  A    between atoms: C_3  and  C_4
REMARK    4  A    between atoms: C_5  and  C_6
REMARK    5  A    between atoms: N_8  and  C_9
REMARK    6  A    between atoms: C_11  and  O_12
REMARK    7  A    between atoms: C_15  and  C_16
REMARK    8  A    between atoms: N_19  and  C_20
REMARK                            x       y       z     vdW  Elec       q    Type
REMARK                         _______ _______ _______ _____ _____    ______ ____
ROOT
ATOM      1  C   UNL     1       0.918   9.743  20.019  0.00  0.00    +0.000 A 
ATOM      2  C   UNL     1       1.480   8.573  20.522  0.00  0.00    +0.000 A 
ATOM      3  C   UNL     1       1.473   8.754  21.918  0.00  0.00    +0.000 A 
ATOM      4  N   UNL     1       0.960   9.926  22.284  0.00  0.00    +0.000 NA
ATOM      5  N   UNL     1       0.519  10.488  21.127  0.00  0.00    +0.000 N 
ENDROOT
BRANCH   5   6
ATOM      6  C   UNL     1      -0.207  11.711  21.170  0.00  0.00    +0.000 A 
ATOM      7  C   UNL     1       0.428  12.903  20.796  0.00  0.00    +0.000 A 
ATOM      8  C   UNL     1      -0.310  14.088  20.716  0.00  0.00    +0.000 A 
ATOM      9  C   UNL     1      -1.668  14.095  21.041  0.00  0.00    +0.000 A 
ATOM     10  C   UNL     1      -2.286  12.923  21.469  0.00  0.00    +0.000 A 
ATOM     11  C   UNL     1      -1.557  11.734  21.541  0.00  0.00    +0.000 A 
ENDBRANCH   5   6
BRANCH   2  12
ATOM     12  C   UNL     1       2.081   7.486  19.767  0.00  0.00    +0.000 C 
ATOM     13  O   UNL     1       2.153   7.540  18.542  0.00  0.00    +0.000 OA
ATOM     14  N   UNL     1       2.460   6.391  20.530  0.00  0.00    +0.000 N 
ATOM     15  H   UNL     1       2.032   6.308  21.442  0.00  0.00    +0.000 HD
BRANCH  14  16
ATOM     16  C   UNL     1       3.021   5.224  19.955  0.00  0.00    +0.000 A 
ATOM     17  C   UNL     1       4.352   5.230  19.507  0.00  0.00    +0.000 A 
ATOM     18  C   UNL     1       4.906   4.086  18.942  0.00  0.00    +0.000 A 
ATOM     19  C   UNL     1       4.155   2.930  18.801  0.00  0.00    +0.000 A 
ATOM     20  C   UNL     1       2.835   2.910  19.251  0.00  0.00    +0.000 A 
ATOM     21  C   UNL     1       2.253   4.049  19.839  0.00  0.00    +0.000 A 
ATOM     22  C   UNL     1       0.813   3.984  20.262  0.00  0.00    +0.000 C 
BRANCH  18  23
ATOM     23  O   UNL     1       6.201   4.061  18.514  0.00  0.00    +0.000 OA
ATOM     24  H   UNL     1       6.404   4.916  18.098  0.00  0.00    +0.000 HD
ENDBRANCH  18  23
ENDBRANCH  14  16
ENDBRANCH   2  12
BRANCH   1  25
ATOM     25  C   UNL     1       0.827  10.206  18.591  0.00  0.00    +0.000 C 
BRANCH  25  27
ATOM     26  C   UNL     1      -1.460  11.028  17.911  0.00  0.00    +0.000 C 
ATOM     27  C   UNL     1      -0.510   9.839  17.939  0.00  0.00    +0.000 C 
ENDBRANCH  25  27
ENDBRANCH   1  25
TORSDOF 6
ENDMDL
MODEL 5
REMARK VINA RESULT:      -6.8      1.869      2.313
REMARK  Name = 
REMARK  8 active torsions:
REMARK  status: ('A' for Active; 'I' for Inactive)
REMARK    1  A    between atoms: C_1  and  C_2
REMARK    2  A    between atoms: C_2  and  C_3
REMARK    3  A    between atoms: C_3  and  C_4
REMARK    4  A    between atoms: C_5  and  C_6
REMARK    5  A    between atoms: N_8  and  C_9
REMARK    6  A    between atoms: C_11  and  O_12
REMARK    7  A    between atoms: C_15  and  C_16
REMARK    8  A    between atoms: N_19  and  C_20
REMARK                            x       y       z     vdW  Elec       q    Type
REMARK                         _______ _______ _______ _____ _____    ______ ____
ROOT
ATOM      1  C   UNL     1       0.908   9.443  19.798  0.00  0.00    +0.000 A 
ATOM      2  C   UNL     1       1.761   9.009  18.787  0.00  0.00    +0.000 A 
ATOM      3  C   UNL     1       1.909  10.129  17.950  0.00  0.00    +0.000 A 
ATOM      4  N   UNL     1       1.219  11.186  18.373  0.00  0.00    +0.000 NA
ATOM      5  N   UNL     1       0.693  10.800  19.565  0.00  0.00    +0.000 N 
ENDROOT
BRANCH   5   6
ATOM      6  C   UNL     1      -0.012  11.744  20.363  0.00  0.00    +0.000 A 
ATOM      7  C   UNL     1      -1.413  11.739  20.362  0.00  0.00    +0.000 A 
ATOM      8  C   UNL     1      -2.113  12.579  21.235  0.00  0.00    +0.000 A 
ATOM      9  C   UNL     1      -1.420  13.446  22.081  0.00  0.00    +0.000 A 
ATOM     10  C   UNL     1      -0.029  13.494  22.042  0.00  0.00    +0.000 A 
ATOM     11  C   UNL     1       0.675  12.652  21.180  0.00  0.00    +0.000 A 
ENDBRANCH   5   6
BRANCH   2  12
ATOM     12  C   UNL     1       2.253   7.659  18.566  0.00  0.00    +0.000 C 
ATOM     13  O   UNL     1       2.029   7.077  17.508  0.00  0.00    +0.000 OA
ATOM     14  N   UNL     1       2.888   7.087  19.660  0.00  0.00    +0.000 N 
ATOM     15  H   UNL     1       2.695   7.503  20.560  0.00  0.00    +0.000 HD
BRANCH  14  16
ATOM     16  C   UNL     1       3.390   5.762  19.638  0.00  0.00    +0.000 A 
ATOM     17  C   UNL     1       4.669   5.503  19.120  0.00  0.00    +0.000 A 
ATOM     18  C   UNL     1       5.165   4.203  19.097  0.00  0.00    +0.000 A 
ATOM     19  C   UNL     1       4.405   3.146  19.571  0.00  0.00    +0.000 A 
ATOM     20  C   UNL     1       3.136   3.394  20.096  0.00  0.00    +0.000 A 
ATOM     21  C   UNL     1       2.615   4.700  20.144  0.00  0.00    +0.000 A 
ATOM     22  C   UNL     1       1.224   4.901  20.677  0.00  0.00    +0.000 C 
BRANCH  18  23
ATOM     23  O   UNL     1       6.411   3.927  18.615  0.00  0.00    +0.000 OA
ATOM     24  H   UNL     1       7.064   4.180  19.288  0.00  0.00    +0.000 HD
ENDBRANCH  18  23
ENDBRANCH  14  16
ENDBRANCH   2  12
BRANCH   1  25
ATOM     25  C   UNL     1       0.246   8.638  20.882  0.00  0.00    +0.000 C 
BRANCH  25  27
ATOM     26  C   UNL     1      -0.078   9.535  23.219  0.00  0.00    +0.000 C 
ATOM     27  C   UNL     1       0.888   8.861  22.255  0.00  0.00    +0.000 C 
ENDBRANCH  25  27
ENDBRANCH   1  25
TORSDOF 6
ENDMDL
MODEL 6
REMARK VINA RESULT:      -6.7      2.142      3.410
REMARK  Name = 
REMARK  8 active torsions:
REMARK  status: ('A' for Active; 'I' for Inactive)
REMARK    1  A    between atoms: C_1  and  C_2
REMARK    2  A    between atoms: C_2  and  C_3
REMARK    3  A    between atoms: C_3  and  C_4
REMARK    4  A    between atoms: C_5  and  C_6
REMARK    5  A    between atoms: N_8  and  C_9
REMARK    6  A    between atoms: C_11  and  O_12
REMARK    7  A    between atoms: C_15  and  C_16
REMARK    8  A    between atoms: N_19  and  C_20
REMARK                            x       y       z     vdW  Elec       q    Type
REMARK                         _______ _______ _______ _____ _____    ______ ____
ROOT
ATOM      1  C   UNL     1       0.273  10.301  20.709  0.00  0.00    +0.000 A 
ATOM      2  C   UNL     1       1.027   9.140  20.852  0.00  0.00    +0.000 A 
ATOM      3  C   UNL     1       1.254   9.039  22.237  0.00  0.00    +0.000 A 
ATOM      4  N   UNL     1       0.704  10.036  22.925  0.00  0.00    +0.000 NA
ATOM      5  N   UNL     1       0.009  10.752  22.001  0.00  0.00    +0.000 N 
ENDROOT
BRANCH   5   6
ATOM      6  C   UNL     1      -0.812  11.835  22.422  0.00  0.00    +0.000 A 
ATOM      7  C   UNL     1      -2.058  11.570  23.006  0.00  0.00    +0.000 A 
ATOM      8  C   UNL     1      -2.816  12.621  23.533  0.00  0.00    +0.000 A 
ATOM      9  C   UNL     1      -2.352  13.934  23.448  0.00  0.00    +0.000 A 
ATOM     10  C   UNL     1      -1.142  14.205  22.817  0.00  0.00    +0.000 A 
ATOM     11  C   UNL     1      -0.375  13.160  22.297  0.00  0.00    +0.000 A 
ENDBRANCH   5   6
BRANCH   2  12
ATOM     12  C   UNL     1       1.584   8.313  19.794  0.00  0.00    +0.000 C 
ATOM     13  O   UNL     1       1.554   8.689  18.625  0.00  0.00    +0.000 OA
ATOM     14  N   UNL     1       2.046   7.073  20.211  0.00  0.00    +0.000 N 
ATOM     15  H   UNL     1       1.697   6.737  21.098  0.00  0.00    +0.000 HD
BRANCH  14  16
ATOM     16  C   UNL     1       2.580   6.120  19.309  0.00  0.00    +0.000 A 
ATOM     17  C   UNL     1       3.542   6.509  18.363  0.00  0.00    +0.000 A 
ATOM     18  C   UNL     1       4.069   5.577  17.474  0.00  0.00    +0.000 A 
ATOM     19  C   UNL     1       3.646   4.257  17.500  0.00  0.00    +0.000 A 
ATOM     20  C   UNL     1       2.698   3.858  18.442  0.00  0.00    +0.000 A 
ATOM     21  C   UNL     1       2.158   4.777  19.361  0.00  0.00    +0.000 A 
ATOM     22  C   UNL     1       1.106   4.301  20.321  0.00  0.00    +0.000 C 
BRANCH  18  23
ATOM     23  O   UNL     1       5.016   5.925  16.557  0.00  0.00    +0.000 OA
ATOM     24  H   UNL     1       5.856   5.507  16.809  0.00  0.00    +0.000 HD
ENDBRANCH  18  23
ENDBRANCH  14  16
ENDBRANCH   2  12
BRANCH   1  25
ATOM     25  C   UNL     1      -0.119  11.020  19.448  0.00  0.00    +0.000 C 
BRANCH  25  27
ATOM     26  C   UNL     1      -1.510  10.090  17.558  0.00  0.00    +0.000 C 
ATOM     27  C   UNL     1      -1.528  10.648  18.973  0.00  0.00    +0.000 C 
ENDBRANCH  25  27
ENDBRANCH   1  25
TORSDOF 6
ENDMDL
MODEL 7
REMARK VINA RESULT:      -6.7      1.985      3.180
REMARK  Name = 
REMARK  8 active torsions:
REMARK  status: ('A' for Active; 'I' for Inactive)
REMARK    1  A    between atoms: C_1  and  C_2
REMARK    2  A    between atoms: C_2  and  C_3
REMARK    3  A    between atoms: C_3  and  C_4
REMARK    4  A    between atoms: C_5  and  C_6
REMARK    5  A    between atoms: N_8  and  C_9
REMARK    6  A    between atoms: C_11  and  O_12
REMARK    7  A    between atoms: C_15  and  C_16
REMARK    8  A    between atoms: N_19  and  C_20
REMARK                            x       y       z     vdW  Elec       q    Type
REMARK                         _______ _______ _______ _____ _____    ______ ____
ROOT
ATOM      1  C   UNL     1       0.925   9.677  19.859  0.00  0.00    +0.000 A 
ATOM      2  C   UNL     1       1.448   8.513  20.414  0.00  0.00    +0.000 A 
ATOM      3  C   UNL     1       1.358   8.717  21.803  0.00  0.00    +0.000 A 
ATOM      4  N   UNL     1       0.831   9.897  22.119  0.00  0.00    +0.000 NA
ATOM      5  N   UNL     1       0.464  10.441  20.929  0.00  0.00    +0.000 N 
ENDROOT
BRANCH   5   6
ATOM      6  C   UNL     1      -0.255  11.670  20.908  0.00  0.00    +0.000 A 
ATOM      7  C   UNL     1       0.337  12.824  21.436  0.00  0.00    +0.000 A 
ATOM      8  C   UNL     1      -0.311  14.058  21.309  0.00  0.00    +0.000 A 
ATOM      9  C   UNL     1      -1.558  14.136  20.688  0.00  0.00    +0.000 A 
ATOM     10  C   UNL     1      -2.174  12.981  20.214  0.00  0.00    +0.000 A 
ATOM     11  C   UNL     1      -1.529  11.748  20.330  0.00  0.00    +0.000 A 
ENDBRANCH   5   6
BRANCH   2  12
ATOM     12  C   UNL     1       2.087   7.410  19.714  0.00  0.00    +0.000 C 
ATOM     13  O   UNL     1       2.207   7.431  18.492  0.00  0.00    +0.000 OA
ATOM     14  N   UNL     1       2.443   6.340  20.522  0.00  0.00    +0.000 N 
ATOM     15  H   UNL     1       1.980   6.279  21.418  0.00  0.00    +0.000 HD
BRANCH  14  16
ATOM     16  C   UNL     1       3.035   5.162  20.003  0.00  0.00    +0.000 A 
ATOM     17  C   UNL     1       4.373   5.176  19.578  0.00  0.00    +0.000 A 
ATOM     18  C   UNL     1       4.958   4.021  19.067  0.00  0.00    +0.000 A 
ATOM     19  C   UNL     1       4.231   2.847  18.958  0.00  0.00    +0.000 A 
ATOM     20  C   UNL     1       2.903   2.820  19.386  0.00  0.00    +0.000 A 
ATOM     21  C   UNL     1       2.291   3.969  19.919  0.00  0.00    +0.000 A 
ATOM     22  C   UNL     1       0.844   3.894  20.320  0.00  0.00    +0.000 C 
BRANCH  18  23
ATOM     23  O   UNL     1       6.261   4.004  18.663  0.00  0.00    +0.000 OA
ATOM     24  H   UNL     1       6.430   3.163  18.206  0.00  0.00    +0.000 HD
ENDBRANCH  18  23
ENDBRANCH  14  16
ENDBRANCH   2  12
BRANCH   1  25
ATOM     25  C   UNL     1       0.924  10.117  18.421  0.00  0.00    +0.000 C 
BRANCH  25  27
ATOM     26  C   UNL     1       2.187  12.300  18.336  0.00  0.00    +0.000 C 
ATOM     27  C   UNL     1       2.228  10.813  18.018  0.00  0.00    +0.000 C 
ENDBRANCH  25  27
ENDBRANCH   1  25
TORSDOF 6
ENDMDL
MODEL 8
REMARK VINA RESULT:      -6.7      2.422      8.007
REMARK  Name = 
REMARK  8 active torsions:
REMARK  status: ('A' for Active; 'I' for Inactive)
REMARK    1  A    between atoms: C_1  and  C_2
REMARK    2  A    between atoms: C_2  and  C_3
REMARK    3  A    between atoms: C_3  and  C_4
REMARK    4  A    between atoms: C_5  and  C_6
REMARK    5  A    between atoms: N_8  and  C_9
REMARK    6  A    between atoms: C_11  and  O_12
REMARK    7  A    between atoms: C_15  and  C_16
REMARK    8  A    between atoms: N_19  and  C_20
REMARK                            x       y       z     vdW  Elec       q    Type
REMARK                         _______ _______ _______ _____ _____    ______ ____
ROOT
ATOM      1  C   UNL     1       2.355   6.313  19.239  0.00  0.00    +0.000 A 
ATOM      2  C   UNL     1       2.347   7.596  18.699  0.00  0.00    +0.000 A 
ATOM      3  C   UNL     1       3.282   7.540  17.649  0.00  0.00    +0.000 A 
ATOM      4  N   UNL     1       3.845   6.341  17.521  0.00  0.00    +0.000 NA
ATOM      5  N   UNL     1       3.197   5.558  18.425  0.00  0.00    +0.000 N 
ENDROOT
BRANCH   5   6
ATOM      6  C   UNL     1       3.469   4.161  18.469  0.00  0.00    +0.000 A 
ATOM      7  C   UNL     1       4.384   3.666  19.408  0.00  0.00    +0.000 A 
ATOM      8  C   UNL     1       4.564   2.285  19.541  0.00  0.00    +0.000 A 
ATOM      9  C   UNL     1       3.862   1.402  18.719  0.00  0.00    +0.000 A 
ATOM     10  C   UNL     1       2.997   1.895  17.746  0.00  0.00    +0.000 A 
ATOM     11  C   UNL     1       2.805   3.272  17.615  0.00  0.00    +0.000 A 
ENDBRANCH   5   6
BRANCH   2  12
ATOM     12  C   UNL     1       1.648   8.764  19.209  0.00  0.00    +0.000 C 
ATOM     13  O   UNL     1       1.516   8.936  20.418  0.00  0.00    +0.000 OA
ATOM     14  N   UNL     1       1.087   9.577  18.234  0.00  0.00    +0.000 N 
ATOM     15  H   UNL     1       0.947   9.157  17.325  0.00  0.00    +0.000 HD
BRANCH  14  16
ATOM     16  C   UNL     1       0.333  10.733  18.551  0.00  0.00    +0.000 A 
ATOM     17  C   UNL     1      -1.049  10.630  18.779  0.00  0.00    +0.000 A 
ATOM     18  C   UNL     1      -1.794  11.764  19.090  0.00  0.00    +0.000 A 
ATOM     19  C   UNL     1      -1.190  13.009  19.167  0.00  0.00    +0.000 A 
ATOM     20  C   UNL     1       0.184  13.120  18.951  0.00  0.00    +0.000 A 
ATOM     21  C   UNL     1       0.963  11.988  18.648  0.00  0.00    +0.000 A 
ATOM     22  C   UNL     1       2.429  12.176  18.379  0.00  0.00    +0.000 C 
BRANCH  18  23
ATOM     23  O   UNL     1      -3.134  11.689  19.333  0.00  0.00    +0.000 OA
ATOM     24  H   UNL     1      -3.324  10.828  19.740  0.00  0.00    +0.000 HD
ENDBRANCH  18  23
ENDBRANCH  14  16
ENDBRANCH   2  12
BRANCH   1  25
ATOM     25  C   UNL     1       1.695   5.815  20.494  0.00  0.00    +0.000 C 
BRANCH  25  27
ATOM     26  C   UNL     1       1.311   3.414  21.171  0.00  0.00    +0.000 C 
ATOM     27  C   UNL     1       0.866   4.548  20.259  0.00  0.00    +0.000 C 
ENDBRANCH  25  27
ENDBRANCH   1  25
TORSDOF 6
ENDMDL
MODEL 9
REMARK VINA RESULT:      -6.6      2.114      3.413
REMARK  Name = 
REMARK  8 active torsions:
REMARK  status: ('A' for Active; 'I' for Inactive)
REMARK    1  A    between atoms: C_1  and  C_2
REMARK    2  A    between atoms: C_2  and  C_3
REMARK    3  A    between atoms: C_3  and  C_4
REMARK    4  A    between atoms: C_5  and  C_6
REMARK    5  A    between atoms: N_8  and  C_9
REMARK    6  A    between atoms: C_11  and  O_12
REMARK    7  A    between atoms: C_15  and  C_16
REMARK    8  A    between atoms: N_19  and  C_20
REMARK                            x       y       z     vdW  Elec       q    Type
REMARK                         _______ _______ _______ _____ _____    ______ ____
ROOT
ATOM      1  C   UNL     1       0.329  10.228  20.686  0.00  0.00    +0.000 A 
ATOM      2  C   UNL     1       1.091   9.072  20.828  0.00  0.00    +0.000 A 
ATOM      3  C   UNL     1       1.334   8.981  22.211  0.00  0.00    +0.000 A 
ATOM      4  N   UNL     1       0.787   9.980  22.899  0.00  0.00    +0.000 NA
ATOM      5  N   UNL     1       0.078  10.686  21.978  0.00  0.00    +0.000 N 
ENDROOT
BRANCH   5   6
ATOM      6  C   UNL     1      -0.745  11.768  22.401  0.00  0.00    +0.000 A 
ATOM      7  C   UNL     1      -0.337  13.084  22.149  0.00  0.00    +0.000 A 
ATOM      8  C   UNL     1      -1.194  14.148  22.449  0.00  0.00    +0.000 A 
ATOM      9  C   UNL     1      -2.440  13.904  23.030  0.00  0.00    +0.000 A 
ATOM     10  C   UNL     1      -2.823  12.600  23.335  0.00  0.00    +0.000 A 
ATOM     11  C   UNL     1      -1.975  11.534  23.029  0.00  0.00    +0.000 A 
ENDBRANCH   5   6
BRANCH   2  12
ATOM     12  C   UNL     1       1.641   8.242  19.769  0.00  0.00    +0.000 C 
ATOM     13  O   UNL     1       1.638   8.631  18.604  0.00  0.00    +0.000 OA
ATOM     14  N   UNL     1       2.063   6.985  20.178  0.00  0.00    +0.000 N 
ATOM     15  H   UNL     1       1.692   6.650  21.057  0.00  0.00    +0.000 HD
BRANCH  14  16
ATOM     16  C   UNL     1       2.584   6.028  19.273  0.00  0.00    +0.000 A 
ATOM     17  C   UNL     1       3.551   6.407  18.328  0.00  0.00    +0.000 A 
ATOM     18  C   UNL     1       4.065   5.469  17.437  0.00  0.00    +0.000 A 
ATOM     19  C   UNL     1       3.624   4.156  17.459  0.00  0.00    +0.000 A 
ATOM     20  C   UNL     1       2.670   3.767  18.399  0.00  0.00    +0.000 A 
ATOM     21  C   UNL     1       2.144   4.691  19.321  0.00  0.00    +0.000 A 
ATOM     22  C   UNL     1       1.084   4.226  20.280  0.00  0.00    +0.000 C 
BRANCH  18  23
ATOM     23  O   UNL     1       5.017   5.808  16.521  0.00  0.00    +0.000 OA
ATOM     24  H   UNL     1       4.677   5.602  15.634  0.00  0.00    +0.000 HD
ENDBRANCH  18  23
ENDBRANCH  14  16
ENDBRANCH   2  12
BRANCH   1  25
ATOM     25  C   UNL     1      -0.081  10.938  19.425  0.00  0.00    +0.000 C 
BRANCH  25  27
ATOM     26  C   UNL     1      -2.299  11.721  18.510  0.00  0.00    +0.000 C 
ATOM     27  C   UNL     1      -1.473  10.518  18.941  0.00  0.00    +0.000 C 
ENDBRANCH  25  27
ENDBRANCH   1  25
TORSDOF 6
ENDMDL
