MODEL 1
REMARK VINA RESULT:      -8.5      0.000      0.000
REMARK  Name = 
REMARK  5 active torsions:
REMARK  status: ('A' for Active; 'I' for Inactive)
REMARK    1  A    between atoms: C_1  and  N_2
REMARK    2  A    between atoms: C_3  and  C_4
REMARK    3  A    between atoms: C_7  and  C_8
REMARK    4  A    between atoms: C_8  and  N_9
REMARK    5  A    between atoms: C_20  and  C_21
REMARK                            x       y       z     vdW  Elec       q    Type
REMARK                         _______ _______ _______ _____ _____    ______ ____
ROOT
ATOM      1  C   UNL     1       0.544   9.861  17.894  0.00  0.00    +0.000 C 
ATOM      2  N   UNL     1       0.667   9.622  19.322  0.00  0.00    +0.000 N 
ATOM      3  C   UNL     1       1.410   8.584  19.932  0.00  0.00    +0.000 A 
ATOM      4  N   UNL     1       1.423   8.386  21.223  0.00  0.00    +0.000 NA
ATOM      5  C   UNL     1       0.716   9.260  21.952  0.00  0.00    +0.000 A 
ATOM      6  O   UNL     1       0.639   9.247  23.312  0.00  0.00    +0.000 OA
ATOM      7  N   UNL     1      -0.128  10.307  23.744  0.00  0.00    +0.000 NA
ATOM      8  C   UNL     1      -0.582  10.940  22.649  0.00  0.00    +0.000 A 
ATOM      9  C   UNL     1      -0.026  10.319  21.501  0.00  0.00    +0.000 A 
ATOM     10  C   UNL     1      -0.088  10.522  20.088  0.00  0.00    +0.000 A 
ATOM     11  O   UNL     1      -0.759  11.421  19.571  0.00  0.00    +0.000 OA
ENDROOT
BRANCH   8  12
ATOM     12  C   UNL     1      -1.491  12.091  22.747  0.00  0.00    +0.000 A 
ATOM     13  C   UNL     1      -2.803  11.889  23.216  0.00  0.00    +0.000 A 
ATOM     14  C   UNL     1      -3.678  12.956  23.429  0.00  0.00    +0.000 A 
ATOM     15  C   UNL     1      -3.275  14.247  23.126  0.00  0.00    +0.000 A 
ATOM     16  C   UNL     1      -2.001  14.468  22.609  0.00  0.00    +0.000 A 
ATOM     17  C   UNL     1      -1.109  13.402  22.422  0.00  0.00    +0.000 A 
ATOM     18 CL   UNL     1       0.456  13.842  21.812  0.00  0.00    +0.000 Cl
ENDBRANCH   8  12
BRANCH   3  19
ATOM     19  C   UNL     1       2.234   7.633  19.123  0.00  0.00    +0.000 A 
ATOM     20  C   UNL     1       2.972   8.002  17.992  0.00  0.00    +0.000 A 
ATOM     21  C   UNL     1       3.714   7.053  17.286  0.00  0.00    +0.000 A 
ATOM     22  C   UNL     1       3.872   5.761  17.791  0.00  0.00    +0.000 A 
ATOM     23  C   UNL     1       3.242   5.437  19.003  0.00  0.00    +0.000 A 
ATOM     24  C   UNL     1       2.369   6.333  19.613  0.00  0.00    +0.000 A 
BRANCH  22  25
ATOM     25  C   UNL     1       4.618   4.686  17.030  0.00  0.00    +0.000 C 
BRANCH  25  26
ATOM     26  N   UNL     1       6.078   4.701  17.008  0.00  0.00    +0.000 NA
ATOM     27  C   UNL     1       6.759   4.607  18.295  0.00  0.00    +0.000 C 
ATOM     28  C   UNL     1       7.174   6.027  18.623  0.00  0.00    +0.000 C 
ATOM     29  C   UNL     1       7.477   6.632  17.264  0.00  0.00    +0.000 C 
ATOM     30  C   UNL     1       6.704   5.784  16.258  0.00  0.00    +0.000 C 
ENDBRANCH  25  26
ENDBRANCH  22  25
ENDBRANCH   3  19
TORSDOF 4
ENDMDL
MODEL 2
REMARK VINA RESULT:      -8.4      2.878      9.825
REMARK  Name = 
REMARK  5 active torsions:
REMARK  status: ('A' for Active; 'I' for Inactive)
REMARK    1  A    between atoms: C_1  and  N_2
REMARK    2  A    between atoms: C_3  and  C_4
REMARK    3  A    between atoms: C_7  and  C_8
REMARK    4  A    between atoms: C_8  and  N_9
REMARK    5  A    between atoms: C_20  and  C_21
REMARK                            x       y       z     vdW  Elec       q    Type
REMARK                         _______ _______ _______ _____ _____    ______ ____
ROOT
ATOM      1  C   UNL     1       1.940   9.874  18.351  0.00  0.00    +0.000 C 
ATOM      2  N   UNL     1       1.953   8.637  19.114  0.00  0.00    +0.000 N 
ATOM      3  C   UNL     1       1.284   8.407  20.339  0.00  0.00    +0.000 A 
ATOM      4  N   UNL     1       1.393   7.291  21.008  0.00  0.00    +0.000 NA
ATOM      5  C   UNL     1       2.152   6.344  20.439  0.00  0.00    +0.000 A 
ATOM      6  O   UNL     1       2.355   5.102  20.958  0.00  0.00    +0.000 OA
ATOM      7  N   UNL     1       3.144   4.364  20.103  0.00  0.00    +0.000 NA
ATOM      8  C   UNL     1       3.486   5.171  19.084  0.00  0.00    +0.000 A 
ATOM      9  C   UNL     1       2.835   6.420  19.254  0.00  0.00    +0.000 A 
ATOM     10  C   UNL     1       2.763   7.651  18.532  0.00  0.00    +0.000 A 
ATOM     11  O   UNL     1       3.371   7.842  17.475  0.00  0.00    +0.000 OA
ENDROOT
BRANCH   8  12
ATOM     12  C   UNL     1       4.384   4.718  18.013  0.00  0.00    +0.000 A 
ATOM     13  C   UNL     1       3.830   4.149  16.850  0.00  0.00    +0.000 A 
ATOM     14  C   UNL     1       4.623   3.795  15.757  0.00  0.00    +0.000 A 
ATOM     15  C   UNL     1       5.999   3.952  15.826  0.00  0.00    +0.000 A 
ATOM     16  C   UNL     1       6.578   4.460  16.986  0.00  0.00    +0.000 A 
ATOM     17  C   UNL     1       5.781   4.845  18.074  0.00  0.00    +0.000 A 
ATOM     18 CL   UNL     1       6.644   5.501  19.430  0.00  0.00    +0.000 Cl
ENDBRANCH   8  12
BRANCH   3  19
ATOM     19  C   UNL     1       0.402   9.447  20.954  0.00  0.00    +0.000 A 
ATOM     20  C   UNL     1      -0.409  10.321  20.221  0.00  0.00    +0.000 A 
ATOM     21  C   UNL     1      -1.203  11.269  20.869  0.00  0.00    +0.000 A 
ATOM     22  C   UNL     1      -1.334  11.250  22.259  0.00  0.00    +0.000 A 
ATOM     23  C   UNL     1      -0.625  10.278  22.982  0.00  0.00    +0.000 A 
ATOM     24  C   UNL     1       0.293   9.446  22.347  0.00  0.00    +0.000 A 
BRANCH  22  25
ATOM     25  C   UNL     1      -2.136  12.294  23.006  0.00  0.00    +0.000 C 
BRANCH  25  26
ATOM     26  N   UNL     1      -3.590  12.182  23.060  0.00  0.00    +0.000 NA
ATOM     27  C   UNL     1      -4.338  12.746  21.942  0.00  0.00    +0.000 C 
ATOM     28  C   UNL     1      -4.848  14.081  22.447  0.00  0.00    +0.000 C 
ATOM     29  C   UNL     1      -5.105  13.829  23.922  0.00  0.00    +0.000 C 
ATOM     30  C   UNL     1      -4.231  12.634  24.291  0.00  0.00    +0.000 C 
ENDBRANCH  25  26
ENDBRANCH  22  25
ENDBRANCH   3  19
TORSDOF 4
ENDMDL
MODEL 3
REMARK VINA RESULT:      -8.4      2.954      9.897
REMARK  Name = 
REMARK  5 active torsions:
REMARK  status: ('A' for Active; 'I' for Inactive)
REMARK    1  A    between atoms: C_1  and  N_2
REMARK    2  A    between atoms: C_3  and  C_4
REMARK    3  A    between atoms: C_7  and  C_8
REMARK    4  A    between atoms: C_8  and  N_9
REMARK    5  A    between atoms: C_20  and  C_21
REMARK                            x       y       z     vdW  Elec       q    Type
REMARK                         _______ _______ _______ _____ _____    ______ ____
ROOT
ATOM      1  C   UNL     1       1.508  10.302  18.264  0.00  0.00    +0.000 C 
ATOM      2  N   UNL     1       1.655   9.076  19.031  0.00  0.00    +0.000 N 
ATOM      3  C   UNL     1       1.081   8.812  20.296  0.00  0.00    +0.000 A 
ATOM      4  N   UNL     1       1.310   7.712  20.963  0.00  0.00    +0.000 NA
ATOM      5  C   UNL     1       2.097   6.816  20.352  0.00  0.00    +0.000 A 
ATOM      6  O   UNL     1       2.418   5.595  20.863  0.00  0.00    +0.000 OA
ATOM      7  N   UNL     1       3.203   4.906  19.964  0.00  0.00    +0.000 NA
ATOM      8  C   UNL     1       3.424   5.726  18.922  0.00  0.00    +0.000 A 
ATOM      9  C   UNL     1       2.698   6.927  19.127  0.00  0.00    +0.000 A 
ATOM     10  C   UNL     1       2.495   8.144  18.404  0.00  0.00    +0.000 A 
ATOM     11  O   UNL     1       3.021   8.367  17.310  0.00  0.00    +0.000 OA
ENDROOT
BRANCH   8  12
ATOM     12  C   UNL     1       4.283   5.326  17.799  0.00  0.00    +0.000 A 
ATOM     13  C   UNL     1       5.467   6.048  17.552  0.00  0.00    +0.000 A 
ATOM     14  C   UNL     1       6.374   5.654  16.567  0.00  0.00    +0.000 A 
ATOM     15  C   UNL     1       6.088   4.557  15.768  0.00  0.00    +0.000 A 
ATOM     16  C   UNL     1       4.898   3.859  15.955  0.00  0.00    +0.000 A 
ATOM     17  C   UNL     1       3.999   4.234  16.964  0.00  0.00    +0.000 A 
ATOM     18 CL   UNL     1       2.581   3.241  17.100  0.00  0.00    +0.000 Cl
ENDBRANCH   8  12
BRANCH   3  19
ATOM     19  C   UNL     1       0.168   9.793  20.960  0.00  0.00    +0.000 A 
ATOM     20  C   UNL     1      -0.632  10.710  20.270  0.00  0.00    +0.000 A 
ATOM     21  C   UNL     1      -1.457  11.599  20.963  0.00  0.00    +0.000 A 
ATOM     22  C   UNL     1      -1.628  11.474  22.343  0.00  0.00    +0.000 A 
ATOM     23  C   UNL     1      -0.928  10.458  23.013  0.00  0.00    +0.000 A 
ATOM     24  C   UNL     1       0.018   9.686  22.345  0.00  0.00    +0.000 A 
BRANCH  22  25
ATOM     25  C   UNL     1      -2.465  12.450  23.142  0.00  0.00    +0.000 C 
BRANCH  25  26
ATOM     26  N   UNL     1      -3.917  12.300  23.168  0.00  0.00    +0.000 NA
ATOM     27  C   UNL     1      -4.655  12.820  22.022  0.00  0.00    +0.000 C 
ATOM     28  C   UNL     1      -5.211  14.151  22.486  0.00  0.00    +0.000 C 
ATOM     29  C   UNL     1      -5.493  13.925  23.960  0.00  0.00    +0.000 C 
ATOM     30  C   UNL     1      -4.596  12.763  24.374  0.00  0.00    +0.000 C 
ENDBRANCH  25  26
ENDBRANCH  22  25
ENDBRANCH   3  19
TORSDOF 4
ENDMDL
MODEL 4
REMARK VINA RESULT:      -8.3      1.417      2.620
REMARK  Name = 
REMARK  5 active torsions:
REMARK  status: ('A' for Active; 'I' for Inactive)
REMARK    1  A    between atoms: C_1  and  N_2
REMARK    2  A    between atoms: C_3  and  C_4
REMARK    3  A    between atoms: C_7  and  C_8
REMARK    4  A    between atoms: C_8  and  N_9
REMARK    5  A    between atoms: C_20  and  C_21
REMARK                            x       y       z     vdW  Elec       q    Type
REMARK                         _______ _______ _______ _____ _____    ______ ____
ROOT
ATOM      1  C   UNL     1       1.480   9.163  22.477  0.00  0.00    +0.000 C 
ATOM      2  N   UNL     1       0.646   9.785  21.463  0.00  0.00    +0.000 N 
ATOM      3  C   UNL     1       0.698   9.532  20.072  0.00  0.00    +0.000 A 
ATOM      4  N   UNL     1      -0.036  10.178  19.206  0.00  0.00    +0.000 NA
ATOM      5  C   UNL     1      -0.886  11.077  19.721  0.00  0.00    +0.000 A 
ATOM      6  O   UNL     1      -1.762  11.819  18.988  0.00  0.00    +0.000 OA
ATOM      7  N   UNL     1      -2.519  12.607  19.828  0.00  0.00    +0.000 NA
ATOM      8  C   UNL     1      -2.067  12.404  21.077  0.00  0.00    +0.000 A 
ATOM      9  C   UNL     1      -1.059  11.406  21.039  0.00  0.00    +0.000 A 
ATOM     10  C   UNL     1      -0.231  10.741  21.995  0.00  0.00    +0.000 A 
ATOM     11  O   UNL     1      -0.275  10.990  23.204  0.00  0.00    +0.000 OA
ENDROOT
BRANCH   8  12
ATOM     12  C   UNL     1      -2.617  13.141  22.223  0.00  0.00    +0.000 A 
ATOM     13  C   UNL     1      -3.504  12.485  23.097  0.00  0.00    +0.000 A 
ATOM     14  C   UNL     1      -3.978  13.098  24.258  0.00  0.00    +0.000 A 
ATOM     15  C   UNL     1      -3.616  14.406  24.542  0.00  0.00    +0.000 A 
ATOM     16  C   UNL     1      -2.783  15.097  23.665  0.00  0.00    +0.000 A 
ATOM     17  C   UNL     1      -2.281  14.473  22.513  0.00  0.00    +0.000 A 
ATOM     18 CL   UNL     1      -1.222  15.449  21.543  0.00  0.00    +0.000 Cl
ENDBRANCH   8  12
BRANCH   3  19
ATOM     19  C   UNL     1       1.616   8.499  19.500  0.00  0.00    +0.000 A 
ATOM     20  C   UNL     1       1.873   7.261  20.099  0.00  0.00    +0.000 A 
ATOM     21  C   UNL     1       2.747   6.349  19.504  0.00  0.00    +0.000 A 
ATOM     22  C   UNL     1       3.245   6.582  18.221  0.00  0.00    +0.000 A 
ATOM     23  C   UNL     1       2.870   7.765  17.564  0.00  0.00    +0.000 A 
ATOM     24  C   UNL     1       2.136   8.745  18.227  0.00  0.00    +0.000 A 
BRANCH  22  25
ATOM     25  C   UNL     1       4.240   5.651  17.562  0.00  0.00    +0.000 C 
BRANCH  25  26
ATOM     26  N   UNL     1       5.633   6.066  17.425  0.00  0.00    +0.000 NA
ATOM     27  C   UNL     1       6.277   5.805  16.143  0.00  0.00    +0.000 C 
ATOM     28  C   UNL     1       7.115   4.563  16.371  0.00  0.00    +0.000 C 
ATOM     29  C   UNL     1       7.563   4.696  17.816  0.00  0.00    +0.000 C 
ATOM     30  C   UNL     1       6.547   5.626  18.474  0.00  0.00    +0.000 C 
ENDBRANCH  25  26
ENDBRANCH  22  25
ENDBRANCH   3  19
TORSDOF 4
ENDMDL
MODEL 5
REMARK VINA RESULT:      -8.3      3.004      9.798
REMARK  Name = 
REMARK  5 active torsions:
REMARK  status: ('A' for Active; 'I' for Inactive)
REMARK    1  A    between atoms: C_1  and  N_2
REMARK    2  A    between atoms: C_3  and  C_4
REMARK    3  A    between atoms: C_7  and  C_8
REMARK    4  A    between atoms: C_8  and  N_9
REMARK    5  A    between atoms: C_20  and  C_21
REMARK                            x       y       z     vdW  Elec       q    Type
REMARK                         _______ _______ _______ _____ _____    ______ ____
ROOT
ATOM      1  C   UNL     1       2.250   9.605  17.884  0.00  0.00    +0.000 C 
ATOM      2  N   UNL     1       2.481   8.328  18.539  0.00  0.00    +0.000 N 
ATOM      3  C   UNL     1       1.981   7.938  19.803  0.00  0.00    +0.000 A 
ATOM      4  N   UNL     1       2.284   6.799  20.365  0.00  0.00    +0.000 NA
ATOM      5  C   UNL     1       3.073   5.988  19.646  0.00  0.00    +0.000 A 
ATOM      6  O   UNL     1       3.465   4.745  20.039  0.00  0.00    +0.000 OA
ATOM      7  N   UNL     1       4.229   4.164  19.050  0.00  0.00    +0.000 NA
ATOM      8  C   UNL     1       4.367   5.074  18.071  0.00  0.00    +0.000 A 
ATOM      9  C   UNL     1       3.608   6.224  18.408  0.00  0.00    +0.000 A 
ATOM     10  C   UNL     1       3.323   7.485  17.799  0.00  0.00    +0.000 A 
ATOM     11  O   UNL     1       3.786   7.818  16.703  0.00  0.00    +0.000 OA
ENDROOT
BRANCH   8  12
ATOM     12  C   UNL     1       5.184   4.803  16.880  0.00  0.00    +0.000 A 
ATOM     13  C   UNL     1       4.557   4.319  15.715  0.00  0.00    +0.000 A 
ATOM     14  C   UNL     1       5.261   4.140  14.523  0.00  0.00    +0.000 A 
ATOM     15  C   UNL     1       6.624   4.392  14.485  0.00  0.00    +0.000 A 
ATOM     16  C   UNL     1       7.279   4.818  15.637  0.00  0.00    +0.000 A 
ATOM     17  C   UNL     1       6.569   5.027  16.829  0.00  0.00    +0.000 A 
ATOM     18 CL   UNL     1       7.516   5.601  18.166  0.00  0.00    +0.000 Cl
ENDBRANCH   8  12
BRANCH   3  19
ATOM     19  C   UNL     1       1.066   8.824  20.588  0.00  0.00    +0.000 A 
ATOM     20  C   UNL     1       0.059   9.611  20.019  0.00  0.00    +0.000 A 
ATOM     21  C   UNL     1      -0.754  10.417  20.820  0.00  0.00    +0.000 A 
ATOM     22  C   UNL     1      -0.691  10.321  22.211  0.00  0.00    +0.000 A 
ATOM     23  C   UNL     1       0.227   9.423  22.778  0.00  0.00    +0.000 A 
ATOM     24  C   UNL     1       1.148   8.748  21.981  0.00  0.00    +0.000 A 
BRANCH  22  25
ATOM     25  C   UNL     1      -1.510  11.216  23.117  0.00  0.00    +0.000 C 
BRANCH  25  26
ATOM     26  N   UNL     1      -2.007  12.491  22.611  0.00  0.00    +0.000 NA
ATOM     27  C   UNL     1      -1.240  13.683  22.956  0.00  0.00    +0.000 C 
ATOM     28  C   UNL     1      -2.004  14.324  24.097  0.00  0.00    +0.000 C 
ATOM     29  C   UNL     1      -3.454  14.009  23.775  0.00  0.00    +0.000 C 
ATOM     30  C   UNL     1      -3.413  12.786  22.864  0.00  0.00    +0.000 C 
ENDBRANCH  25  26
ENDBRANCH  22  25
ENDBRANCH   3  19
TORSDOF 4
ENDMDL
MODEL 6
REMARK VINA RESULT:      -8.3      1.464      2.392
REMARK  Name = 
REMARK  5 active torsions:
REMARK  status: ('A' for Active; 'I' for Inactive)
REMARK    1  A    between atoms: C_1  and  N_2
REMARK    2  A    between atoms: C_3  and  C_4
REMARK    3  A    between atoms: C_7  and  C_8
REMARK    4  A    between atoms: C_8  and  N_9
REMARK    5  A    between atoms: C_20  and  C_21
REMARK                            x       y       z     vdW  Elec       q    Type
REMARK                         _______ _______ _______ _____ _____    ______ ____
ROOT
ATOM      1  C   UNL     1       1.042   9.712  17.928  0.00  0.00    +0.000 C 
ATOM      2  N   UNL     1       0.884   9.573  19.366  0.00  0.00    +0.000 N 
ATOM      3  C   UNL     1       1.371   8.508  20.159  0.00  0.00    +0.000 A 
ATOM      4  N   UNL     1       1.135   8.411  21.439  0.00  0.00    +0.000 NA
ATOM      5  C   UNL     1       0.430   9.416  21.978  0.00  0.00    +0.000 A 
ATOM      6  O   UNL     1       0.117   9.518  23.300  0.00  0.00    +0.000 OA
ATOM      7  N   UNL     1      -0.572  10.690  23.525  0.00  0.00    +0.000 NA
ATOM      8  C   UNL     1      -0.744  11.283  22.331  0.00  0.00    +0.000 A 
ATOM      9  C   UNL     1      -0.082  10.514  21.341  0.00  0.00    +0.000 A 
ATOM     10  C   UNL     1       0.129  10.612  19.930  0.00  0.00    +0.000 A 
ATOM     11  O   UNL     1      -0.322  11.539  19.251  0.00  0.00    +0.000 OA
ENDROOT
BRANCH   8  12
ATOM     12  C   UNL     1      -1.501  12.536  22.199  0.00  0.00    +0.000 A 
ATOM     13  C   UNL     1      -2.899  12.512  22.367  0.00  0.00    +0.000 A 
ATOM     14  C   UNL     1      -3.659  13.683  22.355  0.00  0.00    +0.000 A 
ATOM     15  C   UNL     1      -3.041  14.902  22.120  0.00  0.00    +0.000 A 
ATOM     16  C   UNL     1      -1.668  14.947  21.895  0.00  0.00    +0.000 A 
ATOM     17  C   UNL     1      -0.897  13.776  21.936  0.00  0.00    +0.000 A 
ATOM     18 CL   UNL     1       0.806  14.000  21.681  0.00  0.00    +0.000 Cl
ENDBRANCH   8  12
BRANCH   3  19
ATOM     19  C   UNL     1       2.194   7.408  19.567  0.00  0.00    +0.000 A 
ATOM     20  C   UNL     1       2.884   7.510  18.354  0.00  0.00    +0.000 A 
ATOM     21  C   UNL     1       3.630   6.435  17.866  0.00  0.00    +0.000 A 
ATOM     22  C   UNL     1       3.840   5.304  18.656  0.00  0.00    +0.000 A 
ATOM     23  C   UNL     1       3.259   5.265  19.934  0.00  0.00    +0.000 A 
ATOM     24  C   UNL     1       2.382   6.264  20.347  0.00  0.00    +0.000 A 
BRANCH  22  25
ATOM     25  C   UNL     1       4.590   4.093  18.145  0.00  0.00    +0.000 C 
BRANCH  25  26
ATOM     26  N   UNL     1       3.850   2.891  17.774  0.00  0.00    +0.000 NA
ATOM     27  C   UNL     1       2.568   3.084  17.105  0.00  0.00    +0.000 C 
ATOM     28  C   UNL     1       1.527   2.877  18.186  0.00  0.00    +0.000 C 
ATOM     29  C   UNL     1       2.147   1.819  19.080  0.00  0.00    +0.000 C 
ATOM     30  C   UNL     1       3.650   1.901  18.828  0.00  0.00    +0.000 C 
ENDBRANCH  25  26
ENDBRANCH  22  25
ENDBRANCH   3  19
TORSDOF 4
ENDMDL
MODEL 7
REMARK VINA RESULT:      -8.2      2.895      9.822
REMARK  Name = 
REMARK  5 active torsions:
REMARK  status: ('A' for Active; 'I' for Inactive)
REMARK    1  A    between atoms: C_1  and  N_2
REMARK    2  A    between atoms: C_3  and  C_4
REMARK    3  A    between atoms: C_7  and  C_8
REMARK    4  A    between atoms: C_8  and  N_9
REMARK    5  A    between atoms: C_20  and  C_21
REMARK                            x       y       z     vdW  Elec       q    Type
REMARK                         _______ _______ _______ _____ _____    ______ ____
ROOT
ATOM      1  C   UNL     1       2.082   9.969  17.840  0.00  0.00    +0.000 C 
ATOM      2  N   UNL     1       2.081   8.770  18.661  0.00  0.00    +0.000 N 
ATOM      3  C   UNL     1       1.351   8.580  19.858  0.00  0.00    +0.000 A 
ATOM      4  N   UNL     1       1.450   7.500  20.585  0.00  0.00    +0.000 NA
ATOM      5  C   UNL     1       2.262   6.548  20.104  0.00  0.00    +0.000 A 
ATOM      6  O   UNL     1       2.465   5.337  20.692  0.00  0.00    +0.000 OA
ATOM      7  N   UNL     1       3.319   4.581  19.918  0.00  0.00    +0.000 NA
ATOM      8  C   UNL     1       3.697   5.349  18.882  0.00  0.00    +0.000 A 
ATOM      9  C   UNL     1       3.008   6.586  18.956  0.00  0.00    +0.000 A 
ATOM     10  C   UNL     1       2.946   7.780  18.173  0.00  0.00    +0.000 A 
ATOM     11  O   UNL     1       3.607   7.937  17.142  0.00  0.00    +0.000 OA
ENDROOT
BRANCH   8  12
ATOM     12  C   UNL     1       4.664   4.870  17.884  0.00  0.00    +0.000 A 
ATOM     13  C   UNL     1       4.188   4.341  16.668  0.00  0.00    +0.000 A 
ATOM     14  C   UNL     1       5.056   3.966  15.642  0.00  0.00    +0.000 A 
ATOM     15  C   UNL     1       6.426   4.062  15.830  0.00  0.00    +0.000 A 
ATOM     16  C   UNL     1       6.924   4.529  17.043  0.00  0.00    +0.000 A 
ATOM     17  C   UNL     1       6.054   4.935  18.066  0.00  0.00    +0.000 A 
ATOM     18 CL   UNL     1       6.825   5.535  19.501  0.00  0.00    +0.000 Cl
ENDBRANCH   8  12
BRANCH   3  19
ATOM     19  C   UNL     1       0.412   9.624  20.373  0.00  0.00    +0.000 A 
ATOM     20  C   UNL     1       0.517  10.218  21.636  0.00  0.00    +0.000 A 
ATOM     21  C   UNL     1      -0.403  11.184  22.047  0.00  0.00    +0.000 A 
ATOM     22  C   UNL     1      -1.339  11.698  21.147  0.00  0.00    +0.000 A 
ATOM     23  C   UNL     1      -1.348  11.196  19.836  0.00  0.00    +0.000 A 
ATOM     24  C   UNL     1      -0.542  10.118  19.481  0.00  0.00    +0.000 A 
BRANCH  22  25
ATOM     25  C   UNL     1      -2.392  12.702  21.565  0.00  0.00    +0.000 C 
BRANCH  25  26
ATOM     26  N   UNL     1      -3.560  12.249  22.314  0.00  0.00    +0.000 NA
ATOM     27  C   UNL     1      -4.854  12.786  21.906  0.00  0.00    +0.000 C 
ATOM     28  C   UNL     1      -5.160  13.876  22.914  0.00  0.00    +0.000 C 
ATOM     29  C   UNL     1      -4.546  13.353  24.201  0.00  0.00    +0.000 C 
ATOM     30  C   UNL     1      -3.480  12.352  23.767  0.00  0.00    +0.000 C 
ENDBRANCH  25  26
ENDBRANCH  22  25
ENDBRANCH   3  19
TORSDOF 4
ENDMDL
MODEL 8
REMARK VINA RESULT:      -8.2      1.470      2.499
REMARK  Name = 
REMARK  5 active torsions:
REMARK  status: ('A' for Active; 'I' for Inactive)
REMARK    1  A    between atoms: C_1  and  N_2
REMARK    2  A    between atoms: C_3  and  C_4
REMARK    3  A    between atoms: C_7  and  C_8
REMARK    4  A    between atoms: C_8  and  N_9
REMARK    5  A    between atoms: C_20  and  C_21
REMARK                            x       y       z     vdW  Elec       q    Type
REMARK                         _______ _______ _______ _____ _____    ______ ____
ROOT
ATOM      1  C   UNL     1       1.510   9.080  22.273  0.00  0.00    +0.000 C 
ATOM      2  N   UNL     1       0.644   9.773  21.334  0.00  0.00    +0.000 N 
ATOM      3  C   UNL     1       0.646   9.617  19.928  0.00  0.00    +0.000 A 
ATOM      4  N   UNL     1      -0.114  10.322  19.135  0.00  0.00    +0.000 NA
ATOM      5  C   UNL     1      -0.941  11.186  19.740  0.00  0.00    +0.000 A 
ATOM      6  O   UNL     1      -1.839  11.979  19.091  0.00  0.00    +0.000 OA
ATOM      7  N   UNL     1      -2.561  12.710  20.010  0.00  0.00    +0.000 NA
ATOM      8  C   UNL     1      -2.066  12.420  21.225  0.00  0.00    +0.000 A 
ATOM      9  C   UNL     1      -1.066  11.424  21.083  0.00  0.00    +0.000 A 
ATOM     10  C   UNL     1      -0.208  10.693  21.961  0.00  0.00    +0.000 A 
ATOM     11  O   UNL     1      -0.208  10.858  23.185  0.00  0.00    +0.000 OA
ENDROOT
BRANCH   8  12
ATOM     12  C   UNL     1      -2.572  13.078  22.437  0.00  0.00    +0.000 A 
ATOM     13  C   UNL     1      -3.838  12.715  22.936  0.00  0.00    +0.000 A 
ATOM     14  C   UNL     1      -4.327  13.229  24.139  0.00  0.00    +0.000 A 
ATOM     15  C   UNL     1      -3.580  14.162  24.842  0.00  0.00    +0.000 A 
ATOM     16  C   UNL     1      -2.349  14.579  24.343  0.00  0.00    +0.000 A 
ATOM     17  C   UNL     1      -1.842  14.042  23.150  0.00  0.00    +0.000 A 
ATOM     18 CL   UNL     1      -0.277  14.629  22.680  0.00  0.00    +0.000 Cl
ENDBRANCH   8  12
BRANCH   3  19
ATOM     19  C   UNL     1       1.538   8.622  19.254  0.00  0.00    +0.000 A 
ATOM     20  C   UNL     1       2.237   8.874  18.068  0.00  0.00    +0.000 A 
ATOM     21  C   UNL     1       3.049   7.891  17.497  0.00  0.00    +0.000 A 
ATOM     22  C   UNL     1       3.311   6.705  18.185  0.00  0.00    +0.000 A 
ATOM     23  C   UNL     1       2.716   6.517  19.442  0.00  0.00    +0.000 A 
ATOM     24  C   UNL     1       1.779   7.424  19.929  0.00  0.00    +0.000 A 
BRANCH  22  25
ATOM     25  C   UNL     1       4.136   5.589  17.579  0.00  0.00    +0.000 C 
BRANCH  25  26
ATOM     26  N   UNL     1       5.373   5.910  16.873  0.00  0.00    +0.000 NA
ATOM     27  C   UNL     1       5.506   5.404  15.511  0.00  0.00    +0.000 C 
ATOM     28  C   UNL     1       6.393   4.182  15.632  0.00  0.00    +0.000 C 
ATOM     29  C   UNL     1       7.337   4.538  16.766  0.00  0.00    +0.000 C 
ATOM     30  C   UNL     1       6.616   5.612  17.575  0.00  0.00    +0.000 C 
ENDBRANCH  25  26
ENDBRANCH  22  25
ENDBRANCH   3  19
TORSDOF 4
ENDMDL
MODEL 9
REMARK VINA RESULT:      -8.1      2.883      9.715
REMARK  Name = 
REMARK  5 active torsions:
REMARK  status: ('A' for Active; 'I' for Inactive)
REMARK    1  A    between atoms: C_1  and  N_2
REMARK    2  A    between atoms: C_3  and  C_4
REMARK    3  A    between atoms: C_7  and  C_8
REMARK    4  A    between atoms: C_8  and  N_9
REMARK    5  A    between atoms: C_20  and  C_21
REMARK                            x       y       z     vdW  Elec       q    Type
REMARK                         _______ _______ _______ _____ _____    ______ ____
ROOT
ATOM      1  C   UNL     1       1.250  10.545  18.416  0.00  0.00    +0.000 C 
ATOM      2  N   UNL     1       1.416   9.309  19.163  0.00  0.00    +0.000 N 
ATOM      3  C   UNL     1       0.878   9.029  20.440  0.00  0.00    +0.000 A 
ATOM      4  N   UNL     1       1.122   7.921  21.086  0.00  0.00    +0.000 NA
ATOM      5  C   UNL     1       1.890   7.031  20.442  0.00  0.00    +0.000 A 
ATOM      6  O   UNL     1       2.224   5.803  20.929  0.00  0.00    +0.000 OA
ATOM      7  N   UNL     1       2.981   5.125  19.999  0.00  0.00    +0.000 NA
ATOM      8  C   UNL     1       3.174   5.958  18.962  0.00  0.00    +0.000 A 
ATOM      9  C   UNL     1       2.457   7.157  19.202  0.00  0.00    +0.000 A 
ATOM     10  C   UNL     1       2.236   8.383  18.501  0.00  0.00    +0.000 A 
ATOM     11  O   UNL     1       2.732   8.619  17.395  0.00  0.00    +0.000 OA
ENDROOT
BRANCH   8  12
ATOM     12  C   UNL     1       4.001   5.571  17.810  0.00  0.00    +0.000 A 
ATOM     13  C   UNL     1       5.094   6.382  17.448  0.00  0.00    +0.000 A 
ATOM     14  C   UNL     1       5.975   6.014  16.430  0.00  0.00    +0.000 A 
ATOM     15  C   UNL     1       5.750   4.849  15.713  0.00  0.00    +0.000 A 
ATOM     16  C   UNL     1       4.645   4.057  16.014  0.00  0.00    +0.000 A 
ATOM     17  C   UNL     1       3.775   4.408  17.056  0.00  0.00    +0.000 A 
ATOM     18 CL   UNL     1       2.469   3.299  17.338  0.00  0.00    +0.000 Cl
ENDBRANCH   8  12
BRANCH   3  19
ATOM     19  C   UNL     1      -0.014  10.003  21.142  0.00  0.00    +0.000 A 
ATOM     20  C   UNL     1      -0.771  10.984  20.490  0.00  0.00    +0.000 A 
ATOM     21  C   UNL     1      -1.579  11.861  21.217  0.00  0.00    +0.000 A 
ATOM     22  C   UNL     1      -1.779  11.667  22.585  0.00  0.00    +0.000 A 
ATOM     23  C   UNL     1      -1.126  10.593  23.210  0.00  0.00    +0.000 A 
ATOM     24  C   UNL     1      -0.193   9.826  22.516  0.00  0.00    +0.000 A 
BRANCH  22  25
ATOM     25  C   UNL     1      -2.598  12.626  23.423  0.00  0.00    +0.000 C 
BRANCH  25  26
ATOM     26  N   UNL     1      -2.397  14.064  23.273  0.00  0.00    +0.000 NA
ATOM     27  C   UNL     1      -1.156  14.617  23.803  0.00  0.00    +0.000 C 
ATOM     28  C   UNL     1      -1.540  15.240  25.130  0.00  0.00    +0.000 C 
ATOM     29  C   UNL     1      -2.951  15.747  24.890  0.00  0.00    +0.000 C 
ATOM     30  C   UNL     1      -3.488  14.922  23.724  0.00  0.00    +0.000 C 
ENDBRANCH  25  26
ENDBRANCH  22  25
ENDBRANCH   3  19
TORSDOF 4
ENDMDL
