MODEL 1
REMARK VINA RESULT:      -7.0      0.000      0.000
REMARK  Name = 
REMARK  4 active torsions:
REMARK  status: ('A' for Active; 'I' for Inactive)
REMARK    1  A    between atoms: C_1  and  C_2
REMARK    2  A    between atoms: C_5  and  N_6
REMARK    3  A    between atoms: N_9  and  C_10
REMARK    4  A    between atoms: N_9  and  C_11
REMARK                            x       y       z     vdW  Elec       q    Type
REMARK                         _______ _______ _______ _____ _____    ______ ____
ROOT
ATOM      1  N   UNL     1       8.826   8.521  19.085  0.00  0.00    +0.000 N 
ATOM      2  C   UNL     1       8.034   7.880  18.155  0.00  0.00    +0.000 C 
ATOM      3  O   UNL     1       7.615   8.449  17.142  0.00  0.00    +0.000 OA
ATOM      4  N   UNL     1       7.692   6.549  18.438  0.00  0.00    +0.000 N 
ATOM      5  C   UNL     1       8.122   5.746  19.583  0.00  0.00    +0.000 C 
ATOM      6  H   UNL     1       9.385   7.955  19.700  0.00  0.00    +0.000 HD
ENDROOT
BRANCH   1  11
ATOM      7  C   UNL     1      10.292  14.078  19.177  0.00  0.00    +0.000 C 
ATOM      8  C   UNL     1       9.884  12.636  19.142  0.00  0.00    +0.000 A 
ATOM      9  C   UNL     1       9.705  11.980  17.923  0.00  0.00    +0.000 A 
ATOM     10  C   UNL     1       9.342  10.631  17.889  0.00  0.00    +0.000 A 
ATOM     11  C   UNL     1       9.161   9.902  19.068  0.00  0.00    +0.000 A 
ATOM     12  C   UNL     1       9.305  10.569  20.290  0.00  0.00    +0.000 A 
ATOM     13  C   UNL     1       9.675  11.922  20.327  0.00  0.00    +0.000 A 
ENDBRANCH   1  11
BRANCH   4  14
ATOM     14  C   UNL     1       6.823   5.870  17.520  0.00  0.00    +0.000 A 
ATOM     15  C   UNL     1       5.441   6.085  17.563  0.00  0.00    +0.000 A 
ATOM     16  C   UNL     1       4.589   5.416  16.682  0.00  0.00    +0.000 A 
ATOM     17  C   UNL     1       5.112   4.505  15.767  0.00  0.00    +0.000 A 
ATOM     18  C   UNL     1       6.486   4.276  15.721  0.00  0.00    +0.000 A 
ATOM     19  C   UNL     1       7.343   4.970  16.583  0.00  0.00    +0.000 A 
ENDBRANCH   4  14
TORSDOF 2
ENDMDL
MODEL 2
REMARK VINA RESULT:      -6.9      5.972      7.499
REMARK  Name = 
REMARK  4 active torsions:
REMARK  status: ('A' for Active; 'I' for Inactive)
REMARK    1  A    between atoms: C_1  and  C_2
REMARK    2  A    between atoms: C_5  and  N_6
REMARK    3  A    between atoms: N_9  and  C_10
REMARK    4  A    between atoms: N_9  and  C_11
REMARK                            x       y       z     vdW  Elec       q    Type
REMARK                         _______ _______ _______ _____ _____    ______ ____
ROOT
ATOM      1  N   UNL     1       2.109   7.858  19.527  0.00  0.00    +0.000 N 
ATOM      2  C   UNL     1       2.140   6.478  19.498  0.00  0.00    +0.000 C 
ATOM      3  O   UNL     1       1.399   5.787  20.204  0.00  0.00    +0.000 OA
ATOM      4  N   UNL     1       3.090   5.893  18.647  0.00  0.00    +0.000 N 
ATOM      5  C   UNL     1       4.019   6.579  17.749  0.00  0.00    +0.000 C 
ATOM      6  H   UNL     1       2.484   8.355  18.738  0.00  0.00    +0.000 HD
ENDROOT
BRANCH   1  11
ATOM      7  C   UNL     1      -1.177  11.022  23.022  0.00  0.00    +0.000 C 
ATOM      8  C   UNL     1      -0.297  10.211  22.120  0.00  0.00    +0.000 A 
ATOM      9  C   UNL     1       0.634   9.319  22.654  0.00  0.00    +0.000 A 
ATOM     10  C   UNL     1       1.444   8.550  21.813  0.00  0.00    +0.000 A 
ATOM     11  C   UNL     1       1.335   8.643  20.422  0.00  0.00    +0.000 A 
ATOM     12  C   UNL     1       0.426   9.564  19.888  0.00  0.00    +0.000 A 
ATOM     13  C   UNL     1      -0.391  10.333  20.729  0.00  0.00    +0.000 A 
ENDBRANCH   1  11
BRANCH   4  14
ATOM     14  C   UNL     1       3.188   4.462  18.634  0.00  0.00    +0.000 A 
ATOM     15  C   UNL     1       4.095   3.806  19.475  0.00  0.00    +0.000 A 
ATOM     16  C   UNL     1       4.204   2.414  19.455  0.00  0.00    +0.000 A 
ATOM     17  C   UNL     1       3.425   1.668  18.575  0.00  0.00    +0.000 A 
ATOM     18  C   UNL     1       2.525   2.310  17.726  0.00  0.00    +0.000 A 
ATOM     19  C   UNL     1       2.392   3.703  17.767  0.00  0.00    +0.000 A 
ENDBRANCH   4  14
TORSDOF 2
ENDMDL
MODEL 3
REMARK VINA RESULT:      -6.9      5.950      7.404
REMARK  Name = 
REMARK  4 active torsions:
REMARK  status: ('A' for Active; 'I' for Inactive)
REMARK    1  A    between atoms: C_1  and  C_2
REMARK    2  A    between atoms: C_5  and  N_6
REMARK    3  A    between atoms: N_9  and  C_10
REMARK    4  A    between atoms: N_9  and  C_11
REMARK                            x       y       z     vdW  Elec       q    Type
REMARK                         _______ _______ _______ _____ _____    ______ ____
ROOT
ATOM      1  N   UNL     1       2.170   7.826  19.431  0.00  0.00    +0.000 N 
ATOM      2  C   UNL     1       2.234   6.447  19.430  0.00  0.00    +0.000 C 
ATOM      3  O   UNL     1       1.535   5.754  20.176  0.00  0.00    +0.000 OA
ATOM      4  N   UNL     1       3.170   5.866  18.559  0.00  0.00    +0.000 N 
ATOM      5  C   UNL     1       4.050   6.554  17.616  0.00  0.00    +0.000 C 
ATOM      6  H   UNL     1       2.506   8.314  18.619  0.00  0.00    +0.000 HD
ENDROOT
BRANCH   1  11
ATOM      7  C   UNL     1      -1.067  11.008  22.956  0.00  0.00    +0.000 C 
ATOM      8  C   UNL     1      -0.199  10.191  22.047  0.00  0.00    +0.000 A 
ATOM      9  C   UNL     1       0.657   9.220  22.569  0.00  0.00    +0.000 A 
ATOM     10  C   UNL     1       1.454   8.446  21.722  0.00  0.00    +0.000 A 
ATOM     11  C   UNL     1       1.407   8.612  20.335  0.00  0.00    +0.000 A 
ATOM     12  C   UNL     1       0.575   9.610  19.814  0.00  0.00    +0.000 A 
ATOM     13  C   UNL     1      -0.230  10.385  20.661  0.00  0.00    +0.000 A 
ENDBRANCH   1  11
BRANCH   4  14
ATOM     14  C   UNL     1       3.302   4.438  18.574  0.00  0.00    +0.000 A 
ATOM     15  C   UNL     1       2.545   3.647  17.702  0.00  0.00    +0.000 A 
ATOM     16  C   UNL     1       2.659   2.256  17.723  0.00  0.00    +0.000 A 
ATOM     17  C   UNL     1       3.513   1.642  18.635  0.00  0.00    +0.000 A 
ATOM     18  C   UNL     1       4.266   2.418  19.515  0.00  0.00    +0.000 A 
ATOM     19  C   UNL     1       4.175   3.814  19.473  0.00  0.00    +0.000 A 
ENDBRANCH   4  14
TORSDOF 2
ENDMDL
MODEL 4
REMARK VINA RESULT:      -6.9      5.526      8.395
REMARK  Name = 
REMARK  4 active torsions:
REMARK  status: ('A' for Active; 'I' for Inactive)
REMARK    1  A    between atoms: C_1  and  C_2
REMARK    2  A    between atoms: C_5  and  N_6
REMARK    3  A    between atoms: N_9  and  C_10
REMARK    4  A    between atoms: N_9  and  C_11
REMARK                            x       y       z     vdW  Elec       q    Type
REMARK                         _______ _______ _______ _____ _____    ______ ____
ROOT
ATOM      1  N   UNL     1       2.579   7.271  18.784  0.00  0.00    +0.000 N 
ATOM      2  C   UNL     1       1.959   8.438  18.384  0.00  0.00    +0.000 C 
ATOM      3  O   UNL     1       2.022   8.851  17.222  0.00  0.00    +0.000 OA
ATOM      4  N   UNL     1       1.281   9.157  19.379  0.00  0.00    +0.000 N 
ATOM      5  C   UNL     1       1.113   8.786  20.784  0.00  0.00    +0.000 C 
ATOM      6  H   UNL     1       2.249   6.825  19.622  0.00  0.00    +0.000 HD
ENDROOT
BRANCH   1  11
ATOM      7  C   UNL     1       5.892   3.962  15.453  0.00  0.00    +0.000 C 
ATOM      8  C   UNL     1       5.050   4.827  16.340  0.00  0.00    +0.000 A 
ATOM      9  C   UNL     1       5.371   6.172  16.529  0.00  0.00    +0.000 A 
ATOM     10  C   UNL     1       4.576   6.984  17.343  0.00  0.00    +0.000 A 
ATOM     11  C   UNL     1       3.438   6.478  17.977  0.00  0.00    +0.000 A 
ATOM     12  C   UNL     1       3.137   5.120  17.816  0.00  0.00    +0.000 A 
ATOM     13  C   UNL     1       3.929   4.304  16.996  0.00  0.00    +0.000 A 
ENDBRANCH   1  11
BRANCH   4  14
ATOM     14  C   UNL     1       0.673  10.403  19.009  0.00  0.00    +0.000 A 
ATOM     15  C   UNL     1       1.408  11.593  19.063  0.00  0.00    +0.000 A 
ATOM     16  C   UNL     1       0.817  12.810  18.719  0.00  0.00    +0.000 A 
ATOM     17  C   UNL     1      -0.523  12.850  18.342  0.00  0.00    +0.000 A 
ATOM     18  C   UNL     1      -1.268  11.673  18.294  0.00  0.00    +0.000 A 
ATOM     19  C   UNL     1      -0.667  10.449  18.609  0.00  0.00    +0.000 A 
ENDBRANCH   4  14
TORSDOF 2
ENDMDL
MODEL 5
REMARK VINA RESULT:      -6.9      0.480      1.183
REMARK  Name = 
REMARK  4 active torsions:
REMARK  status: ('A' for Active; 'I' for Inactive)
REMARK    1  A    between atoms: C_1  and  C_2
REMARK    2  A    between atoms: C_5  and  N_6
REMARK    3  A    between atoms: N_9  and  C_10
REMARK    4  A    between atoms: N_9  and  C_11
REMARK                            x       y       z     vdW  Elec       q    Type
REMARK                         _______ _______ _______ _____ _____    ______ ____
ROOT
ATOM      1  N   UNL     1       8.879   8.659  19.170  0.00  0.00    +0.000 N 
ATOM      2  C   UNL     1       8.171   8.071  18.142  0.00  0.00    +0.000 C 
ATOM      3  O   UNL     1       7.889   8.679  17.104  0.00  0.00    +0.000 OA
ATOM      4  N   UNL     1       7.749   6.749  18.350  0.00  0.00    +0.000 N 
ATOM      5  C   UNL     1       8.017   5.905  19.513  0.00  0.00    +0.000 C 
ATOM      6  H   UNL     1       9.343   8.057  19.828  0.00  0.00    +0.000 HD
ENDROOT
BRANCH   1  11
ATOM      7  C   UNL     1      10.536  14.147  19.570  0.00  0.00    +0.000 C 
ATOM      8  C   UNL     1      10.080  12.725  19.452  0.00  0.00    +0.000 A 
ATOM      9  C   UNL     1      10.018  12.102  18.205  0.00  0.00    +0.000 A 
ATOM     10  C   UNL     1       9.610  10.770  18.095  0.00  0.00    +0.000 A 
ATOM     11  C   UNL     1       9.265  10.025  19.227  0.00  0.00    +0.000 A 
ATOM     12  C   UNL     1       9.293  10.660  20.474  0.00  0.00    +0.000 A 
ATOM     13  C   UNL     1       9.707  11.995  20.587  0.00  0.00    +0.000 A 
ENDBRANCH   1  11
BRANCH   4  14
ATOM     14  C   UNL     1       6.962   6.127  17.324  0.00  0.00    +0.000 A 
ATOM     15  C   UNL     1       7.398   4.943  16.717  0.00  0.00    +0.000 A 
ATOM     16  C   UNL     1       6.644   4.342  15.708  0.00  0.00    +0.000 A 
ATOM     17  C   UNL     1       5.459   4.935  15.278  0.00  0.00    +0.000 A 
ATOM     18  C   UNL     1       5.020   6.119  15.868  0.00  0.00    +0.000 A 
ATOM     19  C   UNL     1       5.759   6.705  16.901  0.00  0.00    +0.000 A 
ENDBRANCH   4  14
TORSDOF 2
ENDMDL
MODEL 6
REMARK VINA RESULT:      -6.9      5.620      8.428
REMARK  Name = 
REMARK  4 active torsions:
REMARK  status: ('A' for Active; 'I' for Inactive)
REMARK    1  A    between atoms: C_1  and  C_2
REMARK    2  A    between atoms: C_5  and  N_6
REMARK    3  A    between atoms: N_9  and  C_10
REMARK    4  A    between atoms: N_9  and  C_11
REMARK                            x       y       z     vdW  Elec       q    Type
REMARK                         _______ _______ _______ _____ _____    ______ ____
ROOT
ATOM      1  N   UNL     1       2.475   7.369  18.835  0.00  0.00    +0.000 N 
ATOM      2  C   UNL     1       1.875   8.544  18.431  0.00  0.00    +0.000 C 
ATOM      3  O   UNL     1       1.950   8.956  17.269  0.00  0.00    +0.000 OA
ATOM      4  N   UNL     1       1.203   9.275  19.422  0.00  0.00    +0.000 N 
ATOM      5  C   UNL     1       1.022   8.907  20.826  0.00  0.00    +0.000 C 
ATOM      6  H   UNL     1       2.133   6.928  19.671  0.00  0.00    +0.000 HD
ENDROOT
BRANCH   1  11
ATOM      7  C   UNL     1       5.754   3.999  15.530  0.00  0.00    +0.000 C 
ATOM      8  C   UNL     1       4.921   4.881  16.410  0.00  0.00    +0.000 A 
ATOM      9  C   UNL     1       5.223   6.237  16.543  0.00  0.00    +0.000 A 
ATOM     10  C   UNL     1       4.437   7.064  17.350  0.00  0.00    +0.000 A 
ATOM     11  C   UNL     1       3.325   6.561  18.032  0.00  0.00    +0.000 A 
ATOM     12  C   UNL     1       3.043   5.194  17.927  0.00  0.00    +0.000 A 
ATOM     13  C   UNL     1       3.827   4.363  17.114  0.00  0.00    +0.000 A 
ENDBRANCH   1  11
BRANCH   4  14
ATOM     14  C   UNL     1       0.616  10.530  19.048  0.00  0.00    +0.000 A 
ATOM     15  C   UNL     1      -0.724  10.594  18.647  0.00  0.00    +0.000 A 
ATOM     16  C   UNL     1      -1.295  11.810  18.268  0.00  0.00    +0.000 A 
ATOM     17  C   UNL     1      -0.523  12.969  18.262  0.00  0.00    +0.000 A 
ATOM     18  C   UNL     1       0.815  12.916  18.650  0.00  0.00    +0.000 A 
ATOM     19  C   UNL     1       1.379  11.703  19.060  0.00  0.00    +0.000 A 
ENDBRANCH   4  14
TORSDOF 2
ENDMDL
MODEL 7
REMARK VINA RESULT:      -6.8      5.891      7.339
REMARK  Name = 
REMARK  4 active torsions:
REMARK  status: ('A' for Active; 'I' for Inactive)
REMARK    1  A    between atoms: C_1  and  C_2
REMARK    2  A    between atoms: C_5  and  N_6
REMARK    3  A    between atoms: N_9  and  C_10
REMARK    4  A    between atoms: N_9  and  C_11
REMARK                            x       y       z     vdW  Elec       q    Type
REMARK                         _______ _______ _______ _____ _____    ______ ____
ROOT
ATOM      1  N   UNL     1       2.152   7.856  19.378  0.00  0.00    +0.000 N 
ATOM      2  C   UNL     1       2.208   6.476  19.371  0.00  0.00    +0.000 C 
ATOM      3  O   UNL     1       1.456   5.784  20.064  0.00  0.00    +0.000 OA
ATOM      4  N   UNL     1       3.195   5.896  18.560  0.00  0.00    +0.000 N 
ATOM      5  C   UNL     1       4.140   6.584  17.682  0.00  0.00    +0.000 C 
ATOM      6  H   UNL     1       2.544   8.348  18.594  0.00  0.00    +0.000 HD
ENDROOT
BRANCH   1  11
ATOM      7  C   UNL     1      -1.000  11.043  22.975  0.00  0.00    +0.000 C 
ATOM      8  C   UNL     1      -0.202  10.198  22.028  0.00  0.00    +0.000 A 
ATOM      9  C   UNL     1      -0.340  10.358  20.648  0.00  0.00    +0.000 A 
ATOM     10  C   UNL     1       0.417   9.583  19.765  0.00  0.00    +0.000 A 
ATOM     11  C   UNL     1       1.336   8.641  20.235  0.00  0.00    +0.000 A 
ATOM     12  C   UNL     1       1.447   8.456  21.618  0.00  0.00    +0.000 A 
ATOM     13  C   UNL     1       0.694   9.235  22.507  0.00  0.00    +0.000 A 
ENDBRANCH   1  11
BRANCH   4  14
ATOM     14  C   UNL     1       3.317   4.466  18.573  0.00  0.00    +0.000 A 
ATOM     15  C   UNL     1       2.574   3.684  17.680  0.00  0.00    +0.000 A 
ATOM     16  C   UNL     1       2.678   2.292  17.699  0.00  0.00    +0.000 A 
ATOM     17  C   UNL     1       3.507   1.669  18.628  0.00  0.00    +0.000 A 
ATOM     18  C   UNL     1       4.244   2.437  19.529  0.00  0.00    +0.000 A 
ATOM     19  C   UNL     1       4.164   3.833  19.490  0.00  0.00    +0.000 A 
ENDBRANCH   4  14
TORSDOF 2
ENDMDL
MODEL 8
REMARK VINA RESULT:      -6.8      5.606      8.482
REMARK  Name = 
REMARK  4 active torsions:
REMARK  status: ('A' for Active; 'I' for Inactive)
REMARK    1  A    between atoms: C_1  and  C_2
REMARK    2  A    between atoms: C_5  and  N_6
REMARK    3  A    between atoms: N_9  and  C_10
REMARK    4  A    between atoms: N_9  and  C_11
REMARK                            x       y       z     vdW  Elec       q    Type
REMARK                         _______ _______ _______ _____ _____    ______ ____
ROOT
ATOM      1  N   UNL     1       2.454   7.316  18.851  0.00  0.00    +0.000 N 
ATOM      2  C   UNL     1       1.857   8.489  18.433  0.00  0.00    +0.000 C 
ATOM      3  O   UNL     1       1.889   8.860  17.256  0.00  0.00    +0.000 OA
ATOM      4  N   UNL     1       1.240   9.264  19.427  0.00  0.00    +0.000 N 
ATOM      5  C   UNL     1       1.114   8.947  20.849  0.00  0.00    +0.000 C 
ATOM      6  H   UNL     1       2.141   6.910  19.716  0.00  0.00    +0.000 HD
ENDROOT
BRANCH   1  11
ATOM      7  C   UNL     1       5.855   3.980  15.637  0.00  0.00    +0.000 C 
ATOM      8  C   UNL     1       4.947   4.847  16.456  0.00  0.00    +0.000 A 
ATOM      9  C   UNL     1       3.818   4.306  17.072  0.00  0.00    +0.000 A 
ATOM     10  C   UNL     1       2.980   5.110  17.850  0.00  0.00    +0.000 A 
ATOM     11  C   UNL     1       3.254   6.467  18.041  0.00  0.00    +0.000 A 
ATOM     12  C   UNL     1       4.367   7.017  17.393  0.00  0.00    +0.000 A 
ATOM     13  C   UNL     1       5.212   6.212  16.616  0.00  0.00    +0.000 A 
ENDBRANCH   1  11
BRANCH   4  14
ATOM     14  C   UNL     1       0.660  10.516  19.036  0.00  0.00    +0.000 A 
ATOM     15  C   UNL     1       1.424  11.689  19.057  0.00  0.00    +0.000 A 
ATOM     16  C   UNL     1       0.859  12.912  18.692  0.00  0.00    +0.000 A 
ATOM     17  C   UNL     1      -0.483  12.978  18.327  0.00  0.00    +0.000 A 
ATOM     18  C   UNL     1      -1.257  11.818  18.311  0.00  0.00    +0.000 A 
ATOM     19  C   UNL     1      -0.683  10.587  18.647  0.00  0.00    +0.000 A 
ENDBRANCH   4  14
TORSDOF 2
ENDMDL
MODEL 9
REMARK VINA RESULT:      -6.8      5.591      8.436
REMARK  Name = 
REMARK  4 active torsions:
REMARK  status: ('A' for Active; 'I' for Inactive)
REMARK    1  A    between atoms: C_1  and  C_2
REMARK    2  A    between atoms: C_5  and  N_6
REMARK    3  A    between atoms: N_9  and  C_10
REMARK    4  A    between atoms: N_9  and  C_11
REMARK                            x       y       z     vdW  Elec       q    Type
REMARK                         _______ _______ _______ _____ _____    ______ ____
ROOT
ATOM      1  N   UNL     1       2.468   7.293  18.857  0.00  0.00    +0.000 N 
ATOM      2  C   UNL     1       1.858   8.466  18.458  0.00  0.00    +0.000 C 
ATOM      3  O   UNL     1       1.876   8.850  17.284  0.00  0.00    +0.000 OA
ATOM      4  N   UNL     1       1.246   9.226  19.466  0.00  0.00    +0.000 N 
ATOM      5  C   UNL     1       1.136   8.893  20.885  0.00  0.00    +0.000 C 
ATOM      6  H   UNL     1       2.166   6.875  19.721  0.00  0.00    +0.000 HD
ENDROOT
BRANCH   1  11
ATOM      7  C   UNL     1       5.860   4.016  15.574  0.00  0.00    +0.000 C 
ATOM      8  C   UNL     1       4.954   4.868  16.411  0.00  0.00    +0.000 A 
ATOM      9  C   UNL     1       3.836   4.312  17.034  0.00  0.00    +0.000 A 
ATOM     10  C   UNL     1       3.000   5.102  17.829  0.00  0.00    +0.000 A 
ATOM     11  C   UNL     1       3.266   6.459  18.031  0.00  0.00    +0.000 A 
ATOM     12  C   UNL     1       4.368   7.023  17.377  0.00  0.00    +0.000 A 
ATOM     13  C   UNL     1       5.211   6.233  16.583  0.00  0.00    +0.000 A 
ENDBRANCH   1  11
BRANCH   4  14
ATOM     14  C   UNL     1       0.652  10.478  19.094  0.00  0.00    +0.000 A 
ATOM     15  C   UNL     1      -0.691  10.537  18.706  0.00  0.00    +0.000 A 
ATOM     16  C   UNL     1      -1.270  11.750  18.328  0.00  0.00    +0.000 A 
ATOM     17  C   UNL     1      -0.501  12.912  18.311  0.00  0.00    +0.000 A 
ATOM     18  C   UNL     1       0.841  12.863  18.686  0.00  0.00    +0.000 A 
ATOM     19  C   UNL     1       1.413  11.653  19.094  0.00  0.00    +0.000 A 
ENDBRANCH   4  14
TORSDOF 2
ENDMDL
