MODEL 1
REMARK VINA RESULT:      -9.2      0.000      0.000
REMARK  Name = 
REMARK  6 active torsions:
REMARK  status: ('A' for Active; 'I' for Inactive)
REMARK    1  A    between atoms: N_4  and  C_5
REMARK    2  A    between atoms: C_8  and  C_9
REMARK    3  A    between atoms: C_9  and  N_10
REMARK    4  A    between atoms: N_10  and  C_11
REMARK    5  A    between atoms: C_12  and  C_13
REMARK    6  A    between atoms: C_23  and  C_24
REMARK                            x       y       z     vdW  Elec       q    Type
REMARK                         _______ _______ _______ _____ _____    ______ ____
ROOT
ATOM      1  C   UNL     1       4.545   4.825  17.371  0.00  0.00    +0.000 A 
ATOM      2  C   UNL     1       5.052   3.969  16.390  0.00  0.00    +0.000 A 
ATOM      3  N   UNL     1       4.648   2.669  16.596  0.00  0.00    +0.000 NA
ATOM      4  C   UNL     1       3.865   2.708  17.647  0.00  0.00    +0.000 A 
ATOM      5  C   UNL     1       3.149   1.663  18.299  0.00  0.00    +0.000 A 
ATOM      6  C   UNL     1       2.415   1.921  19.397  0.00  0.00    +0.000 A 
ATOM      7  C   UNL     1       2.317   3.276  19.942  0.00  0.00    +0.000 A 
ATOM      8  C   UNL     1       2.966   4.264  19.297  0.00  0.00    +0.000 A 
ATOM      9  N   UNL     1       3.750   3.996  18.169  0.00  0.00    +0.000 N 
ENDROOT
BRANCH   2  10
ATOM     10  C   UNL     1       5.935   4.324  15.289  0.00  0.00    +0.000 A 
ATOM     11  C   UNL     1       5.690   3.848  13.997  0.00  0.00    +0.000 A 
ATOM     12  C   UNL     1       6.533   4.216  12.947  0.00  0.00    +0.000 A 
ATOM     13  C   UNL     1       7.607   5.046  13.224  0.00  0.00    +0.000 A 
ATOM     14  N   UNL     1       7.878   5.532  14.451  0.00  0.00    +0.000 NA
ATOM     15  C   UNL     1       7.025   5.175  15.443  0.00  0.00    +0.000 A 
ENDBRANCH   2  10
BRANCH   7  16
ATOM     16  C   UNL     1       1.519   3.528  21.191  0.00  0.00    +0.000 C 
ATOM     17  F   UNL     1       0.813   2.445  21.602  0.00  0.00    +0.000 F 
ATOM     18  F   UNL     1       2.321   3.890  22.225  0.00  0.00    +0.000 F 
ATOM     19  F   UNL     1       0.628   4.538  21.017  0.00  0.00    +0.000 F 
ENDBRANCH   7  16
BRANCH   1  20
ATOM     20  N   UNL     1       4.745   6.172  17.544  0.00  0.00    +0.000 N 
ATOM     21  H   UNL     1       5.045   6.465  18.472  0.00  0.00    +0.000 HD
BRANCH  20  22
ATOM     22  C   UNL     1       3.922   7.209  16.944  0.00  0.00    +0.000 C 
BRANCH  22  26
ATOM     23  C   UNL     1       1.165   8.863  19.871  0.00  0.00    +0.000 A 
ATOM     24  C   UNL     1       1.293   9.422  18.590  0.00  0.00    +0.000 A 
ATOM     25  C   UNL     1       2.166   8.880  17.644  0.00  0.00    +0.000 A 
ATOM     26  C   UNL     1       2.944   7.759  17.955  0.00  0.00    +0.000 A 
ATOM     27  C   UNL     1       2.780   7.158  19.210  0.00  0.00    +0.000 A 
ATOM     28  C   UNL     1       1.894   7.700  20.147  0.00  0.00    +0.000 A 
BRANCH  23  32
ATOM     29  N   UNL     1       1.538   9.636  22.745  0.00  0.00    +0.000 NA
ATOM     30  C   UNL     1       0.486   9.872  22.036  0.00  0.00    +0.000 C 
ATOM     31  N   UNL     1      -0.545  10.579  22.562  0.00  0.00    +0.000 N 
ATOM     32  N   UNL     1       0.262   9.454  20.769  0.00  0.00    +0.000 N 
ATOM     33  H   UNL     1       1.454  10.076  23.658  0.00  0.00    +0.000 HD
ATOM     34  H   UNL     1      -0.539  10.655  23.572  0.00  0.00    +0.000 HD
ATOM     35  H   UNL     1      -1.466  10.349  22.213  0.00  0.00    +0.000 HD
ATOM     36  H   UNL     1      -0.629   9.677  20.351  0.00  0.00    +0.000 HD
ENDBRANCH  23  32
ENDBRANCH  22  26
ENDBRANCH  20  22
ENDBRANCH   1  20
TORSDOF 6
ENDMDL
MODEL 2
REMARK VINA RESULT:      -9.1      3.221      7.618
REMARK  Name = 
REMARK  6 active torsions:
REMARK  status: ('A' for Active; 'I' for Inactive)
REMARK    1  A    between atoms: N_4  and  C_5
REMARK    2  A    between atoms: C_8  and  C_9
REMARK    3  A    between atoms: C_9  and  N_10
REMARK    4  A    between atoms: N_10  and  C_11
REMARK    5  A    between atoms: C_12  and  C_13
REMARK    6  A    between atoms: C_23  and  C_24
REMARK                            x       y       z     vdW  Elec       q    Type
REMARK                         _______ _______ _______ _____ _____    ______ ____
ROOT
ATOM      1  C   UNL     1       2.479   6.763  18.818  0.00  0.00    +0.000 A 
ATOM      2  C   UNL     1       2.227   5.613  19.571  0.00  0.00    +0.000 A 
ATOM      3  N   UNL     1       1.525   5.904  20.719  0.00  0.00    +0.000 NA
ATOM      4  C   UNL     1       1.293   7.193  20.670  0.00  0.00    +0.000 A 
ATOM      5  C   UNL     1       0.592   8.036  21.580  0.00  0.00    +0.000 A 
ATOM      6  C   UNL     1       0.495   9.359  21.348  0.00  0.00    +0.000 A 
ATOM      7  C   UNL     1       1.090   9.965  20.156  0.00  0.00    +0.000 A 
ATOM      8  C   UNL     1       1.718   9.155  19.283  0.00  0.00    +0.000 A 
ATOM      9  N   UNL     1       1.842   7.783  19.531  0.00  0.00    +0.000 N 
ENDROOT
BRANCH   2  10
ATOM     10  C   UNL     1       2.657   4.256  19.267  0.00  0.00    +0.000 A 
ATOM     11  C   UNL     1       2.013   3.509  18.276  0.00  0.00    +0.000 A 
ATOM     12  C   UNL     1       2.451   2.217  17.981  0.00  0.00    +0.000 A 
ATOM     13  C   UNL     1       3.521   1.705  18.696  0.00  0.00    +0.000 A 
ATOM     14  N   UNL     1       4.175   2.390  19.655  0.00  0.00    +0.000 NA
ATOM     15  C   UNL     1       3.739   3.650  19.899  0.00  0.00    +0.000 A 
ENDBRANCH   2  10
BRANCH   7  16
ATOM     16  C   UNL     1       0.997  11.450  19.942  0.00  0.00    +0.000 C 
ATOM     17  F   UNL     1       1.844  11.906  18.987  0.00  0.00    +0.000 F 
ATOM     18  F   UNL     1      -0.255  11.817  19.565  0.00  0.00    +0.000 F 
ATOM     19  F   UNL     1       1.278  12.136  21.080  0.00  0.00    +0.000 F 
ENDBRANCH   7  16
BRANCH   1  20
ATOM     20  N   UNL     1       3.175   6.904  17.644  0.00  0.00    +0.000 N 
ATOM     21  H   UNL     1       2.792   6.421  16.833  0.00  0.00    +0.000 HD
BRANCH  20  22
ATOM     22  C   UNL     1       4.626   6.947  17.549  0.00  0.00    +0.000 C 
BRANCH  22  26
ATOM     23  C   UNL     1       5.958   4.071  14.573  0.00  0.00    +0.000 A 
ATOM     24  C   UNL     1       5.877   5.441  14.280  0.00  0.00    +0.000 A 
ATOM     25  C   UNL     1       5.465   6.367  15.241  0.00  0.00    +0.000 A 
ATOM     26  C   UNL     1       5.118   5.946  16.530  0.00  0.00    +0.000 A 
ATOM     27  C   UNL     1       5.252   4.589  16.850  0.00  0.00    +0.000 A 
ATOM     28  C   UNL     1       5.678   3.670  15.884  0.00  0.00    +0.000 A 
BRANCH  23  32
ATOM     29  N   UNL     1       4.676   3.387  11.949  0.00  0.00    +0.000 NA
ATOM     30  C   UNL     1       5.831   2.976  12.347  0.00  0.00    +0.000 C 
ATOM     31  N   UNL     1       6.604   2.218  11.530  0.00  0.00    +0.000 N 
ATOM     32  N   UNL     1       6.388   3.198  13.561  0.00  0.00    +0.000 N 
ATOM     33  H   UNL     1       4.507   3.091  10.990  0.00  0.00    +0.000 HD
ATOM     34  H   UNL     1       6.114   1.798  10.748  0.00  0.00    +0.000 HD
ATOM     35  H   UNL     1       7.215   1.554  11.984  0.00  0.00    +0.000 HD
ATOM     36  H   UNL     1       7.285   2.777  13.750  0.00  0.00    +0.000 HD
ENDBRANCH  23  32
ENDBRANCH  22  26
ENDBRANCH  20  22
ENDBRANCH   1  20
TORSDOF 6
ENDMDL
MODEL 3
REMARK VINA RESULT:      -9.0      3.294      7.718
REMARK  Name = 
REMARK  6 active torsions:
REMARK  status: ('A' for Active; 'I' for Inactive)
REMARK    1  A    between atoms: N_4  and  C_5
REMARK    2  A    between atoms: C_8  and  C_9
REMARK    3  A    between atoms: C_9  and  N_10
REMARK    4  A    between atoms: N_10  and  C_11
REMARK    5  A    between atoms: C_12  and  C_13
REMARK    6  A    between atoms: C_23  and  C_24
REMARK                            x       y       z     vdW  Elec       q    Type
REMARK                         _______ _______ _______ _____ _____    ______ ____
ROOT
ATOM      1  C   UNL     1       2.614   6.941  18.762  0.00  0.00    +0.000 A 
ATOM      2  C   UNL     1       2.290   5.796  19.493  0.00  0.00    +0.000 A 
ATOM      3  N   UNL     1       1.514   6.098  20.589  0.00  0.00    +0.000 NA
ATOM      4  C   UNL     1       1.309   7.392  20.526  0.00  0.00    +0.000 A 
ATOM      5  C   UNL     1       0.559   8.246  21.386  0.00  0.00    +0.000 A 
ATOM      6  C   UNL     1       0.502   9.570  21.150  0.00  0.00    +0.000 A 
ATOM      7  C   UNL     1       1.190  10.167  20.004  0.00  0.00    +0.000 A 
ATOM      8  C   UNL     1       1.864   9.346  19.176  0.00  0.00    +0.000 A 
ATOM      9  N   UNL     1       1.946   7.972  19.429  0.00  0.00    +0.000 N 
ENDROOT
BRANCH   2  10
ATOM     10  C   UNL     1       2.717   4.431  19.218  0.00  0.00    +0.000 A 
ATOM     11  C   UNL     1       2.127   3.694  18.186  0.00  0.00    +0.000 A 
ATOM     12  C   UNL     1       2.562   2.395  17.920  0.00  0.00    +0.000 A 
ATOM     13  C   UNL     1       3.573   1.866  18.705  0.00  0.00    +0.000 A 
ATOM     14  N   UNL     1       4.173   2.540  19.705  0.00  0.00    +0.000 NA
ATOM     15  C   UNL     1       3.743   3.808  19.920  0.00  0.00    +0.000 A 
ENDBRANCH   2  10
BRANCH   7  16
ATOM     16  C   UNL     1       1.139  11.653  19.786  0.00  0.00    +0.000 C 
ATOM     17  F   UNL     1       1.622  12.364  20.834  0.00  0.00    +0.000 F 
ATOM     18  F   UNL     1       1.863  12.018  18.697  0.00  0.00    +0.000 F 
ATOM     19  F   UNL     1      -0.132  12.081  19.570  0.00  0.00    +0.000 F 
ENDBRANCH   7  16
BRANCH   1  20
ATOM     20  N   UNL     1       3.394   7.070  17.640  0.00  0.00    +0.000 N 
ATOM     21  H   UNL     1       2.980   6.752  16.766  0.00  0.00    +0.000 HD
BRANCH  20  22
ATOM     22  C   UNL     1       4.832   6.854  17.609  0.00  0.00    +0.000 C 
BRANCH  22  26
ATOM     23  C   UNL     1       5.977   4.099  14.447  0.00  0.00    +0.000 A 
ATOM     24  C   UNL     1       5.849   3.672  15.777  0.00  0.00    +0.000 A 
ATOM     25  C   UNL     1       5.466   4.554  16.790  0.00  0.00    +0.000 A 
ATOM     26  C   UNL     1       5.198   5.896  16.500  0.00  0.00    +0.000 A 
ATOM     27  C   UNL     1       5.265   6.319  15.166  0.00  0.00    +0.000 A 
ATOM     28  C   UNL     1       5.638   5.426  14.155  0.00  0.00    +0.000 A 
BRANCH  23  32
ATOM     29  N   UNL     1       4.680   3.392  11.836  0.00  0.00    +0.000 NA
ATOM     30  C   UNL     1       5.800   2.921  12.267  0.00  0.00    +0.000 C 
ATOM     31  N   UNL     1       6.529   2.079  11.493  0.00  0.00    +0.000 N 
ATOM     32  N   UNL     1       6.358   3.157  13.478  0.00  0.00    +0.000 N 
ATOM     33  H   UNL     1       4.502   3.067  10.888  0.00  0.00    +0.000 HD
ATOM     34  H   UNL     1       6.021   1.660  10.722  0.00  0.00    +0.000 HD
ATOM     35  H   UNL     1       7.090   1.396  11.982  0.00  0.00    +0.000 HD
ATOM     36  H   UNL     1       7.222   2.685  13.697  0.00  0.00    +0.000 HD
ENDBRANCH  23  32
ENDBRANCH  22  26
ENDBRANCH  20  22
ENDBRANCH   1  20
TORSDOF 6
ENDMDL
MODEL 4
REMARK VINA RESULT:      -8.7      3.315      7.808
REMARK  Name = 
REMARK  6 active torsions:
REMARK  status: ('A' for Active; 'I' for Inactive)
REMARK    1  A    between atoms: N_4  and  C_5
REMARK    2  A    between atoms: C_8  and  C_9
REMARK    3  A    between atoms: C_9  and  N_10
REMARK    4  A    between atoms: N_10  and  C_11
REMARK    5  A    between atoms: C_12  and  C_13
REMARK    6  A    between atoms: C_23  and  C_24
REMARK                            x       y       z     vdW  Elec       q    Type
REMARK                         _______ _______ _______ _____ _____    ______ ____
ROOT
ATOM      1  C   UNL     1       2.444   6.812  18.786  0.00  0.00    +0.000 A 
ATOM      2  C   UNL     1       2.242   5.768  19.692  0.00  0.00    +0.000 A 
ATOM      3  N   UNL     1       1.598   6.202  20.828  0.00  0.00    +0.000 NA
ATOM      4  C   UNL     1       1.352   7.474  20.627  0.00  0.00    +0.000 A 
ATOM      5  C   UNL     1       0.691   8.425  21.458  0.00  0.00    +0.000 A 
ATOM      6  C   UNL     1       0.571   9.706  21.064  0.00  0.00    +0.000 A 
ATOM      7  C   UNL     1       1.098  10.156  19.775  0.00  0.00    +0.000 A 
ATOM      8  C   UNL     1       1.687   9.242  18.981  0.00  0.00    +0.000 A 
ATOM      9  N   UNL     1       1.836   7.914  19.395  0.00  0.00    +0.000 N 
ENDROOT
BRANCH   2  10
ATOM     10  C   UNL     1       2.668   4.384  19.542  0.00  0.00    +0.000 A 
ATOM     11  C   UNL     1       3.967   3.997  19.886  0.00  0.00    +0.000 A 
ATOM     12  C   UNL     1       4.354   2.662  19.758  0.00  0.00    +0.000 A 
ATOM     13  C   UNL     1       3.428   1.751  19.277  0.00  0.00    +0.000 A 
ATOM     14  N   UNL     1       2.165   2.078  18.937  0.00  0.00    +0.000 NA
ATOM     15  C   UNL     1       1.815   3.378  19.098  0.00  0.00    +0.000 A 
ENDBRANCH   2  10
BRANCH   7  16
ATOM     16  C   UNL     1       0.981  11.601  19.378  0.00  0.00    +0.000 C 
ATOM     17  F   UNL     1      -0.176  11.886  18.730  0.00  0.00    +0.000 F 
ATOM     18  F   UNL     1       1.035  12.417  20.462  0.00  0.00    +0.000 F 
ATOM     19  F   UNL     1       1.996  11.977  18.557  0.00  0.00    +0.000 F 
ENDBRANCH   7  16
BRANCH   1  20
ATOM     20  N   UNL     1       3.078   6.803  17.569  0.00  0.00    +0.000 N 
ATOM     21  H   UNL     1       2.716   6.147  16.879  0.00  0.00    +0.000 HD
BRANCH  20  22
ATOM     22  C   UNL     1       4.511   6.966  17.387  0.00  0.00    +0.000 C 
BRANCH  22  26
ATOM     23  C   UNL     1       5.943   4.072  14.474  0.00  0.00    +0.000 A 
ATOM     24  C   UNL     1       6.023   5.452  14.233  0.00  0.00    +0.000 A 
ATOM     25  C   UNL     1       5.578   6.382  15.176  0.00  0.00    +0.000 A 
ATOM     26  C   UNL     1       5.035   5.956  16.393  0.00  0.00    +0.000 A 
ATOM     27  C   UNL     1       5.006   4.582  16.668  0.00  0.00    +0.000 A 
ATOM     28  C   UNL     1       5.465   3.658  15.723  0.00  0.00    +0.000 A 
BRANCH  23  32
ATOM     29  N   UNL     1       4.732   3.312  11.837  0.00  0.00    +0.000 NA
ATOM     30  C   UNL     1       5.890   2.938  12.266  0.00  0.00    +0.000 C 
ATOM     31  N   UNL     1       6.699   2.189  11.476  0.00  0.00    +0.000 N 
ATOM     32  N   UNL     1       6.417   3.195  13.486  0.00  0.00    +0.000 N 
ATOM     33  H   UNL     1       4.591   2.995  10.881  0.00  0.00    +0.000 HD
ATOM     34  H   UNL     1       6.236   1.743  10.692  0.00  0.00    +0.000 HD
ATOM     35  H   UNL     1       7.319   1.549  11.953  0.00  0.00    +0.000 HD
ATOM     36  H   UNL     1       7.320   2.802  13.700  0.00  0.00    +0.000 HD
ENDBRANCH  23  32
ENDBRANCH  22  26
ENDBRANCH  20  22
ENDBRANCH   1  20
TORSDOF 6
ENDMDL
MODEL 5
REMARK VINA RESULT:      -8.6      3.339      6.629
REMARK  Name = 
REMARK  6 active torsions:
REMARK  status: ('A' for Active; 'I' for Inactive)
REMARK    1  A    between atoms: N_4  and  C_5
REMARK    2  A    between atoms: C_8  and  C_9
REMARK    3  A    between atoms: C_9  and  N_10
REMARK    4  A    between atoms: N_10  and  C_11
REMARK    5  A    between atoms: C_12  and  C_13
REMARK    6  A    between atoms: C_23  and  C_24
REMARK                            x       y       z     vdW  Elec       q    Type
REMARK                         _______ _______ _______ _____ _____    ______ ____
ROOT
ATOM      1  C   UNL     1       2.466   7.718  19.097  0.00  0.00    +0.000 A 
ATOM      2  C   UNL     1       1.949   7.325  20.334  0.00  0.00    +0.000 A 
ATOM      3  N   UNL     1       2.237   6.007  20.607  0.00  0.00    +0.000 NA
ATOM      4  C   UNL     1       2.962   5.590  19.597  0.00  0.00    +0.000 A 
ATOM      5  C   UNL     1       3.556   4.318  19.354  0.00  0.00    +0.000 A 
ATOM      6  C   UNL     1       4.246   4.093  18.221  0.00  0.00    +0.000 A 
ATOM      7  C   UNL     1       4.420   5.144  17.217  0.00  0.00    +0.000 A 
ATOM      8  C   UNL     1       3.887   6.354  17.473  0.00  0.00    +0.000 A 
ATOM      9  N   UNL     1       3.149   6.587  18.638  0.00  0.00    +0.000 N 
ENDROOT
BRANCH   2  10
ATOM     10  C   UNL     1       1.158   8.135  21.249  0.00  0.00    +0.000 A 
ATOM     11  C   UNL     1      -0.239   8.069  21.234  0.00  0.00    +0.000 A 
ATOM     12  C   UNL     1      -0.983   8.836  22.133  0.00  0.00    +0.000 A 
ATOM     13  C   UNL     1      -0.303   9.656  23.019  0.00  0.00    +0.000 A 
ATOM     14  N   UNL     1       1.040   9.747  23.072  0.00  0.00    +0.000 NA
ATOM     15  C   UNL     1       1.732   8.970  22.202  0.00  0.00    +0.000 A 
ENDBRANCH   2  10
BRANCH   7  16
ATOM     16  C   UNL     1       5.165   4.853  15.945  0.00  0.00    +0.000 C 
ATOM     17  F   UNL     1       4.589   3.878  15.199  0.00  0.00    +0.000 F 
ATOM     18  F   UNL     1       5.246   5.955  15.157  0.00  0.00    +0.000 F 
ATOM     19  F   UNL     1       6.441   4.457  16.193  0.00  0.00    +0.000 F 
ENDBRANCH   7  16
BRANCH   1  20
ATOM     20  N   UNL     1       2.363   8.923  18.449  0.00  0.00    +0.000 N 
ATOM     21  H   UNL     1       2.801   9.720  18.910  0.00  0.00    +0.000 HD
BRANCH  20  22
ATOM     22  C   UNL     1       1.187   9.365  17.717  0.00  0.00    +0.000 C 
BRANCH  22  26
ATOM     23  C   UNL     1      -1.093  12.140  20.167  0.00  0.00    +0.000 A 
ATOM     24  C   UNL     1       0.308  12.098  20.223  0.00  0.00    +0.000 A 
ATOM     25  C   UNL     1       1.042  11.218  19.423  0.00  0.00    +0.000 A 
ATOM     26  C   UNL     1       0.390  10.348  18.542  0.00  0.00    +0.000 A 
ATOM     27  C   UNL     1      -1.005  10.424  18.436  0.00  0.00    +0.000 A 
ATOM     28  C   UNL     1      -1.731  11.317  19.231  0.00  0.00    +0.000 A 
BRANCH  23  32
ATOM     29  N   UNL     1      -1.620  15.065  19.765  0.00  0.00    +0.000 NA
ATOM     30  C   UNL     1      -2.064  14.352  20.744  0.00  0.00    +0.000 C 
ATOM     31  N   UNL     1      -2.893  14.901  21.666  0.00  0.00    +0.000 N 
ATOM     32  N   UNL     1      -1.766  13.056  20.993  0.00  0.00    +0.000 N 
ATOM     33  H   UNL     1      -2.012  16.004  19.807  0.00  0.00    +0.000 HD
ATOM     34  H   UNL     1      -2.906  15.915  21.678  0.00  0.00    +0.000 HD
ATOM     35  H   UNL     1      -2.836  14.520  22.600  0.00  0.00    +0.000 HD
ATOM     36  H   UNL     1      -2.153  12.635  21.824  0.00  0.00    +0.000 HD
ENDBRANCH  23  32
ENDBRANCH  22  26
ENDBRANCH  20  22
ENDBRANCH   1  20
TORSDOF 6
ENDMDL
MODEL 6
REMARK VINA RESULT:      -8.6      3.426      8.118
REMARK  Name = 
REMARK  6 active torsions:
REMARK  status: ('A' for Active; 'I' for Inactive)
REMARK    1  A    between atoms: N_4  and  C_5
REMARK    2  A    between atoms: C_8  and  C_9
REMARK    3  A    between atoms: C_9  and  N_10
REMARK    4  A    between atoms: N_10  and  C_11
REMARK    5  A    between atoms: C_12  and  C_13
REMARK    6  A    between atoms: C_23  and  C_24
REMARK                            x       y       z     vdW  Elec       q    Type
REMARK                         _______ _______ _______ _____ _____    ______ ____
ROOT
ATOM      1  C   UNL     1       2.162   7.238  19.172  0.00  0.00    +0.000 A 
ATOM      2  C   UNL     1       1.843   6.415  20.255  0.00  0.00    +0.000 A 
ATOM      3  N   UNL     1       1.266   7.130  21.280  0.00  0.00    +0.000 NA
ATOM      4  C   UNL     1       1.173   8.361  20.840  0.00  0.00    +0.000 A 
ATOM      5  C   UNL     1       0.638   9.524  21.466  0.00  0.00    +0.000 A 
ATOM      6  C   UNL     1       0.669  10.713  20.836  0.00  0.00    +0.000 A 
ATOM      7  C   UNL     1       1.236  10.845  19.493  0.00  0.00    +0.000 A 
ATOM      8  C   UNL     1       1.704   9.734  18.894  0.00  0.00    +0.000 A 
ATOM      9  N   UNL     1       1.695   8.500  19.553  0.00  0.00    +0.000 N 
ENDROOT
BRANCH   2  10
ATOM     10  C   UNL     1       2.099   4.987  20.375  0.00  0.00    +0.000 A 
ATOM     11  C   UNL     1       1.058   4.099  20.666  0.00  0.00    +0.000 A 
ATOM     12  C   UNL     1       1.315   2.730  20.756  0.00  0.00    +0.000 A 
ATOM     13  C   UNL     1       2.613   2.289  20.560  0.00  0.00    +0.000 A 
ATOM     14  N   UNL     1       3.644   3.107  20.273  0.00  0.00    +0.000 NA
ATOM     15  C   UNL     1       3.355   4.427  20.168  0.00  0.00    +0.000 A 
ENDBRANCH   2  10
BRANCH   7  16
ATOM     16  C   UNL     1       1.290  12.192  18.829  0.00  0.00    +0.000 C 
ATOM     17  F   UNL     1       1.338  13.222  19.711  0.00  0.00    +0.000 F 
ATOM     18  F   UNL     1       2.383  12.307  18.033  0.00  0.00    +0.000 F 
ATOM     19  F   UNL     1       0.207  12.402  18.037  0.00  0.00    +0.000 F 
ENDBRANCH   7  16
BRANCH   1  20
ATOM     20  N   UNL     1       2.780   6.923  17.988  0.00  0.00    +0.000 N 
ATOM     21  H   UNL     1       2.506   6.041  17.558  0.00  0.00    +0.000 HD
BRANCH  20  22
ATOM     22  C   UNL     1       4.176   7.202  17.689  0.00  0.00    +0.000 C 
BRANCH  22  26
ATOM     23  C   UNL     1       5.692   4.278  14.851  0.00  0.00    +0.000 A 
ATOM     24  C   UNL     1       6.020   5.638  14.744  0.00  0.00    +0.000 A 
ATOM     25  C   UNL     1       5.546   6.575  15.665  0.00  0.00    +0.000 A 
ATOM     26  C   UNL     1       4.724   6.176  16.725  0.00  0.00    +0.000 A 
ATOM     27  C   UNL     1       4.440   4.812  16.876  0.00  0.00    +0.000 A 
ATOM     28  C   UNL     1       4.930   3.879  15.955  0.00  0.00    +0.000 A 
BRANCH  23  32
ATOM     29  N   UNL     1       4.713   3.641  12.089  0.00  0.00    +0.000 NA
ATOM     30  C   UNL     1       5.796   3.188  12.622  0.00  0.00    +0.000 C 
ATOM     31  N   UNL     1       6.635   2.405  11.900  0.00  0.00    +0.000 N 
ATOM     32  N   UNL     1       6.211   3.390  13.894  0.00  0.00    +0.000 N 
ATOM     33  H   UNL     1       4.650   3.351  11.115  0.00  0.00    +0.000 HD
ATOM     34  H   UNL     1       6.229   2.002  11.062  0.00  0.00    +0.000 HD
ATOM     35  H   UNL     1       7.164   1.719  12.421  0.00  0.00    +0.000 HD
ATOM     36  H   UNL     1       7.063   2.938  14.189  0.00  0.00    +0.000 HD
ENDBRANCH  23  32
ENDBRANCH  22  26
ENDBRANCH  20  22
ENDBRANCH   1  20
TORSDOF 6
ENDMDL
MODEL 7
REMARK VINA RESULT:      -8.6      3.259      6.602
REMARK  Name = 
REMARK  6 active torsions:
REMARK  status: ('A' for Active; 'I' for Inactive)
REMARK    1  A    between atoms: N_4  and  C_5
REMARK    2  A    between atoms: C_8  and  C_9
REMARK    3  A    between atoms: C_9  and  N_10
REMARK    4  A    between atoms: N_10  and  C_11
REMARK    5  A    between atoms: C_12  and  C_13
REMARK    6  A    between atoms: C_23  and  C_24
REMARK                            x       y       z     vdW  Elec       q    Type
REMARK                         _______ _______ _______ _____ _____    ______ ____
ROOT
ATOM      1  C   UNL     1       2.360   7.732  19.215  0.00  0.00    +0.000 A 
ATOM      2  C   UNL     1       1.842   7.362  20.459  0.00  0.00    +0.000 A 
ATOM      3  N   UNL     1       2.134   6.051  20.758  0.00  0.00    +0.000 NA
ATOM      4  C   UNL     1       2.860   5.616  19.756  0.00  0.00    +0.000 A 
ATOM      5  C   UNL     1       3.457   4.341  19.539  0.00  0.00    +0.000 A 
ATOM      6  C   UNL     1       4.149   4.095  18.411  0.00  0.00    +0.000 A 
ATOM      7  C   UNL     1       4.321   5.126  17.387  0.00  0.00    +0.000 A 
ATOM      8  C   UNL     1       3.785   6.340  17.618  0.00  0.00    +0.000 A 
ATOM      9  N   UNL     1       3.045   6.594  18.779  0.00  0.00    +0.000 N 
ENDROOT
BRANCH   2  10
ATOM     10  C   UNL     1       1.049   8.188  21.357  0.00  0.00    +0.000 A 
ATOM     11  C   UNL     1      -0.348   8.171  21.295  0.00  0.00    +0.000 A 
ATOM     12  C   UNL     1      -1.095   8.952  22.178  0.00  0.00    +0.000 A 
ATOM     13  C   UNL     1      -0.419   9.737  23.097  0.00  0.00    +0.000 A 
ATOM     14  N   UNL     1       0.924   9.782  23.196  0.00  0.00    +0.000 NA
ATOM     15  C   UNL     1       1.619   8.992  22.340  0.00  0.00    +0.000 A 
ENDBRANCH   2  10
BRANCH   7  16
ATOM     16  C   UNL     1       5.068   4.812  16.121  0.00  0.00    +0.000 C 
ATOM     17  F   UNL     1       6.349   4.422  16.339  0.00  0.00    +0.000 F 
ATOM     18  F   UNL     1       4.466   3.812  15.428  0.00  0.00    +0.000 F 
ATOM     19  F   UNL     1       5.117   5.886  15.291  0.00  0.00    +0.000 F 
ENDBRANCH   7  16
BRANCH   1  20
ATOM     20  N   UNL     1       2.254   8.924  18.543  0.00  0.00    +0.000 N 
ATOM     21  H   UNL     1       2.510   9.759  19.068  0.00  0.00    +0.000 HD
BRANCH  20  22
ATOM     22  C   UNL     1       1.198   9.244  17.596  0.00  0.00    +0.000 C 
BRANCH  22  26
ATOM     23  C   UNL     1      -1.704  11.983  19.322  0.00  0.00    +0.000 A 
ATOM     24  C   UNL     1      -2.091  10.984  18.416  0.00  0.00    +0.000 A 
ATOM     25  C   UNL     1      -1.161  10.093  17.874  0.00  0.00    +0.000 A 
ATOM     26  C   UNL     1       0.191  10.178  18.224  0.00  0.00    +0.000 A 
ATOM     27  C   UNL     1       0.578  11.133  19.173  0.00  0.00    +0.000 A 
ATOM     28  C   UNL     1      -0.362  12.014  19.720  0.00  0.00    +0.000 A 
BRANCH  23  32
ATOM     29  N   UNL     1      -2.693  12.314  22.135  0.00  0.00    +0.000 NA
ATOM     30  C   UNL     1      -3.058  13.027  21.124  0.00  0.00    +0.000 C 
ATOM     31  N   UNL     1      -3.910  14.068  21.296  0.00  0.00    +0.000 N 
ATOM     32  N   UNL     1      -2.694  12.838  19.834  0.00  0.00    +0.000 N 
ATOM     33  H   UNL     1      -3.102  12.681  22.991  0.00  0.00    +0.000 HD
ATOM     34  H   UNL     1      -4.419  14.062  22.173  0.00  0.00    +0.000 HD
ATOM     35  H   UNL     1      -4.517  14.281  20.517  0.00  0.00    +0.000 HD
ATOM     36  H   UNL     1      -3.092  13.450  19.138  0.00  0.00    +0.000 HD
ENDBRANCH  23  32
ENDBRANCH  22  26
ENDBRANCH  20  22
ENDBRANCH   1  20
TORSDOF 6
ENDMDL
MODEL 8
REMARK VINA RESULT:      -8.6      0.514      1.085
REMARK  Name = 
REMARK  6 active torsions:
REMARK  status: ('A' for Active; 'I' for Inactive)
REMARK    1  A    between atoms: N_4  and  C_5
REMARK    2  A    between atoms: C_8  and  C_9
REMARK    3  A    between atoms: C_9  and  N_10
REMARK    4  A    between atoms: N_10  and  C_11
REMARK    5  A    between atoms: C_12  and  C_13
REMARK    6  A    between atoms: C_23  and  C_24
REMARK                            x       y       z     vdW  Elec       q    Type
REMARK                         _______ _______ _______ _____ _____    ______ ____
ROOT
ATOM      1  C   UNL     1       4.468   4.922  17.267  0.00  0.00    +0.000 A 
ATOM      2  C   UNL     1       5.051   4.045  16.349  0.00  0.00    +0.000 A 
ATOM      3  N   UNL     1       4.734   2.735  16.630  0.00  0.00    +0.000 NA
ATOM      4  C   UNL     1       3.931   2.783  17.665  0.00  0.00    +0.000 A 
ATOM      5  C   UNL     1       3.277   1.733  18.371  0.00  0.00    +0.000 A 
ATOM      6  C   UNL     1       2.507   2.006  19.441  0.00  0.00    +0.000 A 
ATOM      7  C   UNL     1       2.306   3.382  19.899  0.00  0.00    +0.000 A 
ATOM      8  C   UNL     1       2.897   4.371  19.202  0.00  0.00    +0.000 A 
ATOM      9  N   UNL     1       3.717   4.090  18.104  0.00  0.00    +0.000 N 
ENDROOT
BRANCH   2  10
ATOM     10  C   UNL     1       5.928   4.393  15.240  0.00  0.00    +0.000 A 
ATOM     11  C   UNL     1       5.634   3.970  13.940  0.00  0.00    +0.000 A 
ATOM     12  C   UNL     1       6.472   4.331  12.884  0.00  0.00    +0.000 A 
ATOM     13  C   UNL     1       7.590   5.100  13.163  0.00  0.00    +0.000 A 
ATOM     14  N   UNL     1       7.909   5.533  14.398  0.00  0.00    +0.000 NA
ATOM     15  C   UNL     1       7.060   5.186  15.397  0.00  0.00    +0.000 A 
ENDBRANCH   2  10
BRANCH   7  16
ATOM     16  C   UNL     1       1.469   3.654  21.117  0.00  0.00    +0.000 C 
ATOM     17  F   UNL     1       1.009   2.525  21.713  0.00  0.00    +0.000 F 
ATOM     18  F   UNL     1       2.172   4.335  22.057  0.00  0.00    +0.000 F 
ATOM     19  F   UNL     1       0.383   4.412  20.818  0.00  0.00    +0.000 F 
ENDBRANCH   7  16
BRANCH   1  20
ATOM     20  N   UNL     1       4.571   6.287  17.358  0.00  0.00    +0.000 N 
ATOM     21  H   UNL     1       4.946   6.652  18.233  0.00  0.00    +0.000 HD
BRANCH  20  22
ATOM     22  C   UNL     1       3.603   7.224  16.811  0.00  0.00    +0.000 C 
BRANCH  22  26
ATOM     23  C   UNL     1       1.322   9.106  19.999  0.00  0.00    +0.000 A 
ATOM     24  C   UNL     1       1.996   7.892  20.201  0.00  0.00    +0.000 A 
ATOM     25  C   UNL     1       2.742   7.296  19.182  0.00  0.00    +0.000 A 
ATOM     26  C   UNL     1       2.835   7.900  17.923  0.00  0.00    +0.000 A 
ATOM     27  C   UNL     1       2.215   9.141  17.728  0.00  0.00    +0.000 A 
ATOM     28  C   UNL     1       1.480   9.737  18.759  0.00  0.00    +0.000 A 
BRANCH  23  32
ATOM     29  N   UNL     1      -0.834   7.881  21.686  0.00  0.00    +0.000 NA
ATOM     30  C   UNL     1      -0.310   9.044  21.870  0.00  0.00    +0.000 C 
ATOM     31  N   UNL     1      -0.680   9.798  22.935  0.00  0.00    +0.000 N 
ATOM     32  N   UNL     1       0.598   9.653  21.070  0.00  0.00    +0.000 N 
ATOM     33  H   UNL     1      -1.477   7.660  22.442  0.00  0.00    +0.000 HD
ATOM     34  H   UNL     1      -1.544   9.511  23.381  0.00  0.00    +0.000 HD
ATOM     35  H   UNL     1      -0.644  10.799  22.807  0.00  0.00    +0.000 HD
ATOM     36  H   UNL     1       0.890  10.586  21.316  0.00  0.00    +0.000 HD
ENDBRANCH  23  32
ENDBRANCH  22  26
ENDBRANCH  20  22
ENDBRANCH   1  20
TORSDOF 6
ENDMDL
MODEL 9
REMARK VINA RESULT:      -8.5      3.844      7.004
REMARK  Name = 
REMARK  6 active torsions:
REMARK  status: ('A' for Active; 'I' for Inactive)
REMARK    1  A    between atoms: N_4  and  C_5
REMARK    2  A    between atoms: C_8  and  C_9
REMARK    3  A    between atoms: C_9  and  N_10
REMARK    4  A    between atoms: N_10  and  C_11
REMARK    5  A    between atoms: C_12  and  C_13
REMARK    6  A    between atoms: C_23  and  C_24
REMARK                            x       y       z     vdW  Elec       q    Type
REMARK                         _______ _______ _______ _____ _____    ______ ____
ROOT
ATOM      1  C   UNL     1       2.362   7.880  18.919  0.00  0.00    +0.000 A 
ATOM      2  C   UNL     1       2.011   7.499  20.216  0.00  0.00    +0.000 A 
ATOM      3  N   UNL     1       2.537   6.270  20.542  0.00  0.00    +0.000 NA
ATOM      4  C   UNL     1       3.245   5.904  19.501  0.00  0.00    +0.000 A 
ATOM      5  C   UNL     1       4.026   4.732  19.285  0.00  0.00    +0.000 A 
ATOM      6  C   UNL     1       4.659   4.541  18.112  0.00  0.00    +0.000 A 
ATOM      7  C   UNL     1       4.578   5.530  17.036  0.00  0.00    +0.000 A 
ATOM      8  C   UNL     1       3.868   6.652  17.263  0.00  0.00    +0.000 A 
ATOM      9  N   UNL     1       3.190   6.845  18.472  0.00  0.00    +0.000 N 
ENDROOT
BRANCH   2  10
ATOM     10  C   UNL     1       1.165   8.233  21.145  0.00  0.00    +0.000 A 
ATOM     11  C   UNL     1      -0.227   8.095  21.105  0.00  0.00    +0.000 A 
ATOM     12  C   UNL     1      -1.023   8.789  22.017  0.00  0.00    +0.000 A 
ATOM     13  C   UNL     1      -0.402   9.612  22.941  0.00  0.00    +0.000 A 
ATOM     14  N   UNL     1       0.934   9.772  23.020  0.00  0.00    +0.000 NA
ATOM     15  C   UNL     1       1.679   9.064  22.136  0.00  0.00    +0.000 A 
ENDBRANCH   2  10
BRANCH   7  16
ATOM     16  C   UNL     1       5.265   5.272  15.725  0.00  0.00    +0.000 C 
ATOM     17  F   UNL     1       4.790   4.179  15.078  0.00  0.00    +0.000 F 
ATOM     18  F   UNL     1       5.121   6.323  14.877  0.00  0.00    +0.000 F 
ATOM     19  F   UNL     1       6.600   5.085  15.890  0.00  0.00    +0.000 F 
ENDBRANCH   7  16
BRANCH   1  20
ATOM     20  N   UNL     1       2.009   9.001  18.211  0.00  0.00    +0.000 N 
ATOM     21  H   UNL     1       2.519   9.165  17.345  0.00  0.00    +0.000 HD
BRANCH  20  22
ATOM     22  C   UNL     1       1.645  10.274  18.814  0.00  0.00    +0.000 C 
BRANCH  22  26
ATOM     23  C   UNL     1      -2.608  11.034  18.329  0.00  0.00    +0.000 A 
ATOM     24  C   UNL     1      -1.809  11.848  19.147  0.00  0.00    +0.000 A 
ATOM     25  C   UNL     1      -0.439  11.613  19.289  0.00  0.00    +0.000 A 
ATOM     26  C   UNL     1       0.173  10.551  18.616  0.00  0.00    +0.000 A 
ATOM     27  C   UNL     1      -0.603   9.769  17.751  0.00  0.00    +0.000 A 
ATOM     28  C   UNL     1      -1.973  10.019  17.604  0.00  0.00    +0.000 A 
BRANCH  23  32
ATOM     29  N   UNL     1      -4.246  11.735  15.915  0.00  0.00    +0.000 NA
ATOM     30  C   UNL     1      -4.706  11.561  17.108  0.00  0.00    +0.000 C 
ATOM     31  N   UNL     1      -6.040  11.626  17.340  0.00  0.00    +0.000 N 
ATOM     32  N   UNL     1      -3.976  11.333  18.225  0.00  0.00    +0.000 N 
ATOM     33  H   UNL     1      -5.011  11.875  15.259  0.00  0.00    +0.000 HD
ATOM     34  H   UNL     1      -6.580  12.070  16.605  0.00  0.00    +0.000 HD
ATOM     35  H   UNL     1      -6.318  11.954  18.254  0.00  0.00    +0.000 HD
ATOM     36  H   UNL     1      -4.470  11.259  19.101  0.00  0.00    +0.000 HD
ENDBRANCH  23  32
ENDBRANCH  22  26
ENDBRANCH  20  22
ENDBRANCH   1  20
TORSDOF 6
ENDMDL
