MODEL 1
REMARK VINA RESULT:      -7.8      0.000      0.000
REMARK  Name = 
REMARK  1 active torsions:
REMARK  status: ('A' for Active; 'I' for Inactive)
REMARK    1  A    between atoms: C_4  and  C_5
REMARK                            x       y       z     vdW  Elec       q    Type
REMARK                         _______ _______ _______ _____ _____    ______ ____
ROOT
ATOM      1  O   UNL     1       5.254   1.921  20.910  0.00  0.00    +0.000 OA
ATOM      2  C   UNL     1       4.664   2.600  20.076  0.00  0.00    +0.000 A 
ATOM      3  N   UNL     1       5.284   3.068  18.938  0.00  0.00    +0.000 N 
ATOM      4  C   UNL     1       4.663   3.827  17.976  0.00  0.00    +0.000 A 
ATOM      5  C   UNL     1       3.375   4.176  18.095  0.00  0.00    +0.000 A 
ATOM      6  C   UNL     1       2.625   3.734  19.265  0.00  0.00    +0.000 A 
ATOM      7  N   UNL     1       1.326   4.116  19.324  0.00  0.00    +0.000 NA
ATOM      8  C   UNL     1       0.622   3.701  20.402  0.00  0.00    +0.000 A 
ATOM      9  C   UNL     1       1.153   2.923  21.423  0.00  0.00    +0.000 A 
ATOM     10  C   UNL     1       2.490   2.544  21.341  0.00  0.00    +0.000 A 
ATOM     11  C   UNL     1       3.239   2.959  20.242  0.00  0.00    +0.000 A 
ATOM     12  H   UNL     1       6.260   2.817  18.823  0.00  0.00    +0.000 HD
ENDROOT
BRANCH   4  13
ATOM     13  C   UNL     1       5.433   4.237  16.799  0.00  0.00    +0.000 A 
ATOM     14  C   UNL     1       4.903   4.082  15.513  0.00  0.00    +0.000 A 
ATOM     15  C   UNL     1       5.670   4.409  14.393  0.00  0.00    +0.000 A 
ATOM     16  C   UNL     1       6.968   4.896  14.554  0.00  0.00    +0.000 A 
ATOM     17  C   UNL     1       7.498   5.064  15.832  0.00  0.00    +0.000 A 
ATOM     18  C   UNL     1       6.733   4.737  16.953  0.00  0.00    +0.000 A 
ENDBRANCH   4  13
TORSDOF 1
ENDMDL
MODEL 2
REMARK VINA RESULT:      -7.7      0.115      1.174
REMARK  Name = 
REMARK  1 active torsions:
REMARK  status: ('A' for Active; 'I' for Inactive)
REMARK    1  A    between atoms: C_4  and  C_5
REMARK                            x       y       z     vdW  Elec       q    Type
REMARK                         _______ _______ _______ _____ _____    ______ ____
ROOT
ATOM      1  O   UNL     1       5.210   1.880  21.002  0.00  0.00    +0.000 OA
ATOM      2  C   UNL     1       4.648   2.553  20.145  0.00  0.00    +0.000 A 
ATOM      3  N   UNL     1       5.298   2.991  19.011  0.00  0.00    +0.000 N 
ATOM      4  C   UNL     1       4.710   3.743  18.024  0.00  0.00    +0.000 A 
ATOM      5  C   UNL     1       3.425   4.116  18.112  0.00  0.00    +0.000 A 
ATOM      6  C   UNL     1       2.646   3.709  19.274  0.00  0.00    +0.000 A 
ATOM      7  N   UNL     1       1.353   4.113  19.301  0.00  0.00    +0.000 NA
ATOM      8  C   UNL     1       0.621   3.730  20.372  0.00  0.00    +0.000 A 
ATOM      9  C   UNL     1       1.118   2.961  21.416  0.00  0.00    +0.000 A 
ATOM     10  C   UNL     1       2.450   2.557  21.367  0.00  0.00    +0.000 A 
ATOM     11  C   UNL     1       3.227   2.940  20.277  0.00  0.00    +0.000 A 
ATOM     12  H   UNL     1       6.271   2.721  18.920  0.00  0.00    +0.000 HD
ENDROOT
BRANCH   4  13
ATOM     13  C   UNL     1       5.509   4.119  16.856  0.00  0.00    +0.000 A 
ATOM     14  C   UNL     1       6.844   4.515  17.005  0.00  0.00    +0.000 A 
ATOM     15  C   UNL     1       7.578   4.940  15.896  0.00  0.00    +0.000 A 
ATOM     16  C   UNL     1       6.983   4.970  14.634  0.00  0.00    +0.000 A 
ATOM     17  C   UNL     1       5.658   4.567  14.477  0.00  0.00    +0.000 A 
ATOM     18  C   UNL     1       4.921   4.141  15.584  0.00  0.00    +0.000 A 
ENDBRANCH   4  13
TORSDOF 1
ENDMDL
MODEL 3
REMARK VINA RESULT:      -7.7      1.610      5.869
REMARK  Name = 
REMARK  1 active torsions:
REMARK  status: ('A' for Active; 'I' for Inactive)
REMARK    1  A    between atoms: C_4  and  C_5
REMARK                            x       y       z     vdW  Elec       q    Type
REMARK                         _______ _______ _______ _____ _____    ______ ____
ROOT
ATOM      1  O   UNL     1       7.715   4.792  18.653  0.00  0.00    +0.000 OA
ATOM      2  C   UNL     1       6.632   4.486  18.166  0.00  0.00    +0.000 A 
ATOM      3  N   UNL     1       5.549   4.134  18.944  0.00  0.00    +0.000 N 
ATOM      4  C   UNL     1       4.318   3.788  18.444  0.00  0.00    +0.000 A 
ATOM      5  C   UNL     1       4.090   3.764  17.123  0.00  0.00    +0.000 A 
ATOM      6  C   UNL     1       5.169   4.116  16.210  0.00  0.00    +0.000 A 
ATOM      7  N   UNL     1       4.874   4.077  14.888  0.00  0.00    +0.000 NA
ATOM      8  C   UNL     1       5.868   4.413  14.035  0.00  0.00    +0.000 A 
ATOM      9  C   UNL     1       7.143   4.787  14.439  0.00  0.00    +0.000 A 
ATOM     10  C   UNL     1       7.424   4.820  15.802  0.00  0.00    +0.000 A 
ATOM     11  C   UNL     1       6.419   4.476  16.703  0.00  0.00    +0.000 A 
ATOM     12  H   UNL     1       5.696   4.146  19.947  0.00  0.00    +0.000 HD
ENDROOT
BRANCH   4  13
ATOM     13  C   UNL     1       3.244   3.461  19.384  0.00  0.00    +0.000 A 
ATOM     14  C   UNL     1       1.936   3.903  19.152  0.00  0.00    +0.000 A 
ATOM     15  C   UNL     1       0.932   3.648  20.089  0.00  0.00    +0.000 A 
ATOM     16  C   UNL     1       1.230   2.948  21.259  0.00  0.00    +0.000 A 
ATOM     17  C   UNL     1       2.527   2.495  21.491  0.00  0.00    +0.000 A 
ATOM     18  C   UNL     1       3.533   2.749  20.556  0.00  0.00    +0.000 A 
ENDBRANCH   4  13
TORSDOF 1
ENDMDL
MODEL 4
REMARK VINA RESULT:      -7.7      1.636      5.942
REMARK  Name = 
REMARK  1 active torsions:
REMARK  status: ('A' for Active; 'I' for Inactive)
REMARK    1  A    between atoms: C_4  and  C_5
REMARK                            x       y       z     vdW  Elec       q    Type
REMARK                         _______ _______ _______ _____ _____    ______ ____
ROOT
ATOM      1  O   UNL     1       7.747   4.920  18.739  0.00  0.00    +0.000 OA
ATOM      2  C   UNL     1       6.656   4.610  18.274  0.00  0.00    +0.000 A 
ATOM      3  N   UNL     1       5.579   4.293  19.073  0.00  0.00    +0.000 N 
ATOM      4  C   UNL     1       4.339   3.944  18.598  0.00  0.00    +0.000 A 
ATOM      5  C   UNL     1       4.096   3.881  17.281  0.00  0.00    +0.000 A 
ATOM      6  C   UNL     1       5.169   4.195  16.345  0.00  0.00    +0.000 A 
ATOM      7  N   UNL     1       4.858   4.118  15.028  0.00  0.00    +0.000 NA
ATOM      8  C   UNL     1       5.846   4.418  14.155  0.00  0.00    +0.000 A 
ATOM      9  C   UNL     1       7.129   4.791  14.533  0.00  0.00    +0.000 A 
ATOM     10  C   UNL     1       7.426   4.863  15.892  0.00  0.00    +0.000 A 
ATOM     11  C   UNL     1       6.427   4.557  16.814  0.00  0.00    +0.000 A 
ATOM     12  H   UNL     1       5.736   4.334  20.074  0.00  0.00    +0.000 HD
ENDROOT
BRANCH   4  13
ATOM     13  C   UNL     1       3.272   3.657  19.559  0.00  0.00    +0.000 A 
ATOM     14  C   UNL     1       3.497   2.788  20.633  0.00  0.00    +0.000 A 
ATOM     15  C   UNL     1       2.456   2.463  21.504  0.00  0.00    +0.000 A 
ATOM     16  C   UNL     1       1.186   3.006  21.308  0.00  0.00    +0.000 A 
ATOM     17  C   UNL     1       0.957   3.882  20.247  0.00  0.00    +0.000 A 
ATOM     18  C   UNL     1       1.997   4.208  19.375  0.00  0.00    +0.000 A 
ENDBRANCH   4  13
TORSDOF 1
ENDMDL
MODEL 5
REMARK VINA RESULT:      -7.2      2.075      2.608
REMARK  Name = 
REMARK  1 active torsions:
REMARK  status: ('A' for Active; 'I' for Inactive)
REMARK    1  A    between atoms: C_4  and  C_5
REMARK                            x       y       z     vdW  Elec       q    Type
REMARK                         _______ _______ _______ _____ _____    ______ ____
ROOT
ATOM      1  O   UNL     1       4.905   1.670  20.381  0.00  0.00    +0.000 OA
ATOM      2  C   UNL     1       4.557   2.654  19.738  0.00  0.00    +0.000 A 
ATOM      3  N   UNL     1       5.434   3.666  19.409  0.00  0.00    +0.000 N 
ATOM      4  C   UNL     1       5.091   4.783  18.688  0.00  0.00    +0.000 A 
ATOM      5  C   UNL     1       3.836   4.966  18.253  0.00  0.00    +0.000 A 
ATOM      6  C   UNL     1       2.827   3.957  18.548  0.00  0.00    +0.000 A 
ATOM      7  N   UNL     1       1.580   4.199  18.076  0.00  0.00    +0.000 NA
ATOM      8  C   UNL     1       0.641   3.261  18.339  0.00  0.00    +0.000 A 
ATOM      9  C   UNL     1       0.889   2.093  19.048  0.00  0.00    +0.000 A 
ATOM     10  C   UNL     1       2.178   1.866  19.524  0.00  0.00    +0.000 A 
ATOM     11  C   UNL     1       3.163   2.817  19.271  0.00  0.00    +0.000 A 
ATOM     12  H   UNL     1       6.390   3.551  19.726  0.00  0.00    +0.000 HD
ENDROOT
BRANCH   4  13
ATOM     13  C   UNL     1       6.129   5.771  18.385  0.00  0.00    +0.000 A 
ATOM     14  C   UNL     1       7.339   5.769  19.087  0.00  0.00    +0.000 A 
ATOM     15  C   UNL     1       8.295   6.757  18.842  0.00  0.00    +0.000 A 
ATOM     16  C   UNL     1       8.046   7.749  17.893  0.00  0.00    +0.000 A 
ATOM     17  C   UNL     1       6.848   7.750  17.181  0.00  0.00    +0.000 A 
ATOM     18  C   UNL     1       5.890   6.763  17.425  0.00  0.00    +0.000 A 
ENDBRANCH   4  13
TORSDOF 1
ENDMDL
MODEL 6
REMARK VINA RESULT:      -7.2      3.566      6.115
REMARK  Name = 
REMARK  1 active torsions:
REMARK  status: ('A' for Active; 'I' for Inactive)
REMARK    1  A    between atoms: C_4  and  C_5
REMARK                            x       y       z     vdW  Elec       q    Type
REMARK                         _______ _______ _______ _____ _____    ______ ____
ROOT
ATOM      1  O   UNL     1       2.980   3.123  17.643  0.00  0.00    +0.000 OA
ATOM      2  C   UNL     1       3.365   4.282  17.530  0.00  0.00    +0.000 A 
ATOM      3  N   UNL     1       2.681   5.341  18.085  0.00  0.00    +0.000 N 
ATOM      4  C   UNL     1       3.075   6.653  17.988  0.00  0.00    +0.000 A 
ATOM      5  C   UNL     1       4.184   6.993  17.316  0.00  0.00    +0.000 A 
ATOM      6  C   UNL     1       4.981   5.948  16.686  0.00  0.00    +0.000 A 
ATOM      7  N   UNL     1       6.093   6.357  16.026  0.00  0.00    +0.000 NA
ATOM      8  C   UNL     1       6.843   5.391  15.448  0.00  0.00    +0.000 A 
ATOM      9  C   UNL     1       6.537   4.037  15.498  0.00  0.00    +0.000 A 
ATOM     10  C   UNL     1       5.389   3.641  16.181  0.00  0.00    +0.000 A 
ATOM     11  C   UNL     1       4.597   4.615  16.784  0.00  0.00    +0.000 A 
ATOM     12  H   UNL     1       1.838   5.110  18.600  0.00  0.00    +0.000 HD
ENDROOT
BRANCH   4  13
ATOM     13  C   UNL     1       2.269   7.681  18.650  0.00  0.00    +0.000 A 
ATOM     14  C   UNL     1       1.841   8.812  17.945  0.00  0.00    +0.000 A 
ATOM     15  C   UNL     1       1.134   9.823  18.600  0.00  0.00    +0.000 A 
ATOM     16  C   UNL     1       0.849   9.705  19.961  0.00  0.00    +0.000 A 
ATOM     17  C   UNL     1       1.262   8.576  20.667  0.00  0.00    +0.000 A 
ATOM     18  C   UNL     1       1.969   7.565  20.013  0.00  0.00    +0.000 A 
ENDBRANCH   4  13
TORSDOF 1
ENDMDL
MODEL 7
REMARK VINA RESULT:      -7.2      3.636      6.195
REMARK  Name = 
REMARK  1 active torsions:
REMARK  status: ('A' for Active; 'I' for Inactive)
REMARK    1  A    between atoms: C_4  and  C_5
REMARK                            x       y       z     vdW  Elec       q    Type
REMARK                         _______ _______ _______ _____ _____    ______ ____
ROOT
ATOM      1  O   UNL     1       2.792   3.242  17.642  0.00  0.00    +0.000 OA
ATOM      2  C   UNL     1       3.229   4.384  17.547  0.00  0.00    +0.000 A 
ATOM      3  N   UNL     1       2.583   5.467  18.103  0.00  0.00    +0.000 N 
ATOM      4  C   UNL     1       3.037   6.761  18.025  0.00  0.00    +0.000 A 
ATOM      5  C   UNL     1       4.170   7.059  17.373  0.00  0.00    +0.000 A 
ATOM      6  C   UNL     1       4.930   5.986  16.745  0.00  0.00    +0.000 A 
ATOM      7  N   UNL     1       6.068   6.351  16.106  0.00  0.00    +0.000 NA
ATOM      8  C   UNL     1       6.784   5.359  15.529  0.00  0.00    +0.000 A 
ATOM      9  C   UNL     1       6.418   4.019  15.561  0.00  0.00    +0.000 A 
ATOM     10  C   UNL     1       5.244   3.667  16.222  0.00  0.00    +0.000 A 
ATOM     11  C   UNL     1       4.486   4.670  16.823  0.00  0.00    +0.000 A 
ATOM     12  H   UNL     1       1.724   5.269  18.603  0.00  0.00    +0.000 HD
ENDROOT
BRANCH   4  13
ATOM     13  C   UNL     1       2.266   7.818  18.685  0.00  0.00    +0.000 A 
ATOM     14  C   UNL     1       1.929   7.712  20.039  0.00  0.00    +0.000 A 
ATOM     15  C   UNL     1       1.134   8.688  20.644  0.00  0.00    +0.000 A 
ATOM     16  C   UNL     1       0.675   9.775  19.898  0.00  0.00    +0.000 A 
ATOM     17  C   UNL     1       1.017   9.892  18.552  0.00  0.00    +0.000 A 
ATOM     18  C   UNL     1       1.811   8.917  17.945  0.00  0.00    +0.000 A 
ENDBRANCH   4  13
TORSDOF 1
ENDMDL
MODEL 8
REMARK VINA RESULT:      -7.2      1.881      2.602
REMARK  Name = 
REMARK  1 active torsions:
REMARK  status: ('A' for Active; 'I' for Inactive)
REMARK    1  A    between atoms: C_4  and  C_5
REMARK                            x       y       z     vdW  Elec       q    Type
REMARK                         _______ _______ _______ _____ _____    ______ ____
ROOT
ATOM      1  O   UNL     1       0.637   4.177  17.366  0.00  0.00    +0.000 OA
ATOM      2  C   UNL     1       1.770   3.953  17.778  0.00  0.00    +0.000 A 
ATOM      3  N   UNL     1       2.889   4.154  16.998  0.00  0.00    +0.000 N 
ATOM      4  C   UNL     1       4.176   3.921  17.417  0.00  0.00    +0.000 A 
ATOM      5  C   UNL     1       4.429   3.461  18.650  0.00  0.00    +0.000 A 
ATOM      6  C   UNL     1       3.316   3.211  19.557  0.00  0.00    +0.000 A 
ATOM      7  N   UNL     1       3.638   2.752  20.791  0.00  0.00    +0.000 NA
ATOM      8  C   UNL     1       2.610   2.528  21.641  0.00  0.00    +0.000 A 
ATOM      9  C   UNL     1       1.276   2.742  21.319  0.00  0.00    +0.000 A 
ATOM     10  C   UNL     1       0.969   3.214  20.045  0.00  0.00    +0.000 A 
ATOM     11  C   UNL     1       2.008   3.450  19.148  0.00  0.00    +0.000 A 
ATOM     12  H   UNL     1       2.724   4.503  16.060  0.00  0.00    +0.000 HD
ENDROOT
BRANCH   4  13
ATOM     13  C   UNL     1       5.278   4.202  16.493  0.00  0.00    +0.000 A 
ATOM     14  C   UNL     1       6.380   4.958  16.910  0.00  0.00    +0.000 A 
ATOM     15  C   UNL     1       7.392   5.282  16.005  0.00  0.00    +0.000 A 
ATOM     16  C   UNL     1       7.309   4.850  14.680  0.00  0.00    +0.000 A 
ATOM     17  C   UNL     1       6.220   4.087  14.261  0.00  0.00    +0.000 A 
ATOM     18  C   UNL     1       5.206   3.762  15.165  0.00  0.00    +0.000 A 
ENDBRANCH   4  13
TORSDOF 1
ENDMDL
MODEL 9
REMARK VINA RESULT:      -7.2      1.878      2.339
REMARK  Name = 
REMARK  1 active torsions:
REMARK  status: ('A' for Active; 'I' for Inactive)
REMARK    1  A    between atoms: C_4  and  C_5
REMARK                            x       y       z     vdW  Elec       q    Type
REMARK                         _______ _______ _______ _____ _____    ______ ____
ROOT
ATOM      1  O   UNL     1       0.589   4.070  17.360  0.00  0.00    +0.000 OA
ATOM      2  C   UNL     1       1.728   3.902  17.784  0.00  0.00    +0.000 A 
ATOM      3  N   UNL     1       2.843   4.145  17.011  0.00  0.00    +0.000 N 
ATOM      4  C   UNL     1       4.135   3.975  17.444  0.00  0.00    +0.000 A 
ATOM      5  C   UNL     1       4.397   3.540  18.685  0.00  0.00    +0.000 A 
ATOM      6  C   UNL     1       3.288   3.250  19.584  0.00  0.00    +0.000 A 
ATOM      7  N   UNL     1       3.620   2.819  20.826  0.00  0.00    +0.000 NA
ATOM      8  C   UNL     1       2.595   2.558  21.669  0.00  0.00    +0.000 A 
ATOM      9  C   UNL     1       1.256   2.708  21.333  0.00  0.00    +0.000 A 
ATOM     10  C   UNL     1       0.939   3.151  20.052  0.00  0.00    +0.000 A 
ATOM     11  C   UNL     1       1.975   3.425  19.162  0.00  0.00    +0.000 A 
ATOM     12  H   UNL     1       2.672   4.476  16.068  0.00  0.00    +0.000 HD
ENDROOT
BRANCH   4  13
ATOM     13  C   UNL     1       5.232   4.296  16.527  0.00  0.00    +0.000 A 
ATOM     14  C   UNL     1       5.079   4.123  15.147  0.00  0.00    +0.000 A 
ATOM     15  C   UNL     1       6.152   4.363  14.286  0.00  0.00    +0.000 A 
ATOM     16  C   UNL     1       7.380   4.778  14.800  0.00  0.00    +0.000 A 
ATOM     17  C   UNL     1       7.537   4.964  16.173  0.00  0.00    +0.000 A 
ATOM     18  C   UNL     1       6.465   4.724  17.036  0.00  0.00    +0.000 A 
ENDBRANCH   4  13
TORSDOF 1
ENDMDL
