MODEL 1
REMARK VINA RESULT:      -6.7      0.000      0.000
REMARK  Name = 
REMARK  12 active torsions:
REMARK  status: ('A' for Active; 'I' for Inactive)
REMARK    1  A    between atoms: C_1  and  C_2
REMARK    2  A    between atoms: C_2  and  C_3
REMARK    3  A    between atoms: C_3  and  C_4
REMARK    4  A    between atoms: C_4  and  N_5
REMARK    5  A    between atoms: C_11  and  C_12
REMARK    6  A    between atoms: C_15  and  O_16
REMARK    7  A    between atoms: O_16  and  C_17
REMARK    8  A    between atoms: C_20  and  C_21
REMARK    9  A    between atoms: C_24  and  N_25
REMARK   10  A    between atoms: N_25  and  C_26
REMARK   11  A    between atoms: C_26  and  C_27
REMARK   12  A    between atoms: C_26  and  C_28
REMARK                            x       y       z     vdW  Elec       q    Type
REMARK                         _______ _______ _______ _____ _____    ______ ____
ROOT
ATOM      1  N   UNL     1       3.536   5.930  19.840  0.00  0.00    +0.000 N 
ATOM      2  C   UNL     1       2.568   6.902  19.610  0.00  0.00    +0.000 C 
ATOM      3  O   UNL     1       2.172   7.144  18.475  0.00  0.00    +0.000 OA
ATOM      4  N   UNL     1       2.184   7.537  20.766  0.00  0.00    +0.000 N 
ATOM      5  C   UNL     1       1.234   8.526  20.727  0.00  0.00    +0.000 A 
ATOM      6  N   UNL     1       0.386   8.795  19.775  0.00  0.00    +0.000 NA
ATOM      7  C   UNL     1      -0.334   9.942  20.076  0.00  0.00    +0.000 A 
ATOM      8  C   UNL     1      -0.076  10.497  21.333  0.00  0.00    +0.000 A 
ATOM      9  S   UNL     1       1.147   9.522  22.103  0.00  0.00    +0.000 S 
ATOM     10  H   UNL     1       3.371   5.377  20.675  0.00  0.00    +0.000 HD
ATOM     11  H   UNL     1       2.790   7.499  21.569  0.00  0.00    +0.000 HD
ENDROOT
BRANCH   7  12
ATOM     12  C   UNL     1      -1.287  10.440  19.082  0.00  0.00    +0.000 A 
ATOM     13  C   UNL     1      -1.327   9.858  17.808  0.00  0.00    +0.000 A 
ATOM     14  C   UNL     1      -2.269  10.279  16.864  0.00  0.00    +0.000 A 
ATOM     15  C   UNL     1      -3.203  11.265  17.185  0.00  0.00    +0.000 A 
ATOM     16  C   UNL     1      -3.147  11.876  18.435  0.00  0.00    +0.000 A 
ATOM     17  C   UNL     1      -2.171  11.493  19.361  0.00  0.00    +0.000 A 
BRANCH  15  18
ATOM     18  O   UNL     1      -4.086  11.583  16.190  0.00  0.00    +0.000 OA
ATOM     19  C   UNL     1      -5.338  12.107  16.619  0.00  0.00    +0.000 C 
ENDBRANCH  15  18
ENDBRANCH   7  12
BRANCH   8  20
ATOM     20  C   UNL     1      -0.647  11.666  22.048  0.00  0.00    +0.000 A 
ATOM     21  C   UNL     1      -0.105  12.947  21.887  0.00  0.00    +0.000 A 
ATOM     22  C   UNL     1      -0.548  14.037  22.648  0.00  0.00    +0.000 A 
ATOM     23  C   UNL     1      -1.631  13.917  23.520  0.00  0.00    +0.000 A 
ATOM     24  C   UNL     1      -2.200  12.650  23.667  0.00  0.00    +0.000 A 
ATOM     25  C   UNL     1      -1.710  11.540  22.954  0.00  0.00    +0.000 A 
BRANCH  23  26
ATOM     26  N   UNL     1      -2.038  15.038  24.249  0.00  0.00    +0.000 N 
ATOM     27  H   UNL     1      -1.258  15.655  24.466  0.00  0.00    +0.000 HD
BRANCH  26  28
ATOM     28  C   UNL     1      -3.240  15.780  23.850  0.00  0.00    +0.000 C 
ATOM     29  C   UNL     1      -3.823  16.452  25.097  0.00  0.00    +0.000 C 
ATOM     30  C   UNL     1      -2.909  16.848  22.807  0.00  0.00    +0.000 C 
ENDBRANCH  26  28
ENDBRANCH  23  26
ENDBRANCH   8  20
BRANCH   1  31
ATOM     31  C   UNL     1       4.016   5.210  18.673  0.00  0.00    +0.000 C 
BRANCH  31  32
ATOM     32  C   UNL     1       3.677   3.724  18.674  0.00  0.00    +0.000 C 
BRANCH  32  34
ATOM     33  C   UNL     1       1.181   3.523  18.279  0.00  0.00    +0.000 C 
ATOM     34  C   UNL     1       2.565   3.432  17.662  0.00  0.00    +0.000 C 
ENDBRANCH  32  34
ENDBRANCH  31  32
ENDBRANCH   1  31
TORSDOF 8
ENDMDL
MODEL 2
REMARK VINA RESULT:      -6.6      0.996      1.759
REMARK  Name = 
REMARK  12 active torsions:
REMARK  status: ('A' for Active; 'I' for Inactive)
REMARK    1  A    between atoms: C_1  and  C_2
REMARK    2  A    between atoms: C_2  and  C_3
REMARK    3  A    between atoms: C_3  and  C_4
REMARK    4  A    between atoms: C_4  and  N_5
REMARK    5  A    between atoms: C_11  and  C_12
REMARK    6  A    between atoms: C_15  and  O_16
REMARK    7  A    between atoms: O_16  and  C_17
REMARK    8  A    between atoms: C_20  and  C_21
REMARK    9  A    between atoms: C_24  and  N_25
REMARK   10  A    between atoms: N_25  and  C_26
REMARK   11  A    between atoms: C_26  and  C_27
REMARK   12  A    between atoms: C_26  and  C_28
REMARK                            x       y       z     vdW  Elec       q    Type
REMARK                         _______ _______ _______ _____ _____    ______ ____
ROOT
ATOM      1  N   UNL     1       3.484   5.751  19.805  0.00  0.00    +0.000 N 
ATOM      2  C   UNL     1       2.541   6.747  19.575  0.00  0.00    +0.000 C 
ATOM      3  O   UNL     1       2.075   6.931  18.456  0.00  0.00    +0.000 OA
ATOM      4  N   UNL     1       2.264   7.474  20.707  0.00  0.00    +0.000 N 
ATOM      5  C   UNL     1       1.353   8.499  20.664  0.00  0.00    +0.000 A 
ATOM      6  N   UNL     1       0.450   8.741  19.756  0.00  0.00    +0.000 NA
ATOM      7  C   UNL     1      -0.201   9.936  20.025  0.00  0.00    +0.000 A 
ATOM      8  C   UNL     1       0.167  10.561  21.221  0.00  0.00    +0.000 A 
ATOM      9  S   UNL     1       1.403   9.586  21.971  0.00  0.00    +0.000 S 
ATOM     10  H   UNL     1       3.357   5.263  20.686  0.00  0.00    +0.000 HD
ATOM     11  H   UNL     1       2.924   7.463  21.468  0.00  0.00    +0.000 HD
ENDROOT
BRANCH   7  12
ATOM     12  C   UNL     1      -1.202  10.408  19.066  0.00  0.00    +0.000 A 
ATOM     13  C   UNL     1      -1.146   9.972  17.736  0.00  0.00    +0.000 A 
ATOM     14  C   UNL     1      -2.126  10.365  16.818  0.00  0.00    +0.000 A 
ATOM     15  C   UNL     1      -3.190  11.172  17.219  0.00  0.00    +0.000 A 
ATOM     16  C   UNL     1      -3.234  11.641  18.530  0.00  0.00    +0.000 A 
ATOM     17  C   UNL     1      -2.225  11.293  19.434  0.00  0.00    +0.000 A 
BRANCH  15  18
ATOM     18  O   UNL     1      -4.097  11.477  16.241  0.00  0.00    +0.000 OA
ATOM     19  C   UNL     1      -5.257  12.180  16.672  0.00  0.00    +0.000 C 
ENDBRANCH  15  18
ENDBRANCH   7  12
BRANCH   8  20
ATOM     20  C   UNL     1      -0.307  11.798  21.890  0.00  0.00    +0.000 A 
ATOM     21  C   UNL     1      -1.318  11.753  22.858  0.00  0.00    +0.000 A 
ATOM     22  C   UNL     1      -1.866  12.921  23.407  0.00  0.00    +0.000 A 
ATOM     23  C   UNL     1      -1.347  14.179  23.097  0.00  0.00    +0.000 A 
ATOM     24  C   UNL     1      -0.317  14.234  22.155  0.00  0.00    +0.000 A 
ATOM     25  C   UNL     1       0.187  13.066  21.551  0.00  0.00    +0.000 A 
BRANCH  23  26
ATOM     26  N   UNL     1      -1.925  15.310  23.679  0.00  0.00    +0.000 N 
ATOM     27  H   UNL     1      -2.493  15.832  23.015  0.00  0.00    +0.000 HD
BRANCH  26  28
ATOM     28  C   UNL     1      -2.557  15.217  25.000  0.00  0.00    +0.000 C 
ATOM     29  C   UNL     1      -1.528  15.635  26.054  0.00  0.00    +0.000 C 
ATOM     30  C   UNL     1      -3.778  16.134  25.093  0.00  0.00    +0.000 C 
ENDBRANCH  26  28
ENDBRANCH  23  26
ENDBRANCH   8  20
BRANCH   1  31
ATOM     31  C   UNL     1       3.852   4.936  18.661  0.00  0.00    +0.000 C 
BRANCH  31  32
ATOM     32  C   UNL     1       5.106   4.096  18.872  0.00  0.00    +0.000 C 
BRANCH  32  34
ATOM     33  C   UNL     1       6.964   4.539  17.204  0.00  0.00    +0.000 C 
ATOM     34  C   UNL     1       6.357   4.917  18.544  0.00  0.00    +0.000 C 
ENDBRANCH  32  34
ENDBRANCH  31  32
ENDBRANCH   1  31
TORSDOF 8
ENDMDL
MODEL 3
REMARK VINA RESULT:      -6.6      0.831      1.199
REMARK  Name = 
REMARK  12 active torsions:
REMARK  status: ('A' for Active; 'I' for Inactive)
REMARK    1  A    between atoms: C_1  and  C_2
REMARK    2  A    between atoms: C_2  and  C_3
REMARK    3  A    between atoms: C_3  and  C_4
REMARK    4  A    between atoms: C_4  and  N_5
REMARK    5  A    between atoms: C_11  and  C_12
REMARK    6  A    between atoms: C_15  and  O_16
REMARK    7  A    between atoms: O_16  and  C_17
REMARK    8  A    between atoms: C_20  and  C_21
REMARK    9  A    between atoms: C_24  and  N_25
REMARK   10  A    between atoms: N_25  and  C_26
REMARK   11  A    between atoms: C_26  and  C_27
REMARK   12  A    between atoms: C_26  and  C_28
REMARK                            x       y       z     vdW  Elec       q    Type
REMARK                         _______ _______ _______ _____ _____    ______ ____
ROOT
ATOM      1  N   UNL     1       3.588   5.554  19.966  0.00  0.00    +0.000 N 
ATOM      2  C   UNL     1       2.674   6.567  19.697  0.00  0.00    +0.000 C 
ATOM      3  O   UNL     1       2.344   6.834  18.547  0.00  0.00    +0.000 OA
ATOM      4  N   UNL     1       2.260   7.209  20.839  0.00  0.00    +0.000 N 
ATOM      5  C   UNL     1       1.355   8.237  20.763  0.00  0.00    +0.000 A 
ATOM      6  N   UNL     1       0.565   8.548  19.773  0.00  0.00    +0.000 NA
ATOM      7  C   UNL     1      -0.121   9.722  20.050  0.00  0.00    +0.000 A 
ATOM      8  C   UNL     1       0.099  10.256  21.323  0.00  0.00    +0.000 A 
ATOM      9  S   UNL     1       1.241   9.225  22.142  0.00  0.00    +0.000 S 
ATOM     10  H   UNL     1       3.360   5.002  20.786  0.00  0.00    +0.000 HD
ATOM     11  H   UNL     1       2.824   7.140  21.670  0.00  0.00    +0.000 HD
ENDROOT
BRANCH   7  12
ATOM     12  C   UNL     1      -1.002  10.266  19.015  0.00  0.00    +0.000 A 
ATOM     13  C   UNL     1      -2.016   9.463  18.476  0.00  0.00    +0.000 A 
ATOM     14  C   UNL     1      -2.906   9.982  17.529  0.00  0.00    +0.000 A 
ATOM     15  C   UNL     1      -2.816  11.316  17.129  0.00  0.00    +0.000 A 
ATOM     16  C   UNL     1      -1.789  12.111  17.631  0.00  0.00    +0.000 A 
ATOM     17  C   UNL     1      -0.866  11.577  18.537  0.00  0.00    +0.000 A 
BRANCH  15  18
ATOM     18  O   UNL     1      -3.749  11.717  16.213  0.00  0.00    +0.000 OA
ATOM     19  C   UNL     1      -3.929  10.856  15.095  0.00  0.00    +0.000 C 
ENDBRANCH  15  18
ENDBRANCH   7  12
BRANCH   8  20
ATOM     20  C   UNL     1      -0.459  11.442  22.020  0.00  0.00    +0.000 A 
ATOM     21  C   UNL     1      -1.514  11.314  22.933  0.00  0.00    +0.000 A 
ATOM     22  C   UNL     1      -2.136  12.432  23.503  0.00  0.00    +0.000 A 
ATOM     23  C   UNL     1      -1.656  13.723  23.274  0.00  0.00    +0.000 A 
ATOM     24  C   UNL     1      -0.585  13.861  22.388  0.00  0.00    +0.000 A 
ATOM     25  C   UNL     1      -0.003  12.743  21.761  0.00  0.00    +0.000 A 
BRANCH  23  26
ATOM     26  N   UNL     1      -2.309  14.802  23.874  0.00  0.00    +0.000 N 
ATOM     27  H   UNL     1      -1.789  15.671  23.764  0.00  0.00    +0.000 HD
BRANCH  26  28
ATOM     28  C   UNL     1      -3.751  14.989  23.685  0.00  0.00    +0.000 C 
ATOM     29  C   UNL     1      -4.208  16.140  24.587  0.00  0.00    +0.000 C 
ATOM     30  C   UNL     1      -4.078  15.327  22.229  0.00  0.00    +0.000 C 
ENDBRANCH  26  28
ENDBRANCH  23  26
ENDBRANCH   8  20
BRANCH   1  31
ATOM     31  C   UNL     1       4.095   4.823  18.816  0.00  0.00    +0.000 C 
BRANCH  31  32
ATOM     32  C   UNL     1       3.788   3.330  18.842  0.00  0.00    +0.000 C 
BRANCH  32  34
ATOM     33  C   UNL     1       1.364   2.687  18.475  0.00  0.00    +0.000 C 
ATOM     34  C   UNL     1       2.699   2.993  17.820  0.00  0.00    +0.000 C 
ENDBRANCH  32  34
ENDBRANCH  31  32
ENDBRANCH   1  31
TORSDOF 8
ENDMDL
MODEL 4
REMARK VINA RESULT:      -6.4      2.581      3.496
REMARK  Name = 
REMARK  12 active torsions:
REMARK  status: ('A' for Active; 'I' for Inactive)
REMARK    1  A    between atoms: C_1  and  C_2
REMARK    2  A    between atoms: C_2  and  C_3
REMARK    3  A    between atoms: C_3  and  C_4
REMARK    4  A    between atoms: C_4  and  N_5
REMARK    5  A    between atoms: C_11  and  C_12
REMARK    6  A    between atoms: C_15  and  O_16
REMARK    7  A    between atoms: O_16  and  C_17
REMARK    8  A    between atoms: C_20  and  C_21
REMARK    9  A    between atoms: C_24  and  N_25
REMARK   10  A    between atoms: N_25  and  C_26
REMARK   11  A    between atoms: C_26  and  C_27
REMARK   12  A    between atoms: C_26  and  C_28
REMARK                            x       y       z     vdW  Elec       q    Type
REMARK                         _______ _______ _______ _____ _____    ______ ____
ROOT
ATOM      1  N   UNL     1       1.882   6.038  20.606  0.00  0.00    +0.000 N 
ATOM      2  C   UNL     1       1.665   7.411  20.557  0.00  0.00    +0.000 C 
ATOM      3  O   UNL     1       2.404   8.146  19.911  0.00  0.00    +0.000 OA
ATOM      4  N   UNL     1       0.594   7.795  21.327  0.00  0.00    +0.000 N 
ATOM      5  C   UNL     1       0.233   9.117  21.396  0.00  0.00    +0.000 A 
ATOM      6  N   UNL     1       0.573  10.091  20.599  0.00  0.00    +0.000 NA
ATOM      7  C   UNL     1       0.085  11.299  21.073  0.00  0.00    +0.000 A 
ATOM      8  C   UNL     1      -0.720  11.212  22.214  0.00  0.00    +0.000 A 
ATOM      9  S   UNL     1      -0.801   9.534  22.680  0.00  0.00    +0.000 S 
ATOM     10  H   UNL     1       1.031   5.487  20.577  0.00  0.00    +0.000 HD
ATOM     11  H   UNL     1       0.272   7.182  22.057  0.00  0.00    +0.000 HD
ENDROOT
BRANCH   7  12
ATOM     12  C   UNL     1       0.433  12.519  20.343  0.00  0.00    +0.000 A 
ATOM     13  C   UNL     1       1.650  13.162  20.608  0.00  0.00    +0.000 A 
ATOM     14  C   UNL     1       2.028  14.296  19.880  0.00  0.00    +0.000 A 
ATOM     15  C   UNL     1       1.213  14.787  18.860  0.00  0.00    +0.000 A 
ATOM     16  C   UNL     1      -0.015  14.178  18.614  0.00  0.00    +0.000 A 
ATOM     17  C   UNL     1      -0.418  13.077  19.378  0.00  0.00    +0.000 A 
BRANCH  15  18
ATOM     18  O   UNL     1       1.693  15.888  18.205  0.00  0.00    +0.000 OA
ATOM     19  C   UNL     1       3.069  15.842  17.845  0.00  0.00    +0.000 C 
ENDBRANCH  15  18
ENDBRANCH   7  12
BRANCH   8  20
ATOM     20  C   UNL     1      -1.461  12.233  22.996  0.00  0.00    +0.000 A 
ATOM     21  C   UNL     1      -2.746  11.973  23.490  0.00  0.00    +0.000 A 
ATOM     22  C   UNL     1      -3.509  12.966  24.118  0.00  0.00    +0.000 A 
ATOM     23  C   UNL     1      -2.977  14.228  24.384  0.00  0.00    +0.000 A 
ATOM     24  C   UNL     1      -1.685  14.490  23.923  0.00  0.00    +0.000 A 
ATOM     25  C   UNL     1      -0.943  13.515  23.230  0.00  0.00    +0.000 A 
BRANCH  23  26
ATOM     26  N   UNL     1      -3.779  15.179  25.022  0.00  0.00    +0.000 N 
ATOM     27  H   UNL     1      -3.499  15.325  25.990  0.00  0.00    +0.000 HD
BRANCH  26  28
ATOM     28  C   UNL     1      -4.114  16.435  24.344  0.00  0.00    +0.000 C 
ATOM     29  C   UNL     1      -5.188  16.140  23.292  0.00  0.00    +0.000 C 
ATOM     30  C   UNL     1      -4.648  17.472  25.334  0.00  0.00    +0.000 C 
ENDBRANCH  26  28
ENDBRANCH  23  26
ENDBRANCH   8  20
BRANCH   1  31
ATOM     31  C   UNL     1       3.004   5.536  19.831  0.00  0.00    +0.000 C 
BRANCH  31  32
ATOM     32  C   UNL     1       2.611   4.918  18.494  0.00  0.00    +0.000 C 
BRANCH  32  34
ATOM     33  C   UNL     1       4.320   3.877  16.938  0.00  0.00    +0.000 C 
ATOM     34  C   UNL     1       3.704   5.167  17.451  0.00  0.00    +0.000 C 
ENDBRANCH  32  34
ENDBRANCH  31  32
ENDBRANCH   1  31
TORSDOF 8
ENDMDL
MODEL 5
REMARK VINA RESULT:      -6.4      0.681      1.272
REMARK  Name = 
REMARK  12 active torsions:
REMARK  status: ('A' for Active; 'I' for Inactive)
REMARK    1  A    between atoms: C_1  and  C_2
REMARK    2  A    between atoms: C_2  and  C_3
REMARK    3  A    between atoms: C_3  and  C_4
REMARK    4  A    between atoms: C_4  and  N_5
REMARK    5  A    between atoms: C_11  and  C_12
REMARK    6  A    between atoms: C_15  and  O_16
REMARK    7  A    between atoms: O_16  and  C_17
REMARK    8  A    between atoms: C_20  and  C_21
REMARK    9  A    between atoms: C_24  and  N_25
REMARK   10  A    between atoms: N_25  and  C_26
REMARK   11  A    between atoms: C_26  and  C_27
REMARK   12  A    between atoms: C_26  and  C_28
REMARK                            x       y       z     vdW  Elec       q    Type
REMARK                         _______ _______ _______ _____ _____    ______ ____
ROOT
ATOM      1  N   UNL     1       3.594   6.067  19.548  0.00  0.00    +0.000 N 
ATOM      2  C   UNL     1       2.599   7.027  19.394  0.00  0.00    +0.000 C 
ATOM      3  O   UNL     1       2.184   7.336  18.283  0.00  0.00    +0.000 OA
ATOM      4  N   UNL     1       2.212   7.572  20.595  0.00  0.00    +0.000 N 
ATOM      5  C   UNL     1       1.237   8.537  20.632  0.00  0.00    +0.000 A 
ATOM      6  N   UNL     1       0.371   8.848  19.710  0.00  0.00    +0.000 NA
ATOM      7  C   UNL     1      -0.374   9.953  20.095  0.00  0.00    +0.000 A 
ATOM      8  C   UNL     1      -0.115  10.427  21.385  0.00  0.00    +0.000 A 
ATOM      9  S   UNL     1       1.141   9.433  22.074  0.00  0.00    +0.000 S 
ATOM     10  H   UNL     1       3.452   5.455  20.344  0.00  0.00    +0.000 HD
ATOM     11  H   UNL     1       2.828   7.495  21.387  0.00  0.00    +0.000 HD
ENDROOT
BRANCH   7  12
ATOM     12  C   UNL     1      -1.350  10.493  19.147  0.00  0.00    +0.000 A 
ATOM     13  C   UNL     1      -1.510   9.883  17.896  0.00  0.00    +0.000 A 
ATOM     14  C   UNL     1      -2.479  10.347  16.999  0.00  0.00    +0.000 A 
ATOM     15  C   UNL     1      -3.319  11.405  17.347  0.00  0.00    +0.000 A 
ATOM     16  C   UNL     1      -3.142  12.042  18.573  0.00  0.00    +0.000 A 
ATOM     17  C   UNL     1      -2.138  11.613  19.448  0.00  0.00    +0.000 A 
BRANCH  15  18
ATOM     18  O   UNL     1      -4.238  11.761  16.399  0.00  0.00    +0.000 OA
ATOM     19  C   UNL     1      -5.507  12.173  16.893  0.00  0.00    +0.000 C 
ENDBRANCH  15  18
ENDBRANCH   7  12
BRANCH   8  20
ATOM     20  C   UNL     1      -0.707  11.529  22.184  0.00  0.00    +0.000 A 
ATOM     21  C   UNL     1      -1.788  11.297  23.044  0.00  0.00    +0.000 A 
ATOM     22  C   UNL     1      -2.440  12.344  23.707  0.00  0.00    +0.000 A 
ATOM     23  C   UNL     1      -1.969  13.656  23.629  0.00  0.00    +0.000 A 
ATOM     24  C   UNL     1      -0.873  13.895  22.798  0.00  0.00    +0.000 A 
ATOM     25  C   UNL     1      -0.259  12.853  22.077  0.00  0.00    +0.000 A 
BRANCH  23  26
ATOM     26  N   UNL     1      -2.653  14.661  24.318  0.00  0.00    +0.000 N 
ATOM     27  H   UNL     1      -2.867  14.389  25.275  0.00  0.00    +0.000 HD
BRANCH  26  28
ATOM     28  C   UNL     1      -2.205  16.055  24.224  0.00  0.00    +0.000 C 
ATOM     29  C   UNL     1      -3.321  16.873  23.567  0.00  0.00    +0.000 C 
ATOM     30  C   UNL     1      -1.901  16.633  25.607  0.00  0.00    +0.000 C 
ENDBRANCH  26  28
ENDBRANCH  23  26
ENDBRANCH   8  20
BRANCH   1  31
ATOM     31  C   UNL     1       4.078   5.441  18.329  0.00  0.00    +0.000 C 
BRANCH  31  32
ATOM     32  C   UNL     1       3.447   4.086  18.031  0.00  0.00    +0.000 C 
BRANCH  32  34
ATOM     33  C   UNL     1       3.242   1.697  18.852  0.00  0.00    +0.000 C 
ATOM     34  C   UNL     1       3.879   3.056  19.079  0.00  0.00    +0.000 C 
ENDBRANCH  32  34
ENDBRANCH  31  32
ENDBRANCH   1  31
TORSDOF 8
ENDMDL
MODEL 6
REMARK VINA RESULT:      -6.4      0.928      1.304
REMARK  Name = 
REMARK  12 active torsions:
REMARK  status: ('A' for Active; 'I' for Inactive)
REMARK    1  A    between atoms: C_1  and  C_2
REMARK    2  A    between atoms: C_2  and  C_3
REMARK    3  A    between atoms: C_3  and  C_4
REMARK    4  A    between atoms: C_4  and  N_5
REMARK    5  A    between atoms: C_11  and  C_12
REMARK    6  A    between atoms: C_15  and  O_16
REMARK    7  A    between atoms: O_16  and  C_17
REMARK    8  A    between atoms: C_20  and  C_21
REMARK    9  A    between atoms: C_24  and  N_25
REMARK   10  A    between atoms: N_25  and  C_26
REMARK   11  A    between atoms: C_26  and  C_27
REMARK   12  A    between atoms: C_26  and  C_28
REMARK                            x       y       z     vdW  Elec       q    Type
REMARK                         _______ _______ _______ _____ _____    ______ ____
ROOT
ATOM      1  N   UNL     1       3.540   5.846  19.779  0.00  0.00    +0.000 N 
ATOM      2  C   UNL     1       2.575   6.820  19.545  0.00  0.00    +0.000 C 
ATOM      3  O   UNL     1       2.166   7.046  18.412  0.00  0.00    +0.000 OA
ATOM      4  N   UNL     1       2.210   7.477  20.695  0.00  0.00    +0.000 N 
ATOM      5  C   UNL     1       1.266   8.471  20.652  0.00  0.00    +0.000 A 
ATOM      6  N   UNL     1       0.407   8.729  19.706  0.00  0.00    +0.000 NA
ATOM      7  C   UNL     1      -0.303   9.886  19.997  0.00  0.00    +0.000 A 
ATOM      8  C   UNL     1      -0.024  10.460  21.242  0.00  0.00    +0.000 A 
ATOM      9  S   UNL     1       1.202   9.489  22.012  0.00  0.00    +0.000 S 
ATOM     10  H   UNL     1       3.383   5.308  20.625  0.00  0.00    +0.000 HD
ATOM     11  H   UNL     1       2.826   7.448  21.491  0.00  0.00    +0.000 HD
ENDROOT
BRANCH   7  12
ATOM     12  C   UNL     1      -1.265  10.374  19.008  0.00  0.00    +0.000 A 
ATOM     13  C   UNL     1      -1.191   9.915  17.686  0.00  0.00    +0.000 A 
ATOM     14  C   UNL     1      -2.137  10.323  16.738  0.00  0.00    +0.000 A 
ATOM     15  C   UNL     1      -3.184  11.170  17.102  0.00  0.00    +0.000 A 
ATOM     16  C   UNL     1      -3.244  11.661  18.403  0.00  0.00    +0.000 A 
ATOM     17  C   UNL     1      -2.268  11.296  19.337  0.00  0.00    +0.000 A 
BRANCH  15  18
ATOM     18  O   UNL     1      -4.058  11.487  16.098  0.00  0.00    +0.000 OA
ATOM     19  C   UNL     1      -3.873  10.786  14.874  0.00  0.00    +0.000 C 
ENDBRANCH  15  18
ENDBRANCH   7  12
BRANCH   8  20
ATOM     20  C   UNL     1      -0.580  11.644  21.944  0.00  0.00    +0.000 A 
ATOM     21  C   UNL     1      -0.106  12.934  21.672  0.00  0.00    +0.000 A 
ATOM     22  C   UNL     1      -0.526  14.045  22.413  0.00  0.00    +0.000 A 
ATOM     23  C   UNL     1      -1.524  13.934  23.382  0.00  0.00    +0.000 A 
ATOM     24  C   UNL     1      -2.026  12.657  23.642  0.00  0.00    +0.000 A 
ATOM     25  C   UNL     1      -1.555  11.528  22.945  0.00  0.00    +0.000 A 
BRANCH  23  26
ATOM     26  N   UNL     1      -1.913  15.077  24.086  0.00  0.00    +0.000 N 
ATOM     27  H   UNL     1      -1.116  15.563  24.493  0.00  0.00    +0.000 HD
BRANCH  26  28
ATOM     28  C   UNL     1      -2.892  16.003  23.506  0.00  0.00    +0.000 C 
ATOM     29  C   UNL     1      -4.002  16.232  24.535  0.00  0.00    +0.000 C 
ATOM     30  C   UNL     1      -2.243  17.343  23.155  0.00  0.00    +0.000 C 
ENDBRANCH  26  28
ENDBRANCH  23  26
ENDBRANCH   8  20
BRANCH   1  31
ATOM     31  C   UNL     1       4.001   5.104  18.618  0.00  0.00    +0.000 C 
BRANCH  31  32
ATOM     32  C   UNL     1       5.398   4.513  18.770  0.00  0.00    +0.000 C 
BRANCH  32  34
ATOM     33  C   UNL     1       5.696   4.102  16.286  0.00  0.00    +0.000 C 
ATOM     34  C   UNL     1       6.236   4.803  17.521  0.00  0.00    +0.000 C 
ENDBRANCH  32  34
ENDBRANCH  31  32
ENDBRANCH   1  31
TORSDOF 8
ENDMDL
MODEL 7
REMARK VINA RESULT:      -6.4      0.814      1.431
REMARK  Name = 
REMARK  12 active torsions:
REMARK  status: ('A' for Active; 'I' for Inactive)
REMARK    1  A    between atoms: C_1  and  C_2
REMARK    2  A    between atoms: C_2  and  C_3
REMARK    3  A    between atoms: C_3  and  C_4
REMARK    4  A    between atoms: C_4  and  N_5
REMARK    5  A    between atoms: C_11  and  C_12
REMARK    6  A    between atoms: C_15  and  O_16
REMARK    7  A    between atoms: O_16  and  C_17
REMARK    8  A    between atoms: C_20  and  C_21
REMARK    9  A    between atoms: C_24  and  N_25
REMARK   10  A    between atoms: N_25  and  C_26
REMARK   11  A    between atoms: C_26  and  C_27
REMARK   12  A    between atoms: C_26  and  C_28
REMARK                            x       y       z     vdW  Elec       q    Type
REMARK                         _______ _______ _______ _____ _____    ______ ____
ROOT
ATOM      1  N   UNL     1       3.532   5.765  20.010  0.00  0.00    +0.000 N 
ATOM      2  C   UNL     1       2.590   6.753  19.740  0.00  0.00    +0.000 C 
ATOM      3  O   UNL     1       2.230   6.987  18.592  0.00  0.00    +0.000 OA
ATOM      4  N   UNL     1       2.187   7.411  20.877  0.00  0.00    +0.000 N 
ATOM      5  C   UNL     1       1.258   8.418  20.798  0.00  0.00    +0.000 A 
ATOM      6  N   UNL     1       0.442   8.690  19.820  0.00  0.00    +0.000 NA
ATOM      7  C   UNL     1      -0.263   9.855  20.085  0.00  0.00    +0.000 A 
ATOM      8  C   UNL     1      -0.029  10.422  21.342  0.00  0.00    +0.000 A 
ATOM      9  S   UNL     1       1.153   9.433  22.158  0.00  0.00    +0.000 S 
ATOM     10  H   UNL     1       3.333   5.227  20.846  0.00  0.00    +0.000 HD
ATOM     11  H   UNL     1       2.769   7.372  21.696  0.00  0.00    +0.000 HD
ENDROOT
BRANCH   7  12
ATOM     12  C   UNL     1      -1.178  10.358  19.059  0.00  0.00    +0.000 A 
ATOM     13  C   UNL     1      -1.180   9.773  17.786  0.00  0.00    +0.000 A 
ATOM     14  C   UNL     1      -2.087  10.200  16.809  0.00  0.00    +0.000 A 
ATOM     15  C   UNL     1      -3.022  11.194  17.096  0.00  0.00    +0.000 A 
ATOM     16  C   UNL     1      -3.003  11.808  18.346  0.00  0.00    +0.000 A 
ATOM     17  C   UNL     1      -2.061  11.419  19.305  0.00  0.00    +0.000 A 
BRANCH  15  18
ATOM     18  O   UNL     1      -3.869  11.517  16.072  0.00  0.00    +0.000 OA
ATOM     19  C   UNL     1      -3.732  10.739  14.888  0.00  0.00    +0.000 C 
ENDBRANCH  15  18
ENDBRANCH   7  12
BRANCH   8  20
ATOM     20  C   UNL     1      -0.596  11.611  22.025  0.00  0.00    +0.000 A 
ATOM     21  C   UNL     1      -1.727  11.501  22.846  0.00  0.00    +0.000 A 
ATOM     22  C   UNL     1      -2.351  12.628  23.395  0.00  0.00    +0.000 A 
ATOM     23  C   UNL     1      -1.806  13.904  23.243  0.00  0.00    +0.000 A 
ATOM     24  C   UNL     1      -0.661  14.022  22.452  0.00  0.00    +0.000 A 
ATOM     25  C   UNL     1      -0.073  12.898  21.842  0.00  0.00    +0.000 A 
BRANCH  23  26
ATOM     26  N   UNL     1      -2.465  14.993  23.820  0.00  0.00    +0.000 N 
ATOM     27  H   UNL     1      -1.908  15.433  24.550  0.00  0.00    +0.000 HD
BRANCH  26  28
ATOM     28  C   UNL     1      -3.145  15.977  22.971  0.00  0.00    +0.000 C 
ATOM     29  C   UNL     1      -2.103  16.985  22.477  0.00  0.00    +0.000 C 
ATOM     30  C   UNL     1      -3.806  15.304  21.767  0.00  0.00    +0.000 C 
ENDBRANCH  26  28
ENDBRANCH  23  26
ENDBRANCH   8  20
BRANCH   1  31
ATOM     31  C   UNL     1       4.029   5.021  18.866  0.00  0.00    +0.000 C 
BRANCH  31  32
ATOM     32  C   UNL     1       3.293   3.711  18.606  0.00  0.00    +0.000 C 
BRANCH  32  34
ATOM     33  C   UNL     1       4.621   4.063  16.476  0.00  0.00    +0.000 C 
ATOM     34  C   UNL     1       3.600   3.199  17.196  0.00  0.00    +0.000 C 
ENDBRANCH  32  34
ENDBRANCH  31  32
ENDBRANCH   1  31
TORSDOF 8
ENDMDL
MODEL 8
REMARK VINA RESULT:      -6.4      3.849      7.066
REMARK  Name = 
REMARK  12 active torsions:
REMARK  status: ('A' for Active; 'I' for Inactive)
REMARK    1  A    between atoms: C_1  and  C_2
REMARK    2  A    between atoms: C_2  and  C_3
REMARK    3  A    between atoms: C_3  and  C_4
REMARK    4  A    between atoms: C_4  and  N_5
REMARK    5  A    between atoms: C_11  and  C_12
REMARK    6  A    between atoms: C_15  and  O_16
REMARK    7  A    between atoms: O_16  and  C_17
REMARK    8  A    between atoms: C_20  and  C_21
REMARK    9  A    between atoms: C_24  and  N_25
REMARK   10  A    between atoms: N_25  and  C_26
REMARK   11  A    between atoms: C_26  and  C_27
REMARK   12  A    between atoms: C_26  and  C_28
REMARK                            x       y       z     vdW  Elec       q    Type
REMARK                         _______ _______ _______ _____ _____    ______ ____
ROOT
ATOM      1  N   UNL     1       6.869   5.336  14.050  0.00  0.00    +0.000 N 
ATOM      2  C   UNL     1       5.910   5.240  15.053  0.00  0.00    +0.000 C 
ATOM      3  O   UNL     1       5.422   4.158  15.360  0.00  0.00    +0.000 OA
ATOM      4  N   UNL     1       5.584   6.466  15.580  0.00  0.00    +0.000 N 
ATOM      5  C   UNL     1       4.654   6.561  16.583  0.00  0.00    +0.000 A 
ATOM      6  N   UNL     1       4.202   5.616  17.358  0.00  0.00    +0.000 NA
ATOM      7  C   UNL     1       3.189   6.099  18.174  0.00  0.00    +0.000 A 
ATOM      8  C   UNL     1       2.938   7.471  18.066  0.00  0.00    +0.000 A 
ATOM      9  S   UNL     1       4.018   8.114  16.857  0.00  0.00    +0.000 S 
ATOM     10  H   UNL     1       7.610   5.998  14.253  0.00  0.00    +0.000 HD
ATOM     11  H   UNL     1       5.787   7.296  15.047  0.00  0.00    +0.000 HD
ENDROOT
BRANCH   7  12
ATOM     12  C   UNL     1       2.509   5.156  19.064  0.00  0.00    +0.000 A 
ATOM     13  C   UNL     1       1.595   4.237  18.530  0.00  0.00    +0.000 A 
ATOM     14  C   UNL     1       0.978   3.289  19.354  0.00  0.00    +0.000 A 
ATOM     15  C   UNL     1       1.285   3.225  20.714  0.00  0.00    +0.000 A 
ATOM     16  C   UNL     1       2.163   4.158  21.260  0.00  0.00    +0.000 A 
ATOM     17  C   UNL     1       2.738   5.140  20.447  0.00  0.00    +0.000 A 
BRANCH  15  18
ATOM     18  O   UNL     1       0.636   2.247  21.416  0.00  0.00    +0.000 OA
ATOM     19  C   UNL     1       1.180   1.939  22.694  0.00  0.00    +0.000 C 
ENDBRANCH  15  18
ENDBRANCH   7  12
BRANCH   8  20
ATOM     20  C   UNL     1       1.998   8.375  18.773  0.00  0.00    +0.000 A 
ATOM     21  C   UNL     1       1.768   8.245  20.149  0.00  0.00    +0.000 A 
ATOM     22  C   UNL     1       0.792   9.004  20.808  0.00  0.00    +0.000 A 
ATOM     23  C   UNL     1       0.083  10.006  20.144  0.00  0.00    +0.000 A 
ATOM     24  C   UNL     1       0.325  10.165  18.778  0.00  0.00    +0.000 A 
ATOM     25  C   UNL     1       1.256   9.356  18.100  0.00  0.00    +0.000 A 
BRANCH  23  26
ATOM     26  N   UNL     1      -0.874  10.739  20.852  0.00  0.00    +0.000 N 
ATOM     27  H   UNL     1      -1.711  10.190  21.041  0.00  0.00    +0.000 HD
BRANCH  26  28
ATOM     28  C   UNL     1      -0.473  11.556  22.002  0.00  0.00    +0.000 C 
ATOM     29  C   UNL     1       0.294  12.774  21.479  0.00  0.00    +0.000 C 
ATOM     30  C   UNL     1      -1.693  12.030  22.794  0.00  0.00    +0.000 C 
ENDBRANCH  26  28
ENDBRANCH  23  26
ENDBRANCH   8  20
BRANCH   1  31
ATOM     31  C   UNL     1       7.270   4.089  13.422  0.00  0.00    +0.000 C 
BRANCH  31  32
ATOM     32  C   UNL     1       6.665   3.863  12.041  0.00  0.00    +0.000 C 
BRANCH  32  34
ATOM     33  C   UNL     1       4.358   3.279  11.167  0.00  0.00    +0.000 C 
ATOM     34  C   UNL     1       5.470   2.910  12.133  0.00  0.00    +0.000 C 
ENDBRANCH  32  34
ENDBRANCH  31  32
ENDBRANCH   1  31
TORSDOF 8
ENDMDL
MODEL 9
REMARK VINA RESULT:      -6.3      1.200      1.336
REMARK  Name = 
REMARK  12 active torsions:
REMARK  status: ('A' for Active; 'I' for Inactive)
REMARK    1  A    between atoms: C_1  and  C_2
REMARK    2  A    between atoms: C_2  and  C_3
REMARK    3  A    between atoms: C_3  and  C_4
REMARK    4  A    between atoms: C_4  and  N_5
REMARK    5  A    between atoms: C_11  and  C_12
REMARK    6  A    between atoms: C_15  and  O_16
REMARK    7  A    between atoms: O_16  and  C_17
REMARK    8  A    between atoms: C_20  and  C_21
REMARK    9  A    between atoms: C_24  and  N_25
REMARK   10  A    between atoms: N_25  and  C_26
REMARK   11  A    between atoms: C_26  and  C_27
REMARK   12  A    between atoms: C_26  and  C_28
REMARK                            x       y       z     vdW  Elec       q    Type
REMARK                         _______ _______ _______ _____ _____    ______ ____
ROOT
ATOM      1  N   UNL     1       3.341   5.447  20.360  0.00  0.00    +0.000 N 
ATOM      2  C   UNL     1       2.498   6.488  19.982  0.00  0.00    +0.000 C 
ATOM      3  O   UNL     1       2.225   6.684  18.803  0.00  0.00    +0.000 OA
ATOM      4  N   UNL     1       2.084   7.238  21.056  0.00  0.00    +0.000 N 
ATOM      5  C   UNL     1       1.246   8.308  20.868  0.00  0.00    +0.000 A 
ATOM      6  N   UNL     1       0.511   8.586  19.828  0.00  0.00    +0.000 NA
ATOM      7  C   UNL     1      -0.112   9.815  19.989  0.00  0.00    +0.000 A 
ATOM      8  C   UNL     1       0.095  10.433  21.227  0.00  0.00    +0.000 A 
ATOM      9  S   UNL     1       1.144   9.403  22.164  0.00  0.00    +0.000 S 
ATOM     10  H   UNL     1       3.051   4.974  21.210  0.00  0.00    +0.000 HD
ATOM     11  H   UNL     1       2.614   7.201  21.911  0.00  0.00    +0.000 HD
ENDROOT
BRANCH   7  12
ATOM     12  C   UNL     1      -0.923  10.328  18.883  0.00  0.00    +0.000 A 
ATOM     13  C   UNL     1      -1.691   9.441  18.118  0.00  0.00    +0.000 A 
ATOM     14  C   UNL     1      -2.518   9.918  17.095  0.00  0.00    +0.000 A 
ATOM     15  C   UNL     1      -2.613  11.286  16.840  0.00  0.00    +0.000 A 
ATOM     16  C   UNL     1      -1.825  12.172  17.570  0.00  0.00    +0.000 A 
ATOM     17  C   UNL     1      -0.958  11.691  18.556  0.00  0.00    +0.000 A 
BRANCH  15  18
ATOM     18  O   UNL     1      -3.466  11.637  15.829  0.00  0.00    +0.000 OA
ATOM     19  C   UNL     1      -3.737  10.622  14.869  0.00  0.00    +0.000 C 
ENDBRANCH  15  18
ENDBRANCH   7  12
BRANCH   8  20
ATOM     20  C   UNL     1      -0.414  11.698  21.811  0.00  0.00    +0.000 A 
ATOM     21  C   UNL     1       0.223  12.920  21.554  0.00  0.00    +0.000 A 
ATOM     22  C   UNL     1      -0.166  14.103  22.196  0.00  0.00    +0.000 A 
ATOM     23  C   UNL     1      -1.280  14.139  23.036  0.00  0.00    +0.000 A 
ATOM     24  C   UNL     1      -1.941  12.933  23.276  0.00  0.00    +0.000 A 
ATOM     25  C   UNL     1      -1.510  11.730  22.685  0.00  0.00    +0.000 A 
BRANCH  23  26
ATOM     26  N   UNL     1      -1.628  15.348  23.644  0.00  0.00    +0.000 N 
ATOM     27  H   UNL     1      -2.628  15.408  23.827  0.00  0.00    +0.000 HD
BRANCH  26  28
ATOM     28  C   UNL     1      -0.827  15.871  24.756  0.00  0.00    +0.000 C 
ATOM     29  C   UNL     1      -0.717  17.390  24.594  0.00  0.00    +0.000 C 
ATOM     30  C   UNL     1      -1.478  15.552  26.103  0.00  0.00    +0.000 C 
ENDBRANCH  26  28
ENDBRANCH  23  26
ENDBRANCH   8  20
BRANCH   1  31
ATOM     31  C   UNL     1       3.842   4.603  19.290  0.00  0.00    +0.000 C 
BRANCH  31  32
ATOM     32  C   UNL     1       3.374   3.154  19.367  0.00  0.00    +0.000 C 
BRANCH  32  34
ATOM     33  C   UNL     1       0.857   2.922  19.559  0.00  0.00    +0.000 C 
ATOM     34  C   UNL     1       2.048   2.983  18.620  0.00  0.00    +0.000 C 
ENDBRANCH  32  34
ENDBRANCH  31  32
ENDBRANCH   1  31
TORSDOF 8
ENDMDL
