MODEL 1
REMARK VINA RESULT:      -7.4      0.000      0.000
REMARK  Name = 
REMARK  8 active torsions:
REMARK  status: ('A' for Active; 'I' for Inactive)
REMARK    1  A    between atoms: C_1  and  C_2
REMARK    2  A    between atoms: C_2  and  C_3
REMARK    3  A    between atoms: C_3  and  C_4
REMARK    4  A    between atoms: C_5  and  N_6
REMARK    5  A    between atoms: N_9  and  C_10
REMARK    6  A    between atoms: C_13  and  O_14
REMARK    7  A    between atoms: O_14  and  C_15
REMARK    8  A    between atoms: N_23  and  C_24
REMARK                            x       y       z     vdW  Elec       q    Type
REMARK                         _______ _______ _______ _____ _____    ______ ____
ROOT
ATOM      1  N   UNL     1       1.558  10.217  18.090  0.00  0.00    +0.000 N 
ATOM      2  C   UNL     1       1.963   8.971  18.553  0.00  0.00    +0.000 C 
ATOM      3  O   UNL     1       1.740   8.580  19.697  0.00  0.00    +0.000 OA
ATOM      4  N   UNL     1       2.621   8.241  17.573  0.00  0.00    +0.000 N 
ATOM      5  H   UNL     1       1.273  10.243  17.123  0.00  0.00    +0.000 HD
ATOM      6  H   UNL     1       3.056   8.765  16.839  0.00  0.00    +0.000 HD
ENDROOT
BRANCH   4   7
ATOM      7  C   UNL     1       2.985   6.872  17.698  0.00  0.00    +0.000 A 
ATOM      8  C   UNL     1       4.312   6.430  17.710  0.00  0.00    +0.000 A 
ATOM      9  C   UNL     1       4.617   5.070  17.823  0.00  0.00    +0.000 A 
ATOM     10  C   UNL     1       3.603   4.124  17.950  0.00  0.00    +0.000 A 
ATOM     11  C   UNL     1       2.274   4.550  17.912  0.00  0.00    +0.000 A 
ATOM     12  C   UNL     1       1.970   5.918  17.816  0.00  0.00    +0.000 A 
BRANCH  10  13
ATOM     13  O   UNL     1       4.023   2.834  18.020  0.00  0.00    +0.000 OA
BRANCH  13  14
ATOM     14  C   UNL     1       3.635   2.028  19.124  0.00  0.00    +0.000 C 
ATOM     15  F   UNL     1       2.383   1.535  19.047  0.00  0.00    +0.000 F 
ATOM     16  F   UNL     1       4.497   0.992  19.233  0.00  0.00    +0.000 F 
ATOM     17  F   UNL     1       3.723   2.765  20.256  0.00  0.00    +0.000 F 
ENDBRANCH  13  14
ENDBRANCH  10  13
ENDBRANCH   4   7
BRANCH   1  19
ATOM     18  C   UNL     1      -0.458  11.016  19.304  0.00  0.00    +0.000 A 
ATOM     19  C   UNL     1       0.885  11.065  18.967  0.00  0.00    +0.000 A 
ATOM     20  C   UNL     1       1.406  12.152  19.692  0.00  0.00    +0.000 A 
ATOM     21  N   UNL     1       0.463  12.814  20.358  0.00  0.00    +0.000 NA
ATOM     22  N   UNL     1      -0.643  12.036  20.244  0.00  0.00    +0.000 N 
BRANCH  22  23
ATOM     23  C   UNL     1      -1.803  12.380  21.000  0.00  0.00    +0.000 A 
ATOM     24  C   UNL     1      -2.867  13.021  20.345  0.00  0.00    +0.000 A 
ATOM     25  C   UNL     1      -4.057  13.282  21.030  0.00  0.00    +0.000 A 
ATOM     26  C   UNL     1      -4.173  12.938  22.375  0.00  0.00    +0.000 A 
ATOM     27 CL   UNL     1      -5.641  13.250  23.216  0.00  0.00    +0.000 Cl
ATOM     28  C   UNL     1      -3.105  12.344  23.045  0.00  0.00    +0.000 A 
ATOM     29  C   UNL     1      -1.916  12.073  22.362  0.00  0.00    +0.000 A 
ENDBRANCH  22  23
BRANCH  18  30
ATOM     30  C   UNL     1      -1.533  10.089  18.822  0.00  0.00    +0.000 C 
BRANCH  30  32
ATOM     31  C   UNL     1      -3.519  10.223  17.267  0.00  0.00    +0.000 C 
ATOM     32  C   UNL     1      -2.027  10.450  17.419  0.00  0.00    +0.000 C 
ENDBRANCH  30  32
ENDBRANCH  18  30
ENDBRANCH   1  19
TORSDOF 7
ENDMDL
MODEL 2
REMARK VINA RESULT:      -7.3      0.600      1.508
REMARK  Name = 
REMARK  8 active torsions:
REMARK  status: ('A' for Active; 'I' for Inactive)
REMARK    1  A    between atoms: C_1  and  C_2
REMARK    2  A    between atoms: C_2  and  C_3
REMARK    3  A    between atoms: C_3  and  C_4
REMARK    4  A    between atoms: C_5  and  N_6
REMARK    5  A    between atoms: N_9  and  C_10
REMARK    6  A    between atoms: C_13  and  O_14
REMARK    7  A    between atoms: O_14  and  C_15
REMARK    8  A    between atoms: N_23  and  C_24
REMARK                            x       y       z     vdW  Elec       q    Type
REMARK                         _______ _______ _______ _____ _____    ______ ____
ROOT
ATOM      1  N   UNL     1       1.394  10.171  18.134  0.00  0.00    +0.000 N 
ATOM      2  C   UNL     1       1.863   8.958  18.626  0.00  0.00    +0.000 C 
ATOM      3  O   UNL     1       1.682   8.594  19.786  0.00  0.00    +0.000 OA
ATOM      4  N   UNL     1       2.532   8.227  17.655  0.00  0.00    +0.000 N 
ATOM      5  H   UNL     1       1.088  10.153  17.174  0.00  0.00    +0.000 HD
ATOM      6  H   UNL     1       2.928   8.745  16.895  0.00  0.00    +0.000 HD
ENDROOT
BRANCH   4   7
ATOM      7  C   UNL     1       2.959   6.879  17.814  0.00  0.00    +0.000 A 
ATOM      8  C   UNL     1       2.146   5.876  18.351  0.00  0.00    +0.000 A 
ATOM      9  C   UNL     1       2.618   4.568  18.498  0.00  0.00    +0.000 A 
ATOM     10  C   UNL     1       3.904   4.229  18.088  0.00  0.00    +0.000 A 
ATOM     11  C   UNL     1       4.735   5.227  17.576  0.00  0.00    +0.000 A 
ATOM     12  C   UNL     1       4.253   6.536  17.413  0.00  0.00    +0.000 A 
BRANCH  10  13
ATOM     13  O   UNL     1       4.259   2.936  18.311  0.00  0.00    +0.000 OA
BRANCH  13  14
ATOM     14  C   UNL     1       3.261   1.924  18.311  0.00  0.00    +0.000 C 
ATOM     15  F   UNL     1       2.460   1.926  19.395  0.00  0.00    +0.000 F 
ATOM     16  F   UNL     1       2.491   2.071  17.209  0.00  0.00    +0.000 F 
ATOM     17  F   UNL     1       3.865   0.715  18.242  0.00  0.00    +0.000 F 
ENDBRANCH  13  14
ENDBRANCH  10  13
ENDBRANCH   4   7
BRANCH   1  19
ATOM     18  C   UNL     1      -0.663  11.032  19.230  0.00  0.00    +0.000 A 
ATOM     19  C   UNL     1       0.703  11.015  19.000  0.00  0.00    +0.000 A 
ATOM     20  C   UNL     1       1.226  12.033  19.817  0.00  0.00    +0.000 A 
ATOM     21  N   UNL     1       0.272  12.720  20.443  0.00  0.00    +0.000 NA
ATOM     22  N   UNL     1      -0.863  12.017  20.205  0.00  0.00    +0.000 N 
BRANCH  22  23
ATOM     23  C   UNL     1      -2.058  12.396  20.886  0.00  0.00    +0.000 A 
ATOM     24  C   UNL     1      -2.174  12.103  22.254  0.00  0.00    +0.000 A 
ATOM     25  C   UNL     1      -3.286  12.548  22.975  0.00  0.00    +0.000 A 
ATOM     26  C   UNL     1      -4.298  13.251  22.325  0.00  0.00    +0.000 A 
ATOM     27 CL   UNL     1      -5.662  13.807  23.214  0.00  0.00    +0.000 Cl
ATOM     28  C   UNL     1      -4.214  13.505  20.958  0.00  0.00    +0.000 A 
ATOM     29  C   UNL     1      -3.099  13.070  20.234  0.00  0.00    +0.000 A 
ENDBRANCH  22  23
BRANCH  18  30
ATOM     30  C   UNL     1      -1.748  10.196  18.620  0.00  0.00    +0.000 C 
BRANCH  30  32
ATOM     31  C   UNL     1      -2.670   9.819  16.299  0.00  0.00    +0.000 C 
ATOM     32  C   UNL     1      -2.348  10.844  17.370  0.00  0.00    +0.000 C 
ENDBRANCH  30  32
ENDBRANCH  18  30
ENDBRANCH   1  19
TORSDOF 7
ENDMDL
MODEL 3
REMARK VINA RESULT:      -7.2      2.112      2.736
REMARK  Name = 
REMARK  8 active torsions:
REMARK  status: ('A' for Active; 'I' for Inactive)
REMARK    1  A    between atoms: C_1  and  C_2
REMARK    2  A    between atoms: C_2  and  C_3
REMARK    3  A    between atoms: C_3  and  C_4
REMARK    4  A    between atoms: C_5  and  N_6
REMARK    5  A    between atoms: N_9  and  C_10
REMARK    6  A    between atoms: C_13  and  O_14
REMARK    7  A    between atoms: O_14  and  C_15
REMARK    8  A    between atoms: N_23  and  C_24
REMARK                            x       y       z     vdW  Elec       q    Type
REMARK                         _______ _______ _______ _____ _____    ______ ____
ROOT
ATOM      1  N   UNL     1       0.872  10.012  21.542  0.00  0.00    +0.000 N 
ATOM      2  C   UNL     1       0.679   8.698  21.130  0.00  0.00    +0.000 C 
ATOM      3  O   UNL     1      -0.434   8.188  21.026  0.00  0.00    +0.000 OA
ATOM      4  N   UNL     1       1.879   8.063  20.845  0.00  0.00    +0.000 N 
ATOM      5  H   UNL     1       1.638  10.492  21.097  0.00  0.00    +0.000 HD
ATOM      6  H   UNL     1       2.697   8.423  21.296  0.00  0.00    +0.000 HD
ENDROOT
BRANCH   4   7
ATOM      7  C   UNL     1       1.986   6.783  20.231  0.00  0.00    +0.000 A 
ATOM      8  C   UNL     1       1.616   5.595  20.868  0.00  0.00    +0.000 A 
ATOM      9  C   UNL     1       1.753   4.360  20.225  0.00  0.00    +0.000 A 
ATOM     10  C   UNL     1       2.240   4.290  18.923  0.00  0.00    +0.000 A 
ATOM     11  C   UNL     1       2.639   5.466  18.286  0.00  0.00    +0.000 A 
ATOM     12  C   UNL     1       2.485   6.707  18.927  0.00  0.00    +0.000 A 
BRANCH  10  13
ATOM     13  O   UNL     1       2.357   3.034  18.418  0.00  0.00    +0.000 OA
BRANCH  13  14
ATOM     14  C   UNL     1       3.640   2.429  18.327  0.00  0.00    +0.000 C 
ATOM     15  F   UNL     1       4.472   2.724  19.346  0.00  0.00    +0.000 F 
ATOM     16  F   UNL     1       3.487   1.087  18.272  0.00  0.00    +0.000 F 
ATOM     17  F   UNL     1       4.231   2.831  17.178  0.00  0.00    +0.000 F 
ENDBRANCH  13  14
ENDBRANCH  10  13
ENDBRANCH   4   7
BRANCH   1  19
ATOM     18  C   UNL     1      -0.896  11.688  21.051  0.00  0.00    +0.000 A 
ATOM     19  C   UNL     1      -0.247  10.776  21.867  0.00  0.00    +0.000 A 
ATOM     20  C   UNL     1      -0.956  10.801  23.082  0.00  0.00    +0.000 A 
ATOM     21  N   UNL     1      -1.915  11.725  23.089  0.00  0.00    +0.000 NA
ATOM     22  N   UNL     1      -1.977  12.159  21.805  0.00  0.00    +0.000 N 
BRANCH  22  23
ATOM     23  C   UNL     1      -3.034  13.041  21.432  0.00  0.00    +0.000 A 
ATOM     24  C   UNL     1      -2.844  14.423  21.590  0.00  0.00    +0.000 A 
ATOM     25  C   UNL     1      -3.818  15.321  21.141  0.00  0.00    +0.000 A 
ATOM     26  C   UNL     1      -4.994  14.840  20.570  0.00  0.00    +0.000 A 
ATOM     27 CL   UNL     1      -6.188  15.945  20.009  0.00  0.00    +0.000 Cl
ATOM     28  C   UNL     1      -5.211  13.469  20.452  0.00  0.00    +0.000 A 
ATOM     29  C   UNL     1      -4.237  12.567  20.891  0.00  0.00    +0.000 A 
ENDBRANCH  22  23
BRANCH  18  30
ATOM     30  C   UNL     1      -0.579  12.114  19.649  0.00  0.00    +0.000 C 
BRANCH  30  32
ATOM     31  C   UNL     1      -2.303  11.602  17.875  0.00  0.00    +0.000 C 
ATOM     32  C   UNL     1      -1.071  11.105  18.609  0.00  0.00    +0.000 C 
ENDBRANCH  30  32
ENDBRANCH  18  30
ENDBRANCH   1  19
TORSDOF 7
ENDMDL
MODEL 4
REMARK VINA RESULT:      -7.2      0.694      1.304
REMARK  Name = 
REMARK  8 active torsions:
REMARK  status: ('A' for Active; 'I' for Inactive)
REMARK    1  A    between atoms: C_1  and  C_2
REMARK    2  A    between atoms: C_2  and  C_3
REMARK    3  A    between atoms: C_3  and  C_4
REMARK    4  A    between atoms: C_5  and  N_6
REMARK    5  A    between atoms: N_9  and  C_10
REMARK    6  A    between atoms: C_13  and  O_14
REMARK    7  A    between atoms: O_14  and  C_15
REMARK    8  A    between atoms: N_23  and  C_24
REMARK                            x       y       z     vdW  Elec       q    Type
REMARK                         _______ _______ _______ _____ _____    ______ ____
ROOT
ATOM      1  N   UNL     1       1.380  10.211  18.191  0.00  0.00    +0.000 N 
ATOM      2  C   UNL     1       1.826   9.011  18.732  0.00  0.00    +0.000 C 
ATOM      3  O   UNL     1       1.569   8.662  19.882  0.00  0.00    +0.000 OA
ATOM      4  N   UNL     1       2.568   8.274  17.820  0.00  0.00    +0.000 N 
ATOM      5  H   UNL     1       1.141  10.177  17.212  0.00  0.00    +0.000 HD
ATOM      6  H   UNL     1       3.010   8.787  17.082  0.00  0.00    +0.000 HD
ENDROOT
BRANCH   4   7
ATOM      7  C   UNL     1       2.997   6.934  18.027  0.00  0.00    +0.000 A 
ATOM      8  C   UNL     1       3.994   6.321  17.262  0.00  0.00    +0.000 A 
ATOM      9  C   UNL     1       4.371   4.995  17.498  0.00  0.00    +0.000 A 
ATOM     10  C   UNL     1       3.776   4.261  18.521  0.00  0.00    +0.000 A 
ATOM     11  C   UNL     1       2.760   4.852  19.274  0.00  0.00    +0.000 A 
ATOM     12  C   UNL     1       2.395   6.190  19.046  0.00  0.00    +0.000 A 
BRANCH  10  13
ATOM     13  O   UNL     1       4.203   2.976  18.632  0.00  0.00    +0.000 OA
BRANCH  13  14
ATOM     14  C   UNL     1       3.295   1.910  18.388  0.00  0.00    +0.000 C 
ATOM     15  F   UNL     1       3.879   0.719  18.150  0.00  0.00    +0.000 F 
ATOM     16  F   UNL     1       2.478   1.781  19.458  0.00  0.00    +0.000 F 
ATOM     17  F   UNL     1       2.533   2.223  17.314  0.00  0.00    +0.000 F 
ENDBRANCH  13  14
ENDBRANCH  10  13
ENDBRANCH   4   7
BRANCH   1  19
ATOM     18  C   UNL     1      -0.743  10.989  19.222  0.00  0.00    +0.000 A 
ATOM     19  C   UNL     1       0.621  11.060  18.994  0.00  0.00    +0.000 A 
ATOM     20  C   UNL     1       1.061  12.170  19.738  0.00  0.00    +0.000 A 
ATOM     21  N   UNL     1       0.054  12.824  20.313  0.00  0.00    +0.000 NA
ATOM     22  N   UNL     1      -1.024  12.022  20.125  0.00  0.00    +0.000 N 
BRANCH  22  23
ATOM     23  C   UNL     1      -2.248  12.355  20.777  0.00  0.00    +0.000 A 
ATOM     24  C   UNL     1      -2.319  12.239  22.174  0.00  0.00    +0.000 A 
ATOM     25  C   UNL     1      -3.468  12.652  22.855  0.00  0.00    +0.000 A 
ATOM     26  C   UNL     1      -4.557  13.146  22.141  0.00  0.00    +0.000 A 
ATOM     27 CL   UNL     1      -5.968  13.664  22.980  0.00  0.00    +0.000 Cl
ATOM     28  C   UNL     1      -4.513  13.221  20.750  0.00  0.00    +0.000 A 
ATOM     29  C   UNL     1      -3.363  12.818  20.065  0.00  0.00    +0.000 A 
ENDBRANCH  22  23
BRANCH  18  30
ATOM     30  C   UNL     1      -1.758  10.032  18.672  0.00  0.00    +0.000 C 
BRANCH  30  32
ATOM     31  C   UNL     1      -3.622  10.376  17.003  0.00  0.00    +0.000 C 
ATOM     32  C   UNL     1      -2.121  10.341  17.218  0.00  0.00    +0.000 C 
ENDBRANCH  30  32
ENDBRANCH  18  30
ENDBRANCH   1  19
TORSDOF 7
ENDMDL
MODEL 5
REMARK VINA RESULT:      -7.1      2.137      2.711
REMARK  Name = 
REMARK  8 active torsions:
REMARK  status: ('A' for Active; 'I' for Inactive)
REMARK    1  A    between atoms: C_1  and  C_2
REMARK    2  A    between atoms: C_2  and  C_3
REMARK    3  A    between atoms: C_3  and  C_4
REMARK    4  A    between atoms: C_5  and  N_6
REMARK    5  A    between atoms: N_9  and  C_10
REMARK    6  A    between atoms: C_13  and  O_14
REMARK    7  A    between atoms: O_14  and  C_15
REMARK    8  A    between atoms: N_23  and  C_24
REMARK                            x       y       z     vdW  Elec       q    Type
REMARK                         _______ _______ _______ _____ _____    ______ ____
ROOT
ATOM      1  N   UNL     1       0.832  10.036  21.713  0.00  0.00    +0.000 N 
ATOM      2  C   UNL     1       0.657   8.787  21.128  0.00  0.00    +0.000 C 
ATOM      3  O   UNL     1      -0.446   8.349  20.808  0.00  0.00    +0.000 OA
ATOM      4  N   UNL     1       1.863   8.126  20.944  0.00  0.00    +0.000 N 
ATOM      5  H   UNL     1       1.671  10.523  21.440  0.00  0.00    +0.000 HD
ATOM      6  H   UNL     1       2.618   8.393  21.545  0.00  0.00    +0.000 HD
ENDROOT
BRANCH   4   7
ATOM      7  C   UNL     1       2.014   6.918  20.207  0.00  0.00    +0.000 A 
ATOM      8  C   UNL     1       2.505   6.875  18.898  0.00  0.00    +0.000 A 
ATOM      9  C   UNL     1       2.623   5.662  18.213  0.00  0.00    +0.000 A 
ATOM     10  C   UNL     1       2.275   4.463  18.829  0.00  0.00    +0.000 A 
ATOM     11  C   UNL     1       1.758   4.495  20.125  0.00  0.00    +0.000 A 
ATOM     12  C   UNL     1       1.657   5.713  20.818  0.00  0.00    +0.000 A 
BRANCH  10  13
ATOM     13  O   UNL     1       2.404   3.357  18.052  0.00  0.00    +0.000 OA
BRANCH  13  14
ATOM     14  C   UNL     1       3.682   2.757  17.888  0.00  0.00    +0.000 C 
ATOM     15  F   UNL     1       4.391   3.224  16.841  0.00  0.00    +0.000 F 
ATOM     16  F   UNL     1       4.404   2.953  19.015  0.00  0.00    +0.000 F 
ATOM     17  F   UNL     1       3.521   1.424  17.720  0.00  0.00    +0.000 F 
ENDBRANCH  13  14
ENDBRANCH  10  13
ENDBRANCH   4   7
BRANCH   1  19
ATOM     18  C   UNL     1      -0.873  11.738  21.105  0.00  0.00    +0.000 A 
ATOM     19  C   UNL     1      -0.295  10.816  21.961  0.00  0.00    +0.000 A 
ATOM     20  C   UNL     1      -1.085  10.850  23.125  0.00  0.00    +0.000 A 
ATOM     21  N   UNL     1      -2.029  11.787  23.069  0.00  0.00    +0.000 NA
ATOM     22  N   UNL     1      -1.997  12.224  21.784  0.00  0.00    +0.000 N 
BRANCH  22  23
ATOM     23  C   UNL     1      -3.013  13.122  21.341  0.00  0.00    +0.000 A 
ATOM     24  C   UNL     1      -4.116  12.600  20.648  0.00  0.00    +0.000 A 
ATOM     25  C   UNL     1      -5.178  13.436  20.288  0.00  0.00    +0.000 A 
ATOM     26  C   UNL     1      -5.122  14.796  20.586  0.00  0.00    +0.000 A 
ATOM     27 CL   UNL     1      -6.432  15.823  20.151  0.00  0.00    +0.000 Cl
ATOM     28  C   UNL     1      -4.009  15.331  21.232  0.00  0.00    +0.000 A 
ATOM     29  C   UNL     1      -2.949  14.497  21.602  0.00  0.00    +0.000 A 
ENDBRANCH  22  23
BRANCH  18  30
ATOM     30  C   UNL     1      -0.454  12.161  19.729  0.00  0.00    +0.000 C 
BRANCH  30  32
ATOM     31  C   UNL     1      -1.933  11.727  17.727  0.00  0.00    +0.000 C 
ATOM     32  C   UNL     1      -0.879  11.155  18.657  0.00  0.00    +0.000 C 
ENDBRANCH  30  32
ENDBRANCH  18  30
ENDBRANCH   1  19
TORSDOF 7
ENDMDL
MODEL 6
REMARK VINA RESULT:      -7.1      0.758      1.278
REMARK  Name = 
REMARK  8 active torsions:
REMARK  status: ('A' for Active; 'I' for Inactive)
REMARK    1  A    between atoms: C_1  and  C_2
REMARK    2  A    between atoms: C_2  and  C_3
REMARK    3  A    between atoms: C_3  and  C_4
REMARK    4  A    between atoms: C_5  and  N_6
REMARK    5  A    between atoms: N_9  and  C_10
REMARK    6  A    between atoms: C_13  and  O_14
REMARK    7  A    between atoms: O_14  and  C_15
REMARK    8  A    between atoms: N_23  and  C_24
REMARK                            x       y       z     vdW  Elec       q    Type
REMARK                         _______ _______ _______ _____ _____    ______ ____
ROOT
ATOM      1  N   UNL     1       1.450  10.228  18.186  0.00  0.00    +0.000 N 
ATOM      2  C   UNL     1       1.898   9.038  18.749  0.00  0.00    +0.000 C 
ATOM      3  O   UNL     1       1.756   8.768  19.939  0.00  0.00    +0.000 OA
ATOM      4  N   UNL     1       2.498   8.213  17.808  0.00  0.00    +0.000 N 
ATOM      5  H   UNL     1       1.102  10.151  17.243  0.00  0.00    +0.000 HD
ATOM      6  H   UNL     1       2.878   8.659  16.996  0.00  0.00    +0.000 HD
ENDROOT
BRANCH   4   7
ATOM      7  C   UNL     1       2.885   6.865  18.050  0.00  0.00    +0.000 A 
ATOM      8  C   UNL     1       2.218   6.026  18.947  0.00  0.00    +0.000 A 
ATOM      9  C   UNL     1       2.646   4.712  19.159  0.00  0.00    +0.000 A 
ATOM     10  C   UNL     1       3.737   4.201  18.460  0.00  0.00    +0.000 A 
ATOM     11  C   UNL     1       4.429   5.037  17.583  0.00  0.00    +0.000 A 
ATOM     12  C   UNL     1       3.987   6.352  17.359  0.00  0.00    +0.000 A 
BRANCH  10  13
ATOM     13  O   UNL     1       4.076   2.923  18.774  0.00  0.00    +0.000 OA
BRANCH  13  14
ATOM     14  C   UNL     1       3.253   1.850  18.338  0.00  0.00    +0.000 C 
ATOM     15  F   UNL     1       3.914   0.703  18.086  0.00  0.00    +0.000 F 
ATOM     16  F   UNL     1       2.316   1.607  19.282  0.00  0.00    +0.000 F 
ATOM     17  F   UNL     1       2.617   2.221  17.203  0.00  0.00    +0.000 F 
ENDBRANCH  13  14
ENDBRANCH  10  13
ENDBRANCH   4   7
BRANCH   1  19
ATOM     18  C   UNL     1      -0.520  11.220  19.329  0.00  0.00    +0.000 A 
ATOM     19  C   UNL     1       0.826  11.159  19.014  0.00  0.00    +0.000 A 
ATOM     20  C   UNL     1       1.414  12.238  19.699  0.00  0.00    +0.000 A 
ATOM     21  N   UNL     1       0.511  12.995  20.319  0.00  0.00    +0.000 NA
ATOM     22  N   UNL     1      -0.646  12.293  20.220  0.00  0.00    +0.000 N 
BRANCH  22  23
ATOM     23  C   UNL     1      -1.789  12.752  20.940  0.00  0.00    +0.000 A 
ATOM     24  C   UNL     1      -2.562  13.784  20.387  0.00  0.00    +0.000 A 
ATOM     25  C   UNL     1      -3.744  14.190  21.014  0.00  0.00    +0.000 A 
ATOM     26  C   UNL     1      -4.135  13.591  22.210  0.00  0.00    +0.000 A 
ATOM     27 CL   UNL     1      -5.593  14.083  22.978  0.00  0.00    +0.000 Cl
ATOM     28  C   UNL     1      -3.348  12.598  22.791  0.00  0.00    +0.000 A 
ATOM     29  C   UNL     1      -2.170  12.183  22.163  0.00  0.00    +0.000 A 
ENDBRANCH  22  23
BRANCH  18  30
ATOM     30  C   UNL     1      -1.652  10.351  18.870  0.00  0.00    +0.000 C 
BRANCH  30  32
ATOM     31  C   UNL     1      -2.438   9.908  16.510  0.00  0.00    +0.000 C 
ATOM     32  C   UNL     1      -2.360  10.920  17.637  0.00  0.00    +0.000 C 
ENDBRANCH  30  32
ENDBRANCH  18  30
ENDBRANCH   1  19
TORSDOF 7
ENDMDL
MODEL 7
REMARK VINA RESULT:      -7.1      1.817      2.241
REMARK  Name = 
REMARK  8 active torsions:
REMARK  status: ('A' for Active; 'I' for Inactive)
REMARK    1  A    between atoms: C_1  and  C_2
REMARK    2  A    between atoms: C_2  and  C_3
REMARK    3  A    between atoms: C_3  and  C_4
REMARK    4  A    between atoms: C_5  and  N_6
REMARK    5  A    between atoms: N_9  and  C_10
REMARK    6  A    between atoms: C_13  and  O_14
REMARK    7  A    between atoms: O_14  and  C_15
REMARK    8  A    between atoms: N_23  and  C_24
REMARK                            x       y       z     vdW  Elec       q    Type
REMARK                         _______ _______ _______ _____ _____    ______ ____
ROOT
ATOM      1  N   UNL     1       0.912   9.707  20.117  0.00  0.00    +0.000 N 
ATOM      2  C   UNL     1       1.459   8.434  20.229  0.00  0.00    +0.000 C 
ATOM      3  O   UNL     1       1.382   7.762  21.256  0.00  0.00    +0.000 OA
ATOM      4  N   UNL     1       2.073   8.028  19.053  0.00  0.00    +0.000 N 
ATOM      5  H   UNL     1       0.532   9.932  19.211  0.00  0.00    +0.000 HD
ATOM      6  H   UNL     1       2.390   8.752  18.438  0.00  0.00    +0.000 HD
ENDROOT
BRANCH   4   7
ATOM      7  C   UNL     1       2.557   6.712  18.810  0.00  0.00    +0.000 A 
ATOM      8  C   UNL     1       3.785   6.246  19.290  0.00  0.00    +0.000 A 
ATOM      9  C   UNL     1       4.221   4.947  19.012  0.00  0.00    +0.000 A 
ATOM     10  C   UNL     1       3.427   4.077  18.270  0.00  0.00    +0.000 A 
ATOM     11  C   UNL     1       2.211   4.538  17.763  0.00  0.00    +0.000 A 
ATOM     12  C   UNL     1       1.768   5.838  18.057  0.00  0.00    +0.000 A 
BRANCH  10  13
ATOM     13  O   UNL     1       3.971   2.853  18.040  0.00  0.00    +0.000 OA
BRANCH  13  14
ATOM     14  C   UNL     1       3.727   1.792  18.954  0.00  0.00    +0.000 C 
ATOM     15  F   UNL     1       2.506   1.815  19.526  0.00  0.00    +0.000 F 
ATOM     16  F   UNL     1       3.874   0.615  18.306  0.00  0.00    +0.000 F 
ATOM     17  F   UNL     1       4.650   1.845  19.942  0.00  0.00    +0.000 F 
ENDBRANCH  13  14
ENDBRANCH  10  13
ENDBRANCH   4   7
BRANCH   1  19
ATOM     18  C   UNL     1      -0.371  11.478  21.297  0.00  0.00    +0.000 A 
ATOM     19  C   UNL     1       0.263  10.249  21.224  0.00  0.00    +0.000 A 
ATOM     20  C   UNL     1       0.113   9.683  22.503  0.00  0.00    +0.000 A 
ATOM     21  N   UNL     1      -0.473  10.516  23.360  0.00  0.00    +0.000 NA
ATOM     22  N   UNL     1      -0.903  11.547  22.590  0.00  0.00    +0.000 N 
BRANCH  22  23
ATOM     23  C   UNL     1      -1.734  12.544  23.182  0.00  0.00    +0.000 A 
ATOM     24  C   UNL     1      -1.173  13.796  23.482  0.00  0.00    +0.000 A 
ATOM     25  C   UNL     1      -1.980  14.828  23.969  0.00  0.00    +0.000 A 
ATOM     26  C   UNL     1      -3.337  14.601  24.192  0.00  0.00    +0.000 A 
ATOM     27 CL   UNL     1      -4.333  15.874  24.782  0.00  0.00    +0.000 Cl
ATOM     28  C   UNL     1      -3.892  13.348  23.941  0.00  0.00    +0.000 A 
ATOM     29  C   UNL     1      -3.091  12.315  23.446  0.00  0.00    +0.000 A 
ENDBRANCH  22  23
BRANCH  18  30
ATOM     30  C   UNL     1      -0.514  12.545  20.253  0.00  0.00    +0.000 C 
BRANCH  30  32
ATOM     31  C   UNL     1      -1.793  11.643  18.271  0.00  0.00    +0.000 C 
ATOM     32  C   UNL     1      -1.863  12.479  19.535  0.00  0.00    +0.000 C 
ENDBRANCH  30  32
ENDBRANCH  18  30
ENDBRANCH   1  19
TORSDOF 7
ENDMDL
MODEL 8
REMARK VINA RESULT:      -7.1      1.655      2.186
REMARK  Name = 
REMARK  8 active torsions:
REMARK  status: ('A' for Active; 'I' for Inactive)
REMARK    1  A    between atoms: C_1  and  C_2
REMARK    2  A    between atoms: C_2  and  C_3
REMARK    3  A    between atoms: C_3  and  C_4
REMARK    4  A    between atoms: C_5  and  N_6
REMARK    5  A    between atoms: N_9  and  C_10
REMARK    6  A    between atoms: C_13  and  O_14
REMARK    7  A    between atoms: O_14  and  C_15
REMARK    8  A    between atoms: N_23  and  C_24
REMARK                            x       y       z     vdW  Elec       q    Type
REMARK                         _______ _______ _______ _____ _____    ______ ____
ROOT
ATOM      1  N   UNL     1       1.153   9.599  19.651  0.00  0.00    +0.000 N 
ATOM      2  C   UNL     1       1.640   8.301  19.752  0.00  0.00    +0.000 C 
ATOM      3  O   UNL     1       1.577   7.644  20.789  0.00  0.00    +0.000 OA
ATOM      4  N   UNL     1       2.178   7.854  18.554  0.00  0.00    +0.000 N 
ATOM      5  H   UNL     1       0.743   9.835  18.761  0.00  0.00    +0.000 HD
ATOM      6  H   UNL     1       2.502   8.556  17.917  0.00  0.00    +0.000 HD
ENDROOT
BRANCH   4   7
ATOM      7  C   UNL     1       2.584   6.514  18.304  0.00  0.00    +0.000 A 
ATOM      8  C   UNL     1       1.687   5.488  17.991  0.00  0.00    +0.000 A 
ATOM      9  C   UNL     1       2.136   4.182  17.766  0.00  0.00    +0.000 A 
ATOM     10  C   UNL     1       3.493   3.880  17.826  0.00  0.00    +0.000 A 
ATOM     11  C   UNL     1       4.396   4.889  18.165  0.00  0.00    +0.000 A 
ATOM     12  C   UNL     1       3.945   6.203  18.373  0.00  0.00    +0.000 A 
BRANCH  10  13
ATOM     13  O   UNL     1       3.802   2.573  17.621  0.00  0.00    +0.000 OA
BRANCH  13  14
ATOM     14  C   UNL     1       3.592   1.629  18.663  0.00  0.00    +0.000 C 
ATOM     15  F   UNL     1       2.300   1.451  19.006  0.00  0.00    +0.000 F 
ATOM     16  F   UNL     1       4.102   0.437  18.282  0.00  0.00    +0.000 F 
ATOM     17  F   UNL     1       4.262   2.038  19.765  0.00  0.00    +0.000 F 
ENDBRANCH  13  14
ENDBRANCH  10  13
ENDBRANCH   4   7
BRANCH   1  19
ATOM     18  C   UNL     1      -0.095  11.389  20.840  0.00  0.00    +0.000 A 
ATOM     19  C   UNL     1       0.583  10.183  20.781  0.00  0.00    +0.000 A 
ATOM     20  C   UNL     1       0.576   9.692  22.099  0.00  0.00    +0.000 A 
ATOM     21  N   UNL     1       0.033  10.553  22.957  0.00  0.00    +0.000 NA
ATOM     22  N   UNL     1      -0.510  11.517  22.172  0.00  0.00    +0.000 N 
BRANCH  22  23
ATOM     23  C   UNL     1      -1.327  12.516  22.780  0.00  0.00    +0.000 A 
ATOM     24  C   UNL     1      -2.636  12.177  23.157  0.00  0.00    +0.000 A 
ATOM     25  C   UNL     1      -3.429  13.099  23.845  0.00  0.00    +0.000 A 
ATOM     26  C   UNL     1      -2.931  14.370  24.125  0.00  0.00    +0.000 A 
ATOM     27 CL   UNL     1      -3.904  15.502  24.981  0.00  0.00    +0.000 Cl
ATOM     28  C   UNL     1      -1.650  14.731  23.713  0.00  0.00    +0.000 A 
ATOM     29  C   UNL     1      -0.849  13.809  23.032  0.00  0.00    +0.000 A 
ENDBRANCH  22  23
BRANCH  18  30
ATOM     30  C   UNL     1      -0.379  12.384  19.755  0.00  0.00    +0.000 C 
BRANCH  30  32
ATOM     31  C   UNL     1      -2.876  12.217  19.409  0.00  0.00    +0.000 C 
ATOM     32  C   UNL     1      -1.506  11.925  18.826  0.00  0.00    +0.000 C 
ENDBRANCH  30  32
ENDBRANCH  18  30
ENDBRANCH   1  19
TORSDOF 7
ENDMDL
MODEL 9
REMARK VINA RESULT:      -7.1      2.926      3.569
REMARK  Name = 
REMARK  8 active torsions:
REMARK  status: ('A' for Active; 'I' for Inactive)
REMARK    1  A    between atoms: C_1  and  C_2
REMARK    2  A    between atoms: C_2  and  C_3
REMARK    3  A    between atoms: C_3  and  C_4
REMARK    4  A    between atoms: C_5  and  N_6
REMARK    5  A    between atoms: N_9  and  C_10
REMARK    6  A    between atoms: C_13  and  O_14
REMARK    7  A    between atoms: O_14  and  C_15
REMARK    8  A    between atoms: N_23  and  C_24
REMARK                            x       y       z     vdW  Elec       q    Type
REMARK                         _______ _______ _______ _____ _____    ______ ____
ROOT
ATOM      1  N   UNL     1       1.942   8.363  19.564  0.00  0.00    +0.000 N 
ATOM      2  C   UNL     1       2.502   7.763  18.442  0.00  0.00    +0.000 C 
ATOM      3  O   UNL     1       2.401   8.236  17.312  0.00  0.00    +0.000 OA
ATOM      4  N   UNL     1       3.183   6.597  18.762  0.00  0.00    +0.000 N 
ATOM      5  H   UNL     1       2.482   8.276  20.411  0.00  0.00    +0.000 HD
ATOM      6  H   UNL     1       2.902   6.129  19.602  0.00  0.00    +0.000 HD
ENDROOT
BRANCH   4   7
ATOM      7  C   UNL     1       4.005   5.871  17.856  0.00  0.00    +0.000 A 
ATOM      8  C   UNL     1       5.176   6.392  17.297  0.00  0.00    +0.000 A 
ATOM      9  C   UNL     1       5.942   5.641  16.400  0.00  0.00    +0.000 A 
ATOM     10  C   UNL     1       5.568   4.343  16.063  0.00  0.00    +0.000 A 
ATOM     11  C   UNL     1       4.387   3.821  16.593  0.00  0.00    +0.000 A 
ATOM     12  C   UNL     1       3.628   4.571  17.507  0.00  0.00    +0.000 A 
BRANCH  10  13
ATOM     13  O   UNL     1       6.374   3.727  15.159  0.00  0.00    +0.000 OA
BRANCH  13  14
ATOM     14  C   UNL     1       6.242   4.032  13.777  0.00  0.00    +0.000 C 
ATOM     15  F   UNL     1       6.548   3.015  12.947  0.00  0.00    +0.000 F 
ATOM     16  F   UNL     1       4.969   4.415  13.534  0.00  0.00    +0.000 F 
ATOM     17  F   UNL     1       7.057   5.071  13.479  0.00  0.00    +0.000 F 
ENDBRANCH  13  14
ENDBRANCH  10  13
ENDBRANCH   4   7
BRANCH   1  19
ATOM     18  C   UNL     1       0.087   9.932  20.085  0.00  0.00    +0.000 A 
ATOM     19  C   UNL     1       1.223   9.545  19.395  0.00  0.00    +0.000 A 
ATOM     20  C   UNL     1       1.480  10.593  18.492  0.00  0.00    +0.000 A 
ATOM     21  N   UNL     1       0.533  11.528  18.521  0.00  0.00    +0.000 NA
ATOM     22  N   UNL     1      -0.232  11.203  19.593  0.00  0.00    +0.000 N 
BRANCH  22  23
ATOM     23  C   UNL     1      -1.248  12.114  20.010  0.00  0.00    +0.000 A 
ATOM     24  C   UNL     1      -2.562  11.908  19.561  0.00  0.00    +0.000 A 
ATOM     25  C   UNL     1      -3.599  12.720  20.029  0.00  0.00    +0.000 A 
ATOM     26  C   UNL     1      -3.321  13.759  20.915  0.00  0.00    +0.000 A 
ATOM     27 CL   UNL     1      -4.598  14.752  21.499  0.00  0.00    +0.000 Cl
ATOM     28  C   UNL     1      -2.013  14.000  21.329  0.00  0.00    +0.000 A 
ATOM     29  C   UNL     1      -0.973  13.185  20.870  0.00  0.00    +0.000 A 
ENDBRANCH  22  23
BRANCH  18  30
ATOM     30  C   UNL     1      -0.679   9.209  21.152  0.00  0.00    +0.000 C 
BRANCH  30  32
ATOM     31  C   UNL     1      -1.040  10.550  23.263  0.00  0.00    +0.000 C 
ATOM     32  C   UNL     1      -0.164   9.532  22.557  0.00  0.00    +0.000 C 
ENDBRANCH  30  32
ENDBRANCH  18  30
ENDBRANCH   1  19
TORSDOF 7
ENDMDL
