MODEL 1
REMARK VINA RESULT:      -8.3      0.000      0.000
REMARK  Name = 
REMARK  5 active torsions:
REMARK  status: ('A' for Active; 'I' for Inactive)
REMARK    1  A    between atoms: C_1  and  C_2
REMARK    2  A    between atoms: C_4  and  C_5
REMARK    3  A    between atoms: C_6  and  C_7
REMARK    4  A    between atoms: N_8  and  N_9
REMARK    5  A    between atoms: C_25  and  C_26
REMARK                            x       y       z     vdW  Elec       q    Type
REMARK                         _______ _______ _______ _____ _____    ______ ____
ROOT
ATOM      1  N   UNL     1       1.136   9.424  19.567  0.00  0.00    +0.000 N 
ATOM      2  C   UNL     1       0.984   8.531  20.660  0.00  0.00    +0.000 A 
ATOM      3  O   UNL     1       0.262   8.713  21.644  0.00  0.00    +0.000 OA
ATOM      4  N   UNL     1       1.694   7.358  20.615  0.00  0.00    +0.000 N 
ATOM      5  C   UNL     1       2.429   6.998  19.526  0.00  0.00    +0.000 A 
ATOM      6  C   UNL     1       2.505   7.833  18.449  0.00  0.00    +0.000 A 
ATOM      7  N   UNL     1       3.295   7.222  17.511  0.00  0.00    +0.000 N 
ATOM      8  C   UNL     1       3.702   5.986  17.981  0.00  0.00    +0.000 A 
ATOM      9  C   UNL     1       4.493   5.000  17.380  0.00  0.00    +0.000 A 
ATOM     10  C   UNL     1       4.724   3.822  18.101  0.00  0.00    +0.000 A 
ATOM     11  C   UNL     1       4.188   3.647  19.376  0.00  0.00    +0.000 A 
ATOM     12 BR   UNL     1       4.503   2.034  20.313  0.00  0.00    +0.000 Br
ATOM     13  C   UNL     1       3.411   4.638  19.973  0.00  0.00    +0.000 A 
ATOM     14  C   UNL     1       3.163   5.825  19.261  0.00  0.00    +0.000 A 
ATOM     15  C   UNL     1       1.849   9.107  18.378  0.00  0.00    +0.000 A 
ATOM     16  O   UNL     1       1.936   9.821  17.384  0.00  0.00    +0.000 OA
ATOM     17  H   UNL     1       1.601   6.733  21.405  0.00  0.00    +0.000 HD
ATOM     18  H   UNL     1       3.529   7.617  16.607  0.00  0.00    +0.000 HD
ENDROOT
BRANCH   1  20
ATOM     19  C   UNL     1      -0.666  10.674  18.897  0.00  0.00    +0.000 C 
ATOM     20  N   UNL     1       0.451  10.642  19.552  0.00  0.00    +0.000 NA
BRANCH  19  26
ATOM     21  C   UNL     1      -5.082  12.836  21.286  0.00  0.00    +0.000 C 
ATOM     22  C   UNL     1      -3.886  12.549  20.419  0.00  0.00    +0.000 C 
ATOM     23  C   UNL     1      -4.029  12.075  19.177  0.00  0.00    +0.000 C 
ATOM     24  C   UNL     1      -2.910  11.705  18.252  0.00  0.00    +0.000 C 
ATOM     25  C   UNL     1      -3.181  10.286  17.727  0.00  0.00    +0.000 C 
ATOM     26  C   UNL     1      -1.473  11.947  18.790  0.00  0.00    +0.000 C 
ATOM     27  C   UNL     1      -1.304  12.645  20.166  0.00  0.00    +0.000 C 
ATOM     28  C   UNL     1      -0.565  13.978  19.997  0.00  0.00    +0.000 C 
ATOM     29  C   UNL     1      -2.554  12.807  21.047  0.00  0.00    +0.000 C 
ENDBRANCH  19  26
ENDBRANCH   1  20
TORSDOF 2
ENDMDL
MODEL 2
REMARK VINA RESULT:      -8.2      1.319      1.713
REMARK  Name = 
REMARK  5 active torsions:
REMARK  status: ('A' for Active; 'I' for Inactive)
REMARK    1  A    between atoms: C_1  and  C_2
REMARK    2  A    between atoms: C_4  and  C_5
REMARK    3  A    between atoms: C_6  and  C_7
REMARK    4  A    between atoms: N_8  and  N_9
REMARK    5  A    between atoms: C_25  and  C_26
REMARK                            x       y       z     vdW  Elec       q    Type
REMARK                         _______ _______ _______ _____ _____    ______ ____
ROOT
ATOM      1  N   UNL     1       0.906  10.050  20.736  0.00  0.00    +0.000 N 
ATOM      2  C   UNL     1       0.990   9.076  21.764  0.00  0.00    +0.000 A 
ATOM      3  O   UNL     1       0.563   9.204  22.915  0.00  0.00    +0.000 OA
ATOM      4  N   UNL     1       1.589   7.882  21.450  0.00  0.00    +0.000 N 
ATOM      5  C   UNL     1       1.989   7.585  20.183  0.00  0.00    +0.000 A 
ATOM      6  C   UNL     1       1.834   8.504  19.186  0.00  0.00    +0.000 A 
ATOM      7  N   UNL     1       2.311   7.943  18.031  0.00  0.00    +0.000 N 
ATOM      8  C   UNL     1       2.750   6.655  18.288  0.00  0.00    +0.000 A 
ATOM      9  C   UNL     1       3.294   5.692  17.431  0.00  0.00    +0.000 A 
ATOM     10  C   UNL     1       3.631   4.449  17.980  0.00  0.00    +0.000 A 
ATOM     11  C   UNL     1       3.437   4.189  19.336  0.00  0.00    +0.000 A 
ATOM     12 BR   UNL     1       3.885   2.491  20.039  0.00  0.00    +0.000 Br
ATOM     13  C   UNL     1       2.906   5.157  20.186  0.00  0.00    +0.000 A 
ATOM     14  C   UNL     1       2.555   6.409  19.651  0.00  0.00    +0.000 A 
ATOM     15  C   UNL     1       1.262   9.806  19.381  0.00  0.00    +0.000 A 
ATOM     16  O   UNL     1       1.131  10.596  18.452  0.00  0.00    +0.000 OA
ATOM     17  H   UNL     1       1.667   7.198  22.191  0.00  0.00    +0.000 HD
ATOM     18  H   UNL     1       2.326   8.402  17.128  0.00  0.00    +0.000 HD
ENDROOT
BRANCH   1  20
ATOM     19  C   UNL     1      -0.976  11.338  20.976  0.00  0.00    +0.000 C 
ATOM     20  N   UNL     1       0.318  11.292  20.989  0.00  0.00    +0.000 NA
BRANCH  19  26
ATOM     21  C   UNL     1      -6.004  12.877  22.470  0.00  0.00    +0.000 C 
ATOM     22  C   UNL     1      -4.569  12.820  22.022  0.00  0.00    +0.000 C 
ATOM     23  C   UNL     1      -4.239  12.965  20.735  0.00  0.00    +0.000 C 
ATOM     24  C   UNL     1      -2.852  12.873  20.176  0.00  0.00    +0.000 C 
ATOM     25  C   UNL     1      -2.883  11.884  18.998  0.00  0.00    +0.000 C 
ATOM     26  C   UNL     1      -1.716  12.635  21.207  0.00  0.00    +0.000 C 
ATOM     27  C   UNL     1      -2.075  12.627  22.717  0.00  0.00    +0.000 C 
ATOM     28  C   UNL     1      -1.354  13.772  23.440  0.00  0.00    +0.000 C 
ATOM     29  C   UNL     1      -3.563  12.574  23.101  0.00  0.00    +0.000 C 
ENDBRANCH  19  26
ENDBRANCH   1  20
TORSDOF 2
ENDMDL
MODEL 3
REMARK VINA RESULT:      -8.0      1.494      2.628
REMARK  Name = 
REMARK  5 active torsions:
REMARK  status: ('A' for Active; 'I' for Inactive)
REMARK    1  A    between atoms: C_1  and  C_2
REMARK    2  A    between atoms: C_4  and  C_5
REMARK    3  A    between atoms: C_6  and  C_7
REMARK    4  A    between atoms: N_8  and  N_9
REMARK    5  A    between atoms: C_25  and  C_26
REMARK                            x       y       z     vdW  Elec       q    Type
REMARK                         _______ _______ _______ _____ _____    ______ ____
ROOT
ATOM      1  N   UNL     1       0.919  10.163  20.080  0.00  0.00    +0.000 N 
ATOM      2  C   UNL     1       1.559  10.190  18.813  0.00  0.00    +0.000 A 
ATOM      3  O   UNL     1       1.683  11.181  18.089  0.00  0.00    +0.000 OA
ATOM      4  N   UNL     1       2.095   9.012  18.355  0.00  0.00    +0.000 N 
ATOM      5  C   UNL     1       2.122   7.885  19.120  0.00  0.00    +0.000 A 
ATOM      6  C   UNL     1       1.570   7.894  20.368  0.00  0.00    +0.000 A 
ATOM      7  N   UNL     1       1.743   6.645  20.903  0.00  0.00    +0.000 N 
ATOM      8  C   UNL     1       2.428   5.846  20.004  0.00  0.00    +0.000 A 
ATOM      9  C   UNL     1       2.849   4.516  20.108  0.00  0.00    +0.000 A 
ATOM     10  C   UNL     1       3.552   3.970  19.026  0.00  0.00    +0.000 A 
ATOM     11  C   UNL     1       3.811   4.728  17.885  0.00  0.00    +0.000 A 
ATOM     12 BR   UNL     1       4.780   3.963  16.452  0.00  0.00    +0.000 Br
ATOM     13  C   UNL     1       3.377   6.048  17.784  0.00  0.00    +0.000 A 
ATOM     14  C   UNL     1       2.676   6.615  18.863  0.00  0.00    +0.000 A 
ATOM     15  C   UNL     1       0.939   9.042  20.955  0.00  0.00    +0.000 A 
ATOM     16  O   UNL     1       0.466   9.009  22.086  0.00  0.00    +0.000 OA
ATOM     17  H   UNL     1       2.530   9.029  17.443  0.00  0.00    +0.000 HD
ATOM     18  H   UNL     1       1.427   6.361  21.823  0.00  0.00    +0.000 HD
ENDROOT
BRANCH   1  20
ATOM     19  C   UNL     1      -0.885  11.566  20.265  0.00  0.00    +0.000 C 
ATOM     20  N   UNL     1       0.342  11.324  20.601  0.00  0.00    +0.000 NA
BRANCH  19  26
ATOM     21  C   UNL     1      -5.127  12.761  23.499  0.00  0.00    +0.000 C 
ATOM     22  C   UNL     1      -3.957  12.801  22.554  0.00  0.00    +0.000 C 
ATOM     23  C   UNL     1      -4.136  12.925  21.235  0.00  0.00    +0.000 C 
ATOM     24  C   UNL     1      -3.048  12.921  20.205  0.00  0.00    +0.000 C 
ATOM     25  C   UNL     1      -3.423  11.891  19.126  0.00  0.00    +0.000 C 
ATOM     26  C   UNL     1      -1.597  12.809  20.747  0.00  0.00    +0.000 C 
ATOM     27  C   UNL     1      -1.375  12.828  22.283  0.00  0.00    +0.000 C 
ATOM     28  C   UNL     1      -0.541  14.051  22.684  0.00  0.00    +0.000 C 
ATOM     29  C   UNL     1      -2.609  12.672  23.187  0.00  0.00    +0.000 C 
ENDBRANCH  19  26
ENDBRANCH   1  20
TORSDOF 2
ENDMDL
MODEL 4
REMARK VINA RESULT:      -8.0      3.108      8.547
REMARK  Name = 
REMARK  5 active torsions:
REMARK  status: ('A' for Active; 'I' for Inactive)
REMARK    1  A    between atoms: C_1  and  C_2
REMARK    2  A    between atoms: C_4  and  C_5
REMARK    3  A    between atoms: C_6  and  C_7
REMARK    4  A    between atoms: N_8  and  N_9
REMARK    5  A    between atoms: C_25  and  C_26
REMARK                            x       y       z     vdW  Elec       q    Type
REMARK                         _______ _______ _______ _____ _____    ______ ____
ROOT
ATOM      1  N   UNL     1       2.094   7.999  19.085  0.00  0.00    +0.000 N 
ATOM      2  C   UNL     1       1.559   7.841  20.391  0.00  0.00    +0.000 A 
ATOM      3  O   UNL     1       1.842   6.937  21.181  0.00  0.00    +0.000 OA
ATOM      4  N   UNL     1       0.656   8.783  20.817  0.00  0.00    +0.000 N 
ATOM      5  C   UNL     1       0.361   9.888  20.078  0.00  0.00    +0.000 A 
ATOM      6  C   UNL     1       0.940  10.066  18.856  0.00  0.00    +0.000 A 
ATOM      7  N   UNL     1       0.471  11.248  18.346  0.00  0.00    +0.000 N 
ATOM      8  C   UNL     1      -0.390  11.836  19.257  0.00  0.00    +0.000 A 
ATOM      9  C   UNL     1      -1.091  13.045  19.194  0.00  0.00    +0.000 A 
ATOM     10  C   UNL     1      -1.884  13.395  20.294  0.00  0.00    +0.000 A 
ATOM     11  C   UNL     1      -1.973  12.559  21.407  0.00  0.00    +0.000 A 
ATOM     12 BR   UNL     1      -3.037  13.074  22.883  0.00  0.00    +0.000 Br
ATOM     13  C   UNL     1      -1.281  11.351  21.457  0.00  0.00    +0.000 A 
ATOM     14  C   UNL     1      -0.474  10.987  20.364  0.00  0.00    +0.000 A 
ATOM     15  C   UNL     1       1.869   9.142  18.269  0.00  0.00    +0.000 A 
ATOM     16  O   UNL     1       2.375   9.348  17.171  0.00  0.00    +0.000 OA
ATOM     17  H   UNL     1       0.261   8.656  21.739  0.00  0.00    +0.000 HD
ATOM     18  H   UNL     1       0.731  11.633  17.445  0.00  0.00    +0.000 HD
ENDROOT
BRANCH   1  20
ATOM     19  C   UNL     1       3.192   5.996  19.281  0.00  0.00    +0.000 C 
ATOM     20  N   UNL     1       3.010   7.072  18.583  0.00  0.00    +0.000 NA
BRANCH  19  26
ATOM     21  C   UNL     1       5.557   4.384  14.624  0.00  0.00    +0.000 C 
ATOM     22  C   UNL     1       5.091   4.536  16.046  0.00  0.00    +0.000 C 
ATOM     23  C   UNL     1       4.124   3.760  16.546  0.00  0.00    +0.000 C 
ATOM     24  C   UNL     1       3.550   3.863  17.926  0.00  0.00    +0.000 C 
ATOM     25  C   UNL     1       2.019   3.931  17.796  0.00  0.00    +0.000 C 
ATOM     26  C   UNL     1       4.182   4.940  18.848  0.00  0.00    +0.000 C 
ATOM     27  C   UNL     1       5.411   5.733  18.328  0.00  0.00    +0.000 C 
ATOM     28  C   UNL     1       6.633   5.457  19.212  0.00  0.00    +0.000 C 
ATOM     29  C   UNL     1       5.763   5.614  16.836  0.00  0.00    +0.000 C 
ENDBRANCH  19  26
ENDBRANCH   1  20
TORSDOF 2
ENDMDL
MODEL 5
REMARK VINA RESULT:      -7.9      3.351      8.759
REMARK  Name = 
REMARK  5 active torsions:
REMARK  status: ('A' for Active; 'I' for Inactive)
REMARK    1  A    between atoms: C_1  and  C_2
REMARK    2  A    between atoms: C_4  and  C_5
REMARK    3  A    between atoms: C_6  and  C_7
REMARK    4  A    between atoms: N_8  and  N_9
REMARK    5  A    between atoms: C_25  and  C_26
REMARK                            x       y       z     vdW  Elec       q    Type
REMARK                         _______ _______ _______ _____ _____    ______ ____
ROOT
ATOM      1  N   UNL     1       2.236   7.834  19.072  0.00  0.00    +0.000 N 
ATOM      2  C   UNL     1       1.949   9.000  18.316  0.00  0.00    +0.000 A 
ATOM      3  O   UNL     1       2.285   9.202  17.146  0.00  0.00    +0.000 OA
ATOM      4  N   UNL     1       1.225   9.988  18.936  0.00  0.00    +0.000 N 
ATOM      5  C   UNL     1       0.700   9.825  20.182  0.00  0.00    +0.000 A 
ATOM      6  C   UNL     1       0.920   8.667  20.869  0.00  0.00    +0.000 A 
ATOM      7  N   UNL     1       0.279   8.776  22.075  0.00  0.00    +0.000 N 
ATOM      8  C   UNL     1      -0.372   9.996  22.146  0.00  0.00    +0.000 A 
ATOM      9  C   UNL     1      -1.165  10.545  23.160  0.00  0.00    +0.000 A 
ATOM     10  C   UNL     1      -1.717  11.813  22.938  0.00  0.00    +0.000 A 
ATOM     11  C   UNL     1      -1.473  12.502  21.751  0.00  0.00    +0.000 A 
ATOM     12 BR   UNL     1      -2.252  14.204  21.478  0.00  0.00    +0.000 Br
ATOM     13  C   UNL     1      -0.672  11.954  20.751  0.00  0.00    +0.000 A 
ATOM     14  C   UNL     1      -0.115  10.678  20.953  0.00  0.00    +0.000 A 
ATOM     15  C   UNL     1       1.693   7.570  20.360  0.00  0.00    +0.000 A 
ATOM     16  O   UNL     1       1.856   6.542  21.008  0.00  0.00    +0.000 OA
ATOM     17  H   UNL     1       1.040  10.827  18.402  0.00  0.00    +0.000 HD
ATOM     18  H   UNL     1       0.275   8.062  22.794  0.00  0.00    +0.000 HD
ENDROOT
BRANCH   1  20
ATOM     19  C   UNL     1       3.854   6.221  19.270  0.00  0.00    +0.000 C 
ATOM     20  N   UNL     1       2.978   6.794  18.507  0.00  0.00    +0.000 NA
BRANCH  19  26
ATOM     21  C   UNL     1       5.515   4.349  14.410  0.00  0.00    +0.000 C 
ATOM     22  C   UNL     1       5.247   4.569  15.874  0.00  0.00    +0.000 C 
ATOM     23  C   UNL     1       4.322   3.855  16.524  0.00  0.00    +0.000 C 
ATOM     24  C   UNL     1       3.939   4.030  17.962  0.00  0.00    +0.000 C 
ATOM     25  C   UNL     1       2.409   4.166  18.030  0.00  0.00    +0.000 C 
ATOM     26  C   UNL     1       4.733   5.106  18.752  0.00  0.00    +0.000 C 
ATOM     27  C   UNL     1       5.915   5.823  18.047  0.00  0.00    +0.000 C 
ATOM     28  C   UNL     1       7.230   5.519  18.775  0.00  0.00    +0.000 C 
ATOM     29  C   UNL     1       6.062   5.639  16.528  0.00  0.00    +0.000 C 
ENDBRANCH  19  26
ENDBRANCH   1  20
TORSDOF 2
ENDMDL
MODEL 6
REMARK VINA RESULT:      -7.8      1.912      3.566
REMARK  Name = 
REMARK  5 active torsions:
REMARK  status: ('A' for Active; 'I' for Inactive)
REMARK    1  A    between atoms: C_1  and  C_2
REMARK    2  A    between atoms: C_4  and  C_5
REMARK    3  A    between atoms: C_6  and  C_7
REMARK    4  A    between atoms: N_8  and  N_9
REMARK    5  A    between atoms: C_25  and  C_26
REMARK                            x       y       z     vdW  Elec       q    Type
REMARK                         _______ _______ _______ _____ _____    ______ ____
ROOT
ATOM      1  N   UNL     1       1.234   9.431  19.473  0.00  0.00    +0.000 N 
ATOM      2  C   UNL     1       1.829   9.553  18.190  0.00  0.00    +0.000 A 
ATOM      3  O   UNL     1       1.782  10.550  17.465  0.00  0.00    +0.000 OA
ATOM      4  N   UNL     1       2.528   8.471  17.717  0.00  0.00    +0.000 N 
ATOM      5  C   UNL     1       2.746   7.362  18.478  0.00  0.00    +0.000 A 
ATOM      6  C   UNL     1       2.231   7.289  19.740  0.00  0.00    +0.000 A 
ATOM      7  N   UNL     1       2.607   6.082  20.268  0.00  0.00    +0.000 N 
ATOM      8  C   UNL     1       3.383   5.396  19.350  0.00  0.00    +0.000 A 
ATOM      9  C   UNL     1       4.006   4.146  19.441  0.00  0.00    +0.000 A 
ATOM     10  C   UNL     1       4.756   3.712  18.341  0.00  0.00    +0.000 A 
ATOM     11  C   UNL     1       4.868   4.498  17.195  0.00  0.00    +0.000 A 
ATOM     12 BR   UNL     1       5.906   3.889  15.737  0.00  0.00    +0.000 Br
ATOM     13  C   UNL     1       4.234   5.737  17.107  0.00  0.00    +0.000 A 
ATOM     14  C   UNL     1       3.482   6.192  18.205  0.00  0.00    +0.000 A 
ATOM     15  C   UNL     1       1.447   8.328  20.345  0.00  0.00    +0.000 A 
ATOM     16  O   UNL     1       1.013   8.224  21.487  0.00  0.00    +0.000 OA
ATOM     17  H   UNL     1       2.933   8.552  16.794  0.00  0.00    +0.000 HD
ATOM     18  H   UNL     1       2.361   5.755  21.195  0.00  0.00    +0.000 HD
ENDROOT
BRANCH   1  20
ATOM     19  C   UNL     1       1.176  11.482  20.496  0.00  0.00    +0.000 C 
ATOM     20  N   UNL     1       0.499  10.491  20.011  0.00  0.00    +0.000 NA
BRANCH  19  26
ATOM     21  C   UNL     1      -0.592  16.410  18.924  0.00  0.00    +0.000 C 
ATOM     22  C   UNL     1      -0.218  15.172  19.691  0.00  0.00    +0.000 C 
ATOM     23  C   UNL     1       0.893  15.125  20.433  0.00  0.00    +0.000 C 
ATOM     24  C   UNL     1       1.385  13.930  21.191  0.00  0.00    +0.000 C 
ATOM     25  C   UNL     1       2.857  13.701  20.808  0.00  0.00    +0.000 C 
ATOM     26  C   UNL     1       0.484  12.667  21.130  0.00  0.00    +0.000 C 
ATOM     27  C   UNL     1      -0.885  12.766  20.405  0.00  0.00    +0.000 C 
ATOM     28  C   UNL     1      -2.029  12.512  21.394  0.00  0.00    +0.000 C 
ATOM     29  C   UNL     1      -1.153  14.014  19.548  0.00  0.00    +0.000 C 
ENDBRANCH  19  26
ENDBRANCH   1  20
TORSDOF 2
ENDMDL
MODEL 7
REMARK VINA RESULT:      -7.8      1.455      2.468
REMARK  Name = 
REMARK  5 active torsions:
REMARK  status: ('A' for Active; 'I' for Inactive)
REMARK    1  A    between atoms: C_1  and  C_2
REMARK    2  A    between atoms: C_4  and  C_5
REMARK    3  A    between atoms: C_6  and  C_7
REMARK    4  A    between atoms: N_8  and  N_9
REMARK    5  A    between atoms: C_25  and  C_26
REMARK                            x       y       z     vdW  Elec       q    Type
REMARK                         _______ _______ _______ _____ _____    ______ ____
ROOT
ATOM      1  N   UNL     1       1.411   9.504  19.576  0.00  0.00    +0.000 N 
ATOM      2  C   UNL     1       2.041   9.637  18.311  0.00  0.00    +0.000 A 
ATOM      3  O   UNL     1       2.089  10.668  17.635  0.00  0.00    +0.000 OA
ATOM      4  N   UNL     1       2.659   8.525  17.797  0.00  0.00    +0.000 N 
ATOM      5  C   UNL     1       2.771   7.368  18.507  0.00  0.00    +0.000 A 
ATOM      6  C   UNL     1       2.226   7.277  19.754  0.00  0.00    +0.000 A 
ATOM      7  N   UNL     1       2.492   6.020  20.229  0.00  0.00    +0.000 N 
ATOM      8  C   UNL     1       3.229   5.317  19.292  0.00  0.00    +0.000 A 
ATOM      9  C   UNL     1       3.746   4.017  19.332  0.00  0.00    +0.000 A 
ATOM     10  C   UNL     1       4.481   3.576  18.225  0.00  0.00    +0.000 A 
ATOM     11  C   UNL     1       4.679   4.404  17.120  0.00  0.00    +0.000 A 
ATOM     12 BR   UNL     1       5.695   3.781  15.651  0.00  0.00    +0.000 Br
ATOM     13  C   UNL     1       4.150   5.693  17.083  0.00  0.00    +0.000 A 
ATOM     14  C   UNL     1       3.415   6.155  18.189  0.00  0.00    +0.000 A 
ATOM     15  C   UNL     1       1.516   8.347  20.396  0.00  0.00    +0.000 A 
ATOM     16  O   UNL     1       1.053   8.225  21.525  0.00  0.00    +0.000 OA
ATOM     17  H   UNL     1       3.088   8.617  16.886  0.00  0.00    +0.000 HD
ATOM     18  H   UNL     1       2.202   5.671  21.135  0.00  0.00    +0.000 HD
ENDROOT
BRANCH   1  20
ATOM     19  C   UNL     1       0.085  11.361  19.353  0.00  0.00    +0.000 C 
ATOM     20  N   UNL     1       0.754  10.594  20.153  0.00  0.00    +0.000 NA
BRANCH  19  26
ATOM     21  C   UNL     1      -3.616  12.515  23.207  0.00  0.00    +0.000 C 
ATOM     22  C   UNL     1      -2.637  12.559  22.066  0.00  0.00    +0.000 C 
ATOM     23  C   UNL     1      -3.053  12.555  20.795  0.00  0.00    +0.000 C 
ATOM     24  C   UNL     1      -2.165  12.543  19.588  0.00  0.00    +0.000 C 
ATOM     25  C   UNL     1      -2.632  11.399  18.671  0.00  0.00    +0.000 C 
ATOM     26  C   UNL     1      -0.638  12.585  19.865  0.00  0.00    +0.000 C 
ATOM     27  C   UNL     1      -0.155  12.752  21.330  0.00  0.00    +0.000 C 
ATOM     28  C   UNL     1       0.627  14.063  21.485  0.00  0.00    +0.000 C 
ATOM     29  C   UNL     1      -1.193  12.585  22.452  0.00  0.00    +0.000 C 
ENDBRANCH  19  26
ENDBRANCH   1  20
TORSDOF 2
ENDMDL
MODEL 8
REMARK VINA RESULT:      -7.7      2.217      3.199
REMARK  Name = 
REMARK  5 active torsions:
REMARK  status: ('A' for Active; 'I' for Inactive)
REMARK    1  A    between atoms: C_1  and  C_2
REMARK    2  A    between atoms: C_4  and  C_5
REMARK    3  A    between atoms: C_6  and  C_7
REMARK    4  A    between atoms: N_8  and  N_9
REMARK    5  A    between atoms: C_25  and  C_26
REMARK                            x       y       z     vdW  Elec       q    Type
REMARK                         _______ _______ _______ _____ _____    ______ ____
ROOT
ATOM      1  N   UNL     1       0.676  10.638  21.298  0.00  0.00    +0.000 N 
ATOM      2  C   UNL     1       0.704   9.635  22.302  0.00  0.00    +0.000 A 
ATOM      3  O   UNL     1       0.303   9.764  23.462  0.00  0.00    +0.000 OA
ATOM      4  N   UNL     1       1.211   8.409  21.951  0.00  0.00    +0.000 N 
ATOM      5  C   UNL     1       1.571   8.115  20.670  0.00  0.00    +0.000 A 
ATOM      6  C   UNL     1       1.468   9.067  19.698  0.00  0.00    +0.000 A 
ATOM      7  N   UNL     1       1.888   8.502  18.523  0.00  0.00    +0.000 N 
ATOM      8  C   UNL     1       2.235   7.180  18.742  0.00  0.00    +0.000 A 
ATOM      9  C   UNL     1       2.696   6.202  17.854  0.00  0.00    +0.000 A 
ATOM     10  C   UNL     1       2.950   4.925  18.368  0.00  0.00    +0.000 A 
ATOM     11  C   UNL     1       2.757   4.646  19.720  0.00  0.00    +0.000 A 
ATOM     12 BR   UNL     1       3.091   2.903  20.376  0.00  0.00    +0.000 Br
ATOM     13  C   UNL     1       2.309   5.628  20.602  0.00  0.00    +0.000 A 
ATOM     14  C   UNL     1       2.042   6.915  20.101  0.00  0.00    +0.000 A 
ATOM     15  C   UNL     1       0.995  10.402  19.932  0.00  0.00    +0.000 A 
ATOM     16  O   UNL     1       0.908  11.223  19.025  0.00  0.00    +0.000 OA
ATOM     17  H   UNL     1       1.249   7.702  22.673  0.00  0.00    +0.000 HD
ATOM     18  H   UNL     1       1.922   8.981  17.630  0.00  0.00    +0.000 HD
ENDROOT
BRANCH   1  20
ATOM     19  C   UNL     1      -1.089  12.096  21.431  0.00  0.00    +0.000 C 
ATOM     20  N   UNL     1       0.183  11.912  21.590  0.00  0.00    +0.000 NA
BRANCH  19  26
ATOM     21  C   UNL     1      -0.894  15.950  25.302  0.00  0.00    +0.000 C 
ATOM     22  C   UNL     1      -1.207  15.114  24.092  0.00  0.00    +0.000 C 
ATOM     23  C   UNL     1      -2.300  14.345  24.044  0.00  0.00    +0.000 C 
ATOM     24  C   UNL     1      -2.677  13.436  22.914  0.00  0.00    +0.000 C 
ATOM     25  C   UNL     1      -2.972  12.047  23.504  0.00  0.00    +0.000 C 
ATOM     26  C   UNL     1      -1.724  13.443  21.688  0.00  0.00    +0.000 C 
ATOM     27  C   UNL     1      -0.544  14.451  21.670  0.00  0.00    +0.000 C 
ATOM     28  C   UNL     1      -0.700  15.431  20.501  0.00  0.00    +0.000 C 
ATOM     29  C   UNL     1      -0.213  15.190  22.977  0.00  0.00    +0.000 C 
ENDBRANCH  19  26
ENDBRANCH   1  20
TORSDOF 2
ENDMDL
MODEL 9
REMARK VINA RESULT:      -7.6      2.231      3.698
REMARK  Name = 
REMARK  5 active torsions:
REMARK  status: ('A' for Active; 'I' for Inactive)
REMARK    1  A    between atoms: C_1  and  C_2
REMARK    2  A    between atoms: C_4  and  C_5
REMARK    3  A    between atoms: C_6  and  C_7
REMARK    4  A    between atoms: N_8  and  N_9
REMARK    5  A    between atoms: C_25  and  C_26
REMARK                            x       y       z     vdW  Elec       q    Type
REMARK                         _______ _______ _______ _____ _____    ______ ____
ROOT
ATOM      1  N   UNL     1       0.050  10.295  20.439  0.00  0.00    +0.000 N 
ATOM      2  C   UNL     1       0.619  10.675  19.195  0.00  0.00    +0.000 A 
ATOM      3  O   UNL     1       0.457  11.759  18.629  0.00  0.00    +0.000 OA
ATOM      4  N   UNL     1       1.429   9.760  18.571  0.00  0.00    +0.000 N 
ATOM      5  C   UNL     1       1.774   8.580  19.158  0.00  0.00    +0.000 A 
ATOM      6  C   UNL     1       1.280   8.260  20.388  0.00  0.00    +0.000 A 
ATOM      7  N   UNL     1       1.790   7.036  20.732  0.00  0.00    +0.000 N 
ATOM      8  C   UNL     1       2.631   6.586  19.728  0.00  0.00    +0.000 A 
ATOM      9  C   UNL     1       3.388   5.413  19.635  0.00  0.00    +0.000 A 
ATOM     10  C   UNL     1       4.174   5.236  18.490  0.00  0.00    +0.000 A 
ATOM     11  C   UNL     1       4.189   6.195  17.477  0.00  0.00    +0.000 A 
ATOM     12 BR   UNL     1       5.278   5.931  15.953  0.00  0.00    +0.000 Br
ATOM     13  C   UNL     1       3.423   7.354  17.571  0.00  0.00    +0.000 A 
ATOM     14  C   UNL     1       2.633   7.553  18.718  0.00  0.00    +0.000 A 
ATOM     15  C   UNL     1       0.390   9.103  21.136  0.00  0.00    +0.000 A 
ATOM     16  O   UNL     1      -0.021   8.781  22.246  0.00  0.00    +0.000 OA
ATOM     17  H   UNL     1       1.816  10.024  17.674  0.00  0.00    +0.000 HD
ATOM     18  H   UNL     1       1.588   6.548  21.597  0.00  0.00    +0.000 HD
ENDROOT
BRANCH   1  20
ATOM     19  C   UNL     1      -0.225  12.041  21.900  0.00  0.00    +0.000 C 
ATOM     20  N   UNL     1      -0.793  11.174  21.124  0.00  0.00    +0.000 NA
BRANCH  19  26
ATOM     21  C   UNL     1      -3.600  16.229  20.924  0.00  0.00    +0.000 C 
ATOM     22  C   UNL     1      -2.729  15.173  21.548  0.00  0.00    +0.000 C 
ATOM     23  C   UNL     1      -1.503  15.463  21.997  0.00  0.00    +0.000 C 
ATOM     24  C   UNL     1      -0.535  14.481  22.583  0.00  0.00    +0.000 C 
ATOM     25  C   UNL     1       0.807  14.645  21.850  0.00  0.00    +0.000 C 
ATOM     26  C   UNL     1      -1.042  13.019  22.712  0.00  0.00    +0.000 C 
ATOM     27  C   UNL     1      -2.518  12.711  22.342  0.00  0.00    +0.000 C 
ATOM     28  C   UNL     1      -3.277  12.198  23.573  0.00  0.00    +0.000 C 
ATOM     29  C   UNL     1      -3.316  13.800  21.607  0.00  0.00    +0.000 C 
ENDBRANCH  19  26
ENDBRANCH   1  20
TORSDOF 2
ENDMDL
