MODEL 1
REMARK VINA RESULT:      -7.0      0.000      0.000
REMARK  Name = 
REMARK  10 active torsions:
REMARK  status: ('A' for Active; 'I' for Inactive)
REMARK    1  A    between atoms: C_2  and  C_3
REMARK    2  A    between atoms: N_5  and  C_6
REMARK    3  A    between atoms: C_9  and  N_10
REMARK    4  A    between atoms: C_12  and  O_13
REMARK    5  A    between atoms: O_13  and  C_14
REMARK    6  A    between atoms: C_14  and  C_15
REMARK    7  A    between atoms: C_15  and  O_16
REMARK    8  A    between atoms: C_15  and  C_17
REMARK    9  A    between atoms: C_17  and  O_18
REMARK   10  A    between atoms: C_20  and  C_21
REMARK                            x       y       z     vdW  Elec       q    Type
REMARK                         _______ _______ _______ _____ _____    ______ ____
ROOT
ATOM      1  N   UNL     1      -0.294  10.887  19.082  0.00  0.00    +0.000 N 
ATOM      2  N   UNL     1      -1.589  10.634  18.737  0.00  0.00    +0.000 NA
ATOM      3  C   UNL     1      -2.172  11.804  18.992  0.00  0.00    +0.000 A 
ATOM      4  N   UNL     1      -1.344  12.806  19.384  0.00  0.00    +0.000 NA
ATOM      5  C   UNL     1      -0.147  12.251  19.355  0.00  0.00    +0.000 A 
ENDROOT
BRANCH   5   6
ATOM      6  C   UNL     1       1.093  13.014  19.505  0.00  0.00    +0.000 A 
ATOM      7  C   UNL     1       1.778  12.970  20.726  0.00  0.00    +0.000 A 
ATOM      8  C   UNL     1       2.976  13.670  20.896  0.00  0.00    +0.000 A 
ATOM      9  C   UNL     1       3.507  14.419  19.844  0.00  0.00    +0.000 A 
ATOM     10 CL   UNL     1       5.011  15.223  20.104  0.00  0.00    +0.000 Cl
ATOM     11  C   UNL     1       2.817  14.493  18.630  0.00  0.00    +0.000 A 
ATOM     12 CL   UNL     1       3.426  15.362  17.267  0.00  0.00    +0.000 Cl
ATOM     13  C   UNL     1       1.599  13.824  18.478  0.00  0.00    +0.000 A 
ENDBRANCH   5   6
BRANCH   1  17
ATOM     14  C   UNL     1       2.391   7.605  19.010  0.00  0.00    +0.000 A 
ATOM     15  C   UNL     1       1.751   7.979  20.196  0.00  0.00    +0.000 A 
ATOM     16  C   UNL     1       0.921   9.112  20.246  0.00  0.00    +0.000 A 
ATOM     17  C   UNL     1       0.696   9.861  19.087  0.00  0.00    +0.000 A 
ATOM     18  C   UNL     1       1.402   9.538  17.921  0.00  0.00    +0.000 A 
ATOM     19  C   UNL     1       2.238   8.416  17.883  0.00  0.00    +0.000 A 
BRANCH  14  22
ATOM     20  O   UNL     1       1.809   4.983  17.790  0.00  0.00    +0.000 OA
ATOM     21  C   UNL     1       2.875   5.241  18.346  0.00  0.00    +0.000 C 
ATOM     22  N   UNL     1       3.215   6.470  18.879  0.00  0.00    +0.000 N 
ATOM     23  H   UNL     1       4.190   6.577  19.147  0.00  0.00    +0.000 HD
BRANCH  21  24
ATOM     24  C   UNL     1       3.937   4.155  18.457  0.00  0.00    +0.000 C 
ATOM     25 CL   UNL     1       3.261   2.519  18.631  0.00  0.00    +0.000 Cl
ENDBRANCH  21  24
ENDBRANCH  14  22
ENDBRANCH   1  17
BRANCH   3  26
ATOM     26  O   UNL     1      -3.503  11.896  18.789  0.00  0.00    +0.000 OA
BRANCH  26  27
ATOM     27  C   UNL     1      -3.973  10.765  18.054  0.00  0.00    +0.000 C 
BRANCH  27  28
ATOM     28  C   UNL     1      -4.547  11.156  16.691  0.00  0.00    +0.000 C 
BRANCH  28  29
ATOM     29  O   UNL     1      -4.965  12.530  16.755  0.00  0.00    +0.000 OA
ATOM     30  H   UNL     1      -4.940  12.806  17.689  0.00  0.00    +0.000 HD
ENDBRANCH  28  29
BRANCH  28  31
ATOM     31  C   UNL     1      -3.551  10.948  15.543  0.00  0.00    +0.000 C 
BRANCH  31  32
ATOM     32  O   UNL     1      -2.293  11.545  15.864  0.00  0.00    +0.000 OA
ATOM     33  H   UNL     1      -1.813  11.686  15.029  0.00  0.00    +0.000 HD
ENDBRANCH  31  32
ENDBRANCH  28  31
ENDBRANCH  27  28
ENDBRANCH  26  27
ENDBRANCH   3  26
TORSDOF 10
ENDMDL
MODEL 2
REMARK VINA RESULT:      -7.0      0.739      1.329
REMARK  Name = 
REMARK  10 active torsions:
REMARK  status: ('A' for Active; 'I' for Inactive)
REMARK    1  A    between atoms: C_2  and  C_3
REMARK    2  A    between atoms: N_5  and  C_6
REMARK    3  A    between atoms: C_9  and  N_10
REMARK    4  A    between atoms: C_12  and  O_13
REMARK    5  A    between atoms: O_13  and  C_14
REMARK    6  A    between atoms: C_14  and  C_15
REMARK    7  A    between atoms: C_15  and  O_16
REMARK    8  A    between atoms: C_15  and  C_17
REMARK    9  A    between atoms: C_17  and  O_18
REMARK   10  A    between atoms: C_20  and  C_21
REMARK                            x       y       z     vdW  Elec       q    Type
REMARK                         _______ _______ _______ _____ _____    ______ ____
ROOT
ATOM      1  N   UNL     1      -0.242  10.795  19.207  0.00  0.00    +0.000 N 
ATOM      2  N   UNL     1      -1.543  10.551  18.879  0.00  0.00    +0.000 NA
ATOM      3  C   UNL     1      -2.082  11.765  18.979  0.00  0.00    +0.000 A 
ATOM      4  N   UNL     1      -1.218  12.775  19.257  0.00  0.00    +0.000 NA
ATOM      5  C   UNL     1      -0.044  12.176  19.313  0.00  0.00    +0.000 A 
ENDROOT
BRANCH   5   6
ATOM      6  C   UNL     1       1.224  12.904  19.386  0.00  0.00    +0.000 A 
ATOM      7  C   UNL     1       1.981  13.073  18.220  0.00  0.00    +0.000 A 
ATOM      8  C   UNL     1       3.186  13.781  18.249  0.00  0.00    +0.000 A 
ATOM      9  C   UNL     1       3.646  14.333  19.447  0.00  0.00    +0.000 A 
ATOM     10 CL   UNL     1       5.118  15.233  19.407  0.00  0.00    +0.000 Cl
ATOM     11  C   UNL     1       2.913  14.146  20.622  0.00  0.00    +0.000 A 
ATOM     12 CL   UNL     1       3.391  14.831  22.134  0.00  0.00    +0.000 Cl
ATOM     13  C   UNL     1       1.729  13.403  20.595  0.00  0.00    +0.000 A 
ENDBRANCH   5   6
BRANCH   1  17
ATOM     14  C   UNL     1       2.317   7.431  19.556  0.00  0.00    +0.000 A 
ATOM     15  C   UNL     1       1.625   7.921  20.668  0.00  0.00    +0.000 A 
ATOM     16  C   UNL     1       0.837   9.082  20.579  0.00  0.00    +0.000 A 
ATOM     17  C   UNL     1       0.706   9.741  19.353  0.00  0.00    +0.000 A 
ATOM     18  C   UNL     1       1.464   9.300  18.260  0.00  0.00    +0.000 A 
ATOM     19  C   UNL     1       2.258   8.152  18.362  0.00  0.00    +0.000 A 
BRANCH  14  22
ATOM     20  O   UNL     1       1.560   4.644  18.952  0.00  0.00    +0.000 OA
ATOM     21  C   UNL     1       2.687   4.967  19.327  0.00  0.00    +0.000 C 
ATOM     22  N   UNL     1       3.104   6.262  19.565  0.00  0.00    +0.000 N 
ATOM     23  H   UNL     1       4.104   6.384  19.699  0.00  0.00    +0.000 HD
BRANCH  21  24
ATOM     24  C   UNL     1       3.738   3.884  19.536  0.00  0.00    +0.000 C 
ATOM     25 CL   UNL     1       3.676   2.592  18.315  0.00  0.00    +0.000 Cl
ENDBRANCH  21  24
ENDBRANCH  14  22
ENDBRANCH   1  17
BRANCH   3  26
ATOM     26  O   UNL     1      -3.406  11.882  18.748  0.00  0.00    +0.000 OA
BRANCH  26  27
ATOM     27  C   UNL     1      -3.889  10.740  18.037  0.00  0.00    +0.000 C 
BRANCH  27  28
ATOM     28  C   UNL     1      -4.485  11.110  16.678  0.00  0.00    +0.000 C 
BRANCH  28  29
ATOM     29  O   UNL     1      -4.951  12.468  16.746  0.00  0.00    +0.000 OA
ATOM     30  H   UNL     1      -5.333  12.610  17.632  0.00  0.00    +0.000 HD
ENDBRANCH  28  29
BRANCH  28  31
ATOM     31  C   UNL     1      -3.489  10.939  15.524  0.00  0.00    +0.000 C 
BRANCH  31  32
ATOM     32  O   UNL     1      -2.204  11.440  15.900  0.00  0.00    +0.000 OA
ATOM     33  H   UNL     1      -2.013  12.210  15.335  0.00  0.00    +0.000 HD
ENDBRANCH  31  32
ENDBRANCH  28  31
ENDBRANCH  27  28
ENDBRANCH  26  27
ENDBRANCH   3  26
TORSDOF 10
ENDMDL
MODEL 3
REMARK VINA RESULT:      -6.8      7.237     10.115
REMARK  Name = 
REMARK  10 active torsions:
REMARK  status: ('A' for Active; 'I' for Inactive)
REMARK    1  A    between atoms: C_2  and  C_3
REMARK    2  A    between atoms: N_5  and  C_6
REMARK    3  A    between atoms: C_9  and  N_10
REMARK    4  A    between atoms: C_12  and  O_13
REMARK    5  A    between atoms: O_13  and  C_14
REMARK    6  A    between atoms: C_14  and  C_15
REMARK    7  A    between atoms: C_15  and  O_16
REMARK    8  A    between atoms: C_15  and  C_17
REMARK    9  A    between atoms: C_17  and  O_18
REMARK   10  A    between atoms: C_20  and  C_21
REMARK                            x       y       z     vdW  Elec       q    Type
REMARK                         _______ _______ _______ _____ _____    ______ ____
ROOT
ATOM      1  N   UNL     1       6.516   5.525  16.548  0.00  0.00    +0.000 N 
ATOM      2  N   UNL     1       6.960   4.956  15.390  0.00  0.00    +0.000 NA
ATOM      3  C   UNL     1       6.029   4.029  15.169  0.00  0.00    +0.000 A 
ATOM      4  N   UNL     1       4.985   4.019  16.037  0.00  0.00    +0.000 NA
ATOM      5  C   UNL     1       5.249   5.019  16.855  0.00  0.00    +0.000 A 
ENDROOT
BRANCH   5   6
ATOM      6  C   UNL     1       4.289   5.523  17.839  0.00  0.00    +0.000 A 
ATOM      7  C   UNL     1       3.728   6.793  17.657  0.00  0.00    +0.000 A 
ATOM      8  C   UNL     1       2.793   7.296  18.567  0.00  0.00    +0.000 A 
ATOM      9  C   UNL     1       2.404   6.531  19.668  0.00  0.00    +0.000 A 
ATOM     10 CL   UNL     1       1.214   7.191  20.729  0.00  0.00    +0.000 Cl
ATOM     11  C   UNL     1       2.979   5.274  19.876  0.00  0.00    +0.000 A 
ATOM     12 CL   UNL     1       2.523   4.248  21.188  0.00  0.00    +0.000 Cl
ATOM     13  C   UNL     1       3.943   4.792  18.985  0.00  0.00    +0.000 A 
ENDBRANCH   5   6
BRANCH   1  17
ATOM     14  C   UNL     1       8.492   8.536  18.788  0.00  0.00    +0.000 A 
ATOM     15  C   UNL     1       7.929   8.826  17.541  0.00  0.00    +0.000 A 
ATOM     16  C   UNL     1       7.342   7.817  16.758  0.00  0.00    +0.000 A 
ATOM     17  C   UNL     1       7.281   6.508  17.242  0.00  0.00    +0.000 A 
ATOM     18  C   UNL     1       7.917   6.200  18.452  0.00  0.00    +0.000 A 
ATOM     19  C   UNL     1       8.513   7.208  19.219  0.00  0.00    +0.000 A 
BRANCH  14  22
ATOM     20  O   UNL     1       9.609  11.189  18.144  0.00  0.00    +0.000 OA
ATOM     21  C   UNL     1       9.635  10.708  19.276  0.00  0.00    +0.000 C 
ATOM     22  N   UNL     1       9.074   9.498  19.637  0.00  0.00    +0.000 N 
ATOM     23  H   UNL     1       9.024   9.318  20.637  0.00  0.00    +0.000 HD
BRANCH  21  24
ATOM     24  C   UNL     1      10.310  11.486  20.398  0.00  0.00    +0.000 C 
ATOM     25 CL   UNL     1      11.990  11.942  20.033  0.00  0.00    +0.000 Cl
ENDBRANCH  21  24
ENDBRANCH  14  22
ENDBRANCH   1  17
BRANCH   3  26
ATOM     26  O   UNL     1       6.182   3.235  14.088  0.00  0.00    +0.000 OA
BRANCH  26  27
ATOM     27  C   UNL     1       5.644   3.869  12.926  0.00  0.00    +0.000 C 
BRANCH  27  28
ATOM     28  C   UNL     1       4.845   2.899  12.054  0.00  0.00    +0.000 C 
BRANCH  28  29
ATOM     29  O   UNL     1       4.155   3.660  11.048  0.00  0.00    +0.000 OA
ATOM     30  H   UNL     1       3.424   3.112  10.708  0.00  0.00    +0.000 HD
ENDBRANCH  28  29
BRANCH  28  31
ATOM     31  C   UNL     1       5.722   1.820  11.406  0.00  0.00    +0.000 C 
BRANCH  31  32
ATOM     32  O   UNL     1       7.105   2.158  11.541  0.00  0.00    +0.000 OA
ATOM     33  H   UNL     1       7.208   3.088  11.269  0.00  0.00    +0.000 HD
ENDBRANCH  31  32
ENDBRANCH  28  31
ENDBRANCH  27  28
ENDBRANCH  26  27
ENDBRANCH   3  26
TORSDOF 10
ENDMDL
MODEL 4
REMARK VINA RESULT:      -6.8      6.939      9.924
REMARK  Name = 
REMARK  10 active torsions:
REMARK  status: ('A' for Active; 'I' for Inactive)
REMARK    1  A    between atoms: C_2  and  C_3
REMARK    2  A    between atoms: N_5  and  C_6
REMARK    3  A    between atoms: C_9  and  N_10
REMARK    4  A    between atoms: C_12  and  O_13
REMARK    5  A    between atoms: O_13  and  C_14
REMARK    6  A    between atoms: C_14  and  C_15
REMARK    7  A    between atoms: C_15  and  O_16
REMARK    8  A    between atoms: C_15  and  C_17
REMARK    9  A    between atoms: C_17  and  O_18
REMARK   10  A    between atoms: C_20  and  C_21
REMARK                            x       y       z     vdW  Elec       q    Type
REMARK                         _______ _______ _______ _____ _____    ______ ____
ROOT
ATOM      1  N   UNL     1       5.473   4.875  18.086  0.00  0.00    +0.000 N 
ATOM      2  N   UNL     1       4.983   4.283  19.214  0.00  0.00    +0.000 NA
ATOM      3  C   UNL     1       4.243   3.299  18.705  0.00  0.00    +0.000 A 
ATOM      4  N   UNL     1       4.289   3.160  17.356  0.00  0.00    +0.000 NA
ATOM      5  C   UNL     1       5.134   4.098  16.974  0.00  0.00    +0.000 A 
ENDROOT
BRANCH   5   6
ATOM      6  C   UNL     1       5.658   4.197  15.610  0.00  0.00    +0.000 A 
ATOM      7  C   UNL     1       6.922   4.764  15.405  0.00  0.00    +0.000 A 
ATOM      8  C   UNL     1       7.462   4.854  14.118  0.00  0.00    +0.000 A 
ATOM      9  C   UNL     1       6.744   4.372  13.021  0.00  0.00    +0.000 A 
ATOM     10 CL   UNL     1       7.485   4.473  11.466  0.00  0.00    +0.000 Cl
ATOM     11  C   UNL     1       5.470   3.830  13.211  0.00  0.00    +0.000 A 
ATOM     12 CL   UNL     1       4.536   3.175  11.914  0.00  0.00    +0.000 Cl
ATOM     13  C   UNL     1       4.918   3.779  14.495  0.00  0.00    +0.000 A 
ENDBRANCH   5   6
BRANCH   1  17
ATOM     14  C   UNL     1       7.910   8.342  17.949  0.00  0.00    +0.000 A 
ATOM     15  C   UNL     1       8.322   7.207  18.654  0.00  0.00    +0.000 A 
ATOM     16  C   UNL     1       7.486   6.083  18.770  0.00  0.00    +0.000 A 
ATOM     17  C   UNL     1       6.238   6.076  18.141  0.00  0.00    +0.000 A 
ATOM     18  C   UNL     1       5.790   7.243  17.506  0.00  0.00    +0.000 A 
ATOM     19  C   UNL     1       6.623   8.363  17.408  0.00  0.00    +0.000 A 
BRANCH  14  22
ATOM     20  O   UNL     1       9.100  10.143  19.960  0.00  0.00    +0.000 OA
ATOM     21  C   UNL     1       9.192  10.338  18.749  0.00  0.00    +0.000 C 
ATOM     22  N   UNL     1       8.702   9.494  17.770  0.00  0.00    +0.000 N 
ATOM     23  H   UNL     1       9.006   9.699  16.821  0.00  0.00    +0.000 HD
BRANCH  21  24
ATOM     24  C   UNL     1       9.912  11.584  18.249  0.00  0.00    +0.000 C 
ATOM     25 CL   UNL     1      11.667  11.549  18.531  0.00  0.00    +0.000 Cl
ENDBRANCH  21  24
ENDBRANCH  14  22
ENDBRANCH   1  17
BRANCH   3  26
ATOM     26  O   UNL     1       3.568   2.514  19.571  0.00  0.00    +0.000 OA
BRANCH  26  27
ATOM     27  C   UNL     1       2.890   3.313  20.542  0.00  0.00    +0.000 C 
BRANCH  27  28
ATOM     28  C   UNL     1       1.813   4.200  19.914  0.00  0.00    +0.000 C 
BRANCH  28  29
ATOM     29  O   UNL     1       0.527   3.666  20.267  0.00  0.00    +0.000 OA
ATOM     30  H   UNL     1      -0.022   3.651  19.461  0.00  0.00    +0.000 HD
ENDBRANCH  28  29
BRANCH  28  31
ATOM     31  C   UNL     1       1.925   5.668  20.346  0.00  0.00    +0.000 C 
BRANCH  31  32
ATOM     32  O   UNL     1       2.589   6.432  19.337  0.00  0.00    +0.000 OA
ATOM     33  H   UNL     1       2.022   6.428  18.545  0.00  0.00    +0.000 HD
ENDBRANCH  31  32
ENDBRANCH  28  31
ENDBRANCH  27  28
ENDBRANCH  26  27
ENDBRANCH   3  26
TORSDOF 10
ENDMDL
MODEL 5
REMARK VINA RESULT:      -6.7      7.023      9.940
REMARK  Name = 
REMARK  10 active torsions:
REMARK  status: ('A' for Active; 'I' for Inactive)
REMARK    1  A    between atoms: C_2  and  C_3
REMARK    2  A    between atoms: N_5  and  C_6
REMARK    3  A    between atoms: C_9  and  N_10
REMARK    4  A    between atoms: C_12  and  O_13
REMARK    5  A    between atoms: O_13  and  C_14
REMARK    6  A    between atoms: C_14  and  C_15
REMARK    7  A    between atoms: C_15  and  O_16
REMARK    8  A    between atoms: C_15  and  C_17
REMARK    9  A    between atoms: C_17  and  O_18
REMARK   10  A    between atoms: C_20  and  C_21
REMARK                            x       y       z     vdW  Elec       q    Type
REMARK                         _______ _______ _______ _____ _____    ______ ____
ROOT
ATOM      1  N   UNL     1       6.490   5.680  16.652  0.00  0.00    +0.000 N 
ATOM      2  N   UNL     1       6.949   5.023  15.547  0.00  0.00    +0.000 NA
ATOM      3  C   UNL     1       5.968   4.150  15.323  0.00  0.00    +0.000 A 
ATOM      4  N   UNL     1       4.886   4.253  16.136  0.00  0.00    +0.000 NA
ATOM      5  C   UNL     1       5.178   5.276  16.916  0.00  0.00    +0.000 A 
ENDROOT
BRANCH   5   6
ATOM      6  C   UNL     1       4.209   5.892  17.824  0.00  0.00    +0.000 A 
ATOM      7  C   UNL     1       3.927   5.270  19.047  0.00  0.00    +0.000 A 
ATOM      8  C   UNL     1       3.023   5.842  19.946  0.00  0.00    +0.000 A 
ATOM      9  C   UNL     1       2.393   7.049  19.635  0.00  0.00    +0.000 A 
ATOM     10 CL   UNL     1       1.322   7.726  20.807  0.00  0.00    +0.000 Cl
ATOM     11  C   UNL     1       2.645   7.665  18.406  0.00  0.00    +0.000 A 
ATOM     12 CL   UNL     1       1.941   9.179  17.963  0.00  0.00    +0.000 Cl
ATOM     13  C   UNL     1       3.520   7.068  17.493  0.00  0.00    +0.000 A 
ENDBRANCH   5   6
BRANCH   1  17
ATOM     14  C   UNL     1       8.561   8.652  18.856  0.00  0.00    +0.000 A 
ATOM     15  C   UNL     1       8.021   8.941  17.599  0.00  0.00    +0.000 A 
ATOM     16  C   UNL     1       7.402   7.942  16.828  0.00  0.00    +0.000 A 
ATOM     17  C   UNL     1       7.286   6.645  17.335  0.00  0.00    +0.000 A 
ATOM     18  C   UNL     1       7.900   6.334  18.556  0.00  0.00    +0.000 A 
ATOM     19  C   UNL     1       8.527   7.333  19.311  0.00  0.00    +0.000 A 
BRANCH  14  22
ATOM     20  O   UNL     1       9.114  11.509  18.369  0.00  0.00    +0.000 OA
ATOM     21  C   UNL     1       9.459  10.925  19.395  0.00  0.00    +0.000 C 
ATOM     22  N   UNL     1       9.173   9.607  19.693  0.00  0.00    +0.000 N 
ATOM     23  H   UNL     1       9.372   9.319  20.648  0.00  0.00    +0.000 HD
BRANCH  21  24
ATOM     24  C   UNL     1      10.247  11.687  20.454  0.00  0.00    +0.000 C 
ATOM     25 CL   UNL     1      11.969  11.880  20.052  0.00  0.00    +0.000 Cl
ENDBRANCH  21  24
ENDBRANCH  14  22
ENDBRANCH   1  17
BRANCH   3  26
ATOM     26  O   UNL     1       6.119   3.292  14.292  0.00  0.00    +0.000 OA
BRANCH  26  27
ATOM     27  C   UNL     1       5.273   3.670  13.204  0.00  0.00    +0.000 C 
BRANCH  27  28
ATOM     28  C   UNL     1       5.882   3.319  11.846  0.00  0.00    +0.000 C 
BRANCH  28  29
ATOM     29  O   UNL     1       7.235   3.804  11.820  0.00  0.00    +0.000 OA
ATOM     30  H   UNL     1       7.715   3.313  11.128  0.00  0.00    +0.000 HD
ENDBRANCH  28  29
BRANCH  28  31
ATOM     31  C   UNL     1       5.842   1.816  11.545  0.00  0.00    +0.000 C 
BRANCH  31  32
ATOM     32  O   UNL     1       7.140   1.352  11.166  0.00  0.00    +0.000 OA
ATOM     33  H   UNL     1       7.692   2.135  10.989  0.00  0.00    +0.000 HD
ENDBRANCH  31  32
ENDBRANCH  28  31
ENDBRANCH  27  28
ENDBRANCH  26  27
ENDBRANCH   3  26
TORSDOF 10
ENDMDL
MODEL 6
REMARK VINA RESULT:      -6.7      7.555     10.222
REMARK  Name = 
REMARK  10 active torsions:
REMARK  status: ('A' for Active; 'I' for Inactive)
REMARK    1  A    between atoms: C_2  and  C_3
REMARK    2  A    between atoms: N_5  and  C_6
REMARK    3  A    between atoms: C_9  and  N_10
REMARK    4  A    between atoms: C_12  and  O_13
REMARK    5  A    between atoms: O_13  and  C_14
REMARK    6  A    between atoms: C_14  and  C_15
REMARK    7  A    between atoms: C_15  and  O_16
REMARK    8  A    between atoms: C_15  and  C_17
REMARK    9  A    between atoms: C_17  and  O_18
REMARK   10  A    between atoms: C_20  and  C_21
REMARK                            x       y       z     vdW  Elec       q    Type
REMARK                         _______ _______ _______ _____ _____    ______ ____
ROOT
ATOM      1  N   UNL     1       6.593   5.465  16.339  0.00  0.00    +0.000 N 
ATOM      2  N   UNL     1       7.161   5.205  15.126  0.00  0.00    +0.000 NA
ATOM      3  C   UNL     1       6.455   4.153  14.716  0.00  0.00    +0.000 A 
ATOM      4  N   UNL     1       5.429   3.776  15.522  0.00  0.00    +0.000 NA
ATOM      5  C   UNL     1       5.462   4.659  16.502  0.00  0.00    +0.000 A 
ENDROOT
BRANCH   5   6
ATOM      6  C   UNL     1       4.407   4.777  17.510  0.00  0.00    +0.000 A 
ATOM      7  C   UNL     1       3.972   3.627  18.180  0.00  0.00    +0.000 A 
ATOM      8  C   UNL     1       2.981   3.707  19.163  0.00  0.00    +0.000 A 
ATOM      9  C   UNL     1       2.416   4.942  19.491  0.00  0.00    +0.000 A 
ATOM     10 CL   UNL     1       1.229   4.979  20.743  0.00  0.00    +0.000 Cl
ATOM     11  C   UNL     1       2.822   6.092  18.808  0.00  0.00    +0.000 A 
ATOM     12 CL   UNL     1       2.204   7.661  19.181  0.00  0.00    +0.000 Cl
ATOM     13  C   UNL     1       3.784   6.001  17.798  0.00  0.00    +0.000 A 
ENDBRANCH   5   6
BRANCH   1  17
ATOM     14  C   UNL     1       8.470   8.388  18.772  0.00  0.00    +0.000 A 
ATOM     15  C   UNL     1       8.471   7.041  19.145  0.00  0.00    +0.000 A 
ATOM     16  C   UNL     1       7.784   6.077  18.386  0.00  0.00    +0.000 A 
ATOM     17  C   UNL     1       7.120   6.458  17.217  0.00  0.00    +0.000 A 
ATOM     18  C   UNL     1       7.047   7.818  16.888  0.00  0.00    +0.000 A 
ATOM     19  C   UNL     1       7.721   8.773  17.658  0.00  0.00    +0.000 A 
BRANCH  14  22
ATOM     20  O   UNL     1       9.543  10.955  17.792  0.00  0.00    +0.000 OA
ATOM     21  C   UNL     1       9.687  10.568  18.951  0.00  0.00    +0.000 C 
ATOM     22  N   UNL     1       9.155   9.403  19.470  0.00  0.00    +0.000 N 
ATOM     23  H   UNL     1       9.213   9.307  20.481  0.00  0.00    +0.000 HD
BRANCH  21  24
ATOM     24  C   UNL     1      10.492  11.420  19.924  0.00  0.00    +0.000 C 
ATOM     25 CL   UNL     1      11.386  12.740  19.137  0.00  0.00    +0.000 Cl
ENDBRANCH  21  24
ENDBRANCH  14  22
ENDBRANCH   1  17
BRANCH   3  26
ATOM     26  O   UNL     1       6.787   3.601  13.530  0.00  0.00    +0.000 OA
BRANCH  26  27
ATOM     27  C   UNL     1       5.956   4.121  12.490  0.00  0.00    +0.000 C 
BRANCH  27  28
ATOM     28  C   UNL     1       5.538   3.044  11.488  0.00  0.00    +0.000 C 
BRANCH  28  29
ATOM     29  O   UNL     1       6.070   1.784  11.931  0.00  0.00    +0.000 OA
ATOM     30  H   UNL     1       6.048   1.168  11.176  0.00  0.00    +0.000 HD
ENDBRANCH  28  29
BRANCH  28  31
ATOM     31  C   UNL     1       4.018   2.954  11.310  0.00  0.00    +0.000 C 
BRANCH  31  32
ATOM     32  O   UNL     1       3.578   3.891  10.324  0.00  0.00    +0.000 OA
ATOM     33  H   UNL     1       4.371   4.294   9.928  0.00  0.00    +0.000 HD
ENDBRANCH  31  32
ENDBRANCH  28  31
ENDBRANCH  27  28
ENDBRANCH  26  27
ENDBRANCH   3  26
TORSDOF 10
ENDMDL
MODEL 7
REMARK VINA RESULT:      -6.7      0.874      1.037
REMARK  Name = 
REMARK  10 active torsions:
REMARK  status: ('A' for Active; 'I' for Inactive)
REMARK    1  A    between atoms: C_2  and  C_3
REMARK    2  A    between atoms: N_5  and  C_6
REMARK    3  A    between atoms: C_9  and  N_10
REMARK    4  A    between atoms: C_12  and  O_13
REMARK    5  A    between atoms: O_13  and  C_14
REMARK    6  A    between atoms: C_14  and  C_15
REMARK    7  A    between atoms: C_15  and  O_16
REMARK    8  A    between atoms: C_15  and  C_17
REMARK    9  A    between atoms: C_17  and  O_18
REMARK   10  A    between atoms: C_20  and  C_21
REMARK                            x       y       z     vdW  Elec       q    Type
REMARK                         _______ _______ _______ _____ _____    ______ ____
ROOT
ATOM      1  N   UNL     1      -0.311  10.631  18.996  0.00  0.00    +0.000 N 
ATOM      2  N   UNL     1      -1.570  10.332  18.561  0.00  0.00    +0.000 NA
ATOM      3  C   UNL     1      -2.195  11.499  18.715  0.00  0.00    +0.000 A 
ATOM      4  N   UNL     1      -1.422  12.535  19.128  0.00  0.00    +0.000 NA
ATOM      5  C   UNL     1      -0.216  12.009  19.220  0.00  0.00    +0.000 A 
ENDROOT
BRANCH   5   6
ATOM      6  C   UNL     1       0.992  12.807  19.435  0.00  0.00    +0.000 A 
ATOM      7  C   UNL     1       1.600  12.798  20.696  0.00  0.00    +0.000 A 
ATOM      8  C   UNL     1       2.767  13.532  20.930  0.00  0.00    +0.000 A 
ATOM      9  C   UNL     1       3.343  14.281  19.901  0.00  0.00    +0.000 A 
ATOM     10 CL   UNL     1       4.807  15.129  20.243  0.00  0.00    +0.000 Cl
ATOM     11  C   UNL     1       2.729  14.320  18.647  0.00  0.00    +0.000 A 
ATOM     12 CL   UNL     1       3.399  15.186  17.311  0.00  0.00    +0.000 Cl
ATOM     13  C   UNL     1       1.540  13.616  18.429  0.00  0.00    +0.000 A 
ENDBRANCH   5   6
BRANCH   1  17
ATOM     14  C   UNL     1       2.429   7.411  19.316  0.00  0.00    +0.000 A 
ATOM     15  C   UNL     1       1.758   7.893  20.444  0.00  0.00    +0.000 A 
ATOM     16  C   UNL     1       0.908   9.009  20.361  0.00  0.00    +0.000 A 
ATOM     17  C   UNL     1       0.695   9.630  19.127  0.00  0.00    +0.000 A 
ATOM     18  C   UNL     1       1.431   9.202  18.014  0.00  0.00    +0.000 A 
ATOM     19  C   UNL     1       2.287   8.098  18.109  0.00  0.00    +0.000 A 
BRANCH  14  22
ATOM     20  O   UNL     1       1.760   4.550  19.052  0.00  0.00    +0.000 OA
ATOM     21  C   UNL     1       2.905   4.955  19.247  0.00  0.00    +0.000 C 
ATOM     22  N   UNL     1       3.275   6.284  19.320  0.00  0.00    +0.000 N 
ATOM     23  H   UNL     1       4.276   6.462  19.310  0.00  0.00    +0.000 HD
BRANCH  21  24
ATOM     24  C   UNL     1       4.033   3.944  19.406  0.00  0.00    +0.000 C 
ATOM     25 CL   UNL     1       5.580   4.496  18.723  0.00  0.00    +0.000 Cl
ENDBRANCH  21  24
ENDBRANCH  14  22
ENDBRANCH   1  17
BRANCH   3  26
ATOM     26  O   UNL     1      -3.507  11.550  18.402  0.00  0.00    +0.000 OA
BRANCH  26  27
ATOM     27  C   UNL     1      -3.813  10.591  17.389  0.00  0.00    +0.000 C 
BRANCH  27  28
ATOM     28  C   UNL     1      -3.615  11.151  15.980  0.00  0.00    +0.000 C 
BRANCH  28  29
ATOM     29  O   UNL     1      -2.302  11.731  15.905  0.00  0.00    +0.000 OA
ATOM     30  H   UNL     1      -2.326  12.586  16.375  0.00  0.00    +0.000 HD
ENDBRANCH  28  29
BRANCH  28  31
ATOM     31  C   UNL     1      -3.799  10.091  14.886  0.00  0.00    +0.000 C 
BRANCH  31  32
ATOM     32  O   UNL     1      -2.647  10.046  14.041  0.00  0.00    +0.000 OA
ATOM     33  H   UNL     1      -2.958   9.934  13.125  0.00  0.00    +0.000 HD
ENDBRANCH  31  32
ENDBRANCH  28  31
ENDBRANCH  27  28
ENDBRANCH  26  27
ENDBRANCH   3  26
TORSDOF 10
ENDMDL
MODEL 8
REMARK VINA RESULT:      -6.7      6.864      9.665
REMARK  Name = 
REMARK  10 active torsions:
REMARK  status: ('A' for Active; 'I' for Inactive)
REMARK    1  A    between atoms: C_2  and  C_3
REMARK    2  A    between atoms: N_5  and  C_6
REMARK    3  A    between atoms: C_9  and  N_10
REMARK    4  A    between atoms: C_12  and  O_13
REMARK    5  A    between atoms: O_13  and  C_14
REMARK    6  A    between atoms: C_14  and  C_15
REMARK    7  A    between atoms: C_15  and  O_16
REMARK    8  A    between atoms: C_15  and  C_17
REMARK    9  A    between atoms: C_17  and  O_18
REMARK   10  A    between atoms: C_20  and  C_21
REMARK                            x       y       z     vdW  Elec       q    Type
REMARK                         _______ _______ _______ _____ _____    ______ ____
ROOT
ATOM      1  N   UNL     1       6.667   6.389  16.751  0.00  0.00    +0.000 N 
ATOM      2  N   UNL     1       7.238   5.867  15.627  0.00  0.00    +0.000 NA
ATOM      3  C   UNL     1       6.376   4.903  15.307  0.00  0.00    +0.000 A 
ATOM      4  N   UNL     1       5.262   4.824  16.079  0.00  0.00    +0.000 NA
ATOM      5  C   UNL     1       5.404   5.818  16.935  0.00  0.00    +0.000 A 
ENDROOT
BRANCH   5   6
ATOM      6  C   UNL     1       4.339   6.254  17.840  0.00  0.00    +0.000 A 
ATOM      7  C   UNL     1       4.093   5.521  19.008  0.00  0.00    +0.000 A 
ATOM      8  C   UNL     1       3.097   5.922  19.904  0.00  0.00    +0.000 A 
ATOM      9  C   UNL     1       2.339   7.066  19.645  0.00  0.00    +0.000 A 
ATOM     10 CL   UNL     1       1.157   7.531  20.812  0.00  0.00    +0.000 Cl
ATOM     11  C   UNL     1       2.557   7.788  18.469  0.00  0.00    +0.000 A 
ATOM     12 CL   UNL     1       1.692   9.236  18.094  0.00  0.00    +0.000 Cl
ATOM     13  C   UNL     1       3.526   7.361  17.556  0.00  0.00    +0.000 A 
ENDBRANCH   5   6
BRANCH   1  17
ATOM     14  C   UNL     1       8.894   9.323  18.853  0.00  0.00    +0.000 A 
ATOM     15  C   UNL     1       8.887   7.991  19.278  0.00  0.00    +0.000 A 
ATOM     16  C   UNL     1       8.090   7.028  18.635  0.00  0.00    +0.000 A 
ATOM     17  C   UNL     1       7.319   7.392  17.527  0.00  0.00    +0.000 A 
ATOM     18  C   UNL     1       7.260   8.741  17.153  0.00  0.00    +0.000 A 
ATOM     19  C   UNL     1       8.045   9.696  17.809  0.00  0.00    +0.000 A 
BRANCH  14  22
ATOM     20  O   UNL     1       8.533  10.772  21.398  0.00  0.00    +0.000 OA
ATOM     21  C   UNL     1       9.441  11.023  20.607  0.00  0.00    +0.000 C 
ATOM     22  N   UNL     1       9.685  10.335  19.433  0.00  0.00    +0.000 N 
ATOM     23  H   UNL     1      10.569  10.546  18.976  0.00  0.00    +0.000 HD
BRANCH  21  24
ATOM     24  C   UNL     1      10.405  12.161  20.919  0.00  0.00    +0.000 C 
ATOM     25 CL   UNL     1      11.833  12.190  19.859  0.00  0.00    +0.000 Cl
ENDBRANCH  21  24
ENDBRANCH  14  22
ENDBRANCH   1  17
BRANCH   3  26
ATOM     26  O   UNL     1       6.662   4.141  14.231  0.00  0.00    +0.000 OA
BRANCH  26  27
ATOM     27  C   UNL     1       5.458   3.669  13.623  0.00  0.00    +0.000 C 
BRANCH  27  28
ATOM     28  C   UNL     1       5.617   3.445  12.118  0.00  0.00    +0.000 C 
BRANCH  28  29
ATOM     29  O   UNL     1       6.674   2.494  11.913  0.00  0.00    +0.000 OA
ATOM     30  H   UNL     1       6.324   1.608  12.120  0.00  0.00    +0.000 HD
ENDBRANCH  28  29
BRANCH  28  31
ATOM     31  C   UNL     1       4.323   2.966  11.448  0.00  0.00    +0.000 C 
BRANCH  31  32
ATOM     32  O   UNL     1       3.800   3.986  10.595  0.00  0.00    +0.000 OA
ATOM     33  H   UNL     1       2.833   3.873  10.561  0.00  0.00    +0.000 HD
ENDBRANCH  31  32
ENDBRANCH  28  31
ENDBRANCH  27  28
ENDBRANCH  26  27
ENDBRANCH   3  26
TORSDOF 10
ENDMDL
MODEL 9
REMARK VINA RESULT:      -6.7      4.059      9.408
REMARK  Name = 
REMARK  10 active torsions:
REMARK  status: ('A' for Active; 'I' for Inactive)
REMARK    1  A    between atoms: C_2  and  C_3
REMARK    2  A    between atoms: N_5  and  C_6
REMARK    3  A    between atoms: C_9  and  N_10
REMARK    4  A    between atoms: C_12  and  O_13
REMARK    5  A    between atoms: O_13  and  C_14
REMARK    6  A    between atoms: C_14  and  C_15
REMARK    7  A    between atoms: C_15  and  O_16
REMARK    8  A    between atoms: C_15  and  C_17
REMARK    9  A    between atoms: C_17  and  O_18
REMARK   10  A    between atoms: C_20  and  C_21
REMARK                            x       y       z     vdW  Elec       q    Type
REMARK                         _______ _______ _______ _____ _____    ______ ____
ROOT
ATOM      1  N   UNL     1       3.287   7.160  17.955  0.00  0.00    +0.000 N 
ATOM      2  N   UNL     1       4.035   7.574  16.891  0.00  0.00    +0.000 NA
ATOM      3  C   UNL     1       4.922   6.587  16.782  0.00  0.00    +0.000 A 
ATOM      4  N   UNL     1       4.749   5.538  17.627  0.00  0.00    +0.000 NA
ATOM      5  C   UNL     1       3.665   5.860  18.306  0.00  0.00    +0.000 A 
ENDROOT
BRANCH   5   6
ATOM      6  C   UNL     1       2.973   4.928  19.198  0.00  0.00    +0.000 A 
ATOM      7  C   UNL     1       3.184   5.021  20.579  0.00  0.00    +0.000 A 
ATOM      8  C   UNL     1       2.522   4.161  21.461  0.00  0.00    +0.000 A 
ATOM      9  C   UNL     1       1.637   3.199  20.970  0.00  0.00    +0.000 A 
ATOM     10 CL   UNL     1       0.820   2.197  22.113  0.00  0.00    +0.000 Cl
ATOM     11  C   UNL     1       1.441   3.078  19.592  0.00  0.00    +0.000 A 
ATOM     12 CL   UNL     1       0.333   1.943  18.906  0.00  0.00    +0.000 Cl
ATOM     13  C   UNL     1       2.135   3.914  18.712  0.00  0.00    +0.000 A 
ENDBRANCH   5   6
BRANCH   1  17
ATOM     14  C   UNL     1       0.514   9.837  19.723  0.00  0.00    +0.000 A 
ATOM     15  C   UNL     1       1.104   8.818  20.477  0.00  0.00    +0.000 A 
ATOM     16  C   UNL     1       1.963   7.878  19.881  0.00  0.00    +0.000 A 
ATOM     17  C   UNL     1       2.269   7.981  18.521  0.00  0.00    +0.000 A 
ATOM     18  C   UNL     1       1.614   8.949  17.748  0.00  0.00    +0.000 A 
ATOM     19  C   UNL     1       0.748   9.871  18.347  0.00  0.00    +0.000 A 
BRANCH  14  22
ATOM     20  O   UNL     1       1.154  12.137  21.456  0.00  0.00    +0.000 OA
ATOM     21  C   UNL     1       0.007  11.856  21.112  0.00  0.00    +0.000 C 
ATOM     22  N   UNL     1      -0.336  10.826  20.257  0.00  0.00    +0.000 N 
ATOM     23  H   UNL     1      -1.299  10.828  19.932  0.00  0.00    +0.000 HD
BRANCH  21  24
ATOM     24  C   UNL     1      -1.152  12.699  21.631  0.00  0.00    +0.000 C 
ATOM     25 CL   UNL     1      -1.923  12.022  23.084  0.00  0.00    +0.000 Cl
ENDBRANCH  21  24
ENDBRANCH  14  22
ENDBRANCH   1  17
BRANCH   3  26
ATOM     26  O   UNL     1       5.864   6.697  15.822  0.00  0.00    +0.000 OA
BRANCH  26  27
ATOM     27  C   UNL     1       7.032   5.957  16.184  0.00  0.00    +0.000 C 
BRANCH  27  28
ATOM     28  C   UNL     1       7.113   4.611  15.461  0.00  0.00    +0.000 C 
BRANCH  28  29
ATOM     29  O   UNL     1       6.407   3.635  16.245  0.00  0.00    +0.000 OA
ATOM     30  H   UNL     1       6.817   2.766  16.081  0.00  0.00    +0.000 HD
ENDBRANCH  28  29
BRANCH  28  31
ATOM     31  C   UNL     1       6.552   4.666  14.035  0.00  0.00    +0.000 C 
BRANCH  31  32
ATOM     32  O   UNL     1       6.349   3.343  13.531  0.00  0.00    +0.000 OA
ATOM     33  H   UNL     1       6.877   3.255  12.717  0.00  0.00    +0.000 HD
ENDBRANCH  31  32
ENDBRANCH  28  31
ENDBRANCH  27  28
ENDBRANCH  26  27
ENDBRANCH   3  26
TORSDOF 10
ENDMDL
