MODEL 1
REMARK VINA RESULT:      -7.1      0.000      0.000
REMARK  Name = 
REMARK  4 active torsions:
REMARK  status: ('A' for Active; 'I' for Inactive)
REMARK    1  A    between atoms: C_4  and  C_5
REMARK    2  A    between atoms: C_17  and  C_18
REMARK    3  A    between atoms: C_21  and  O_22
REMARK    4  A    between atoms: C_23  and  O_24
REMARK                            x       y       z     vdW  Elec       q    Type
REMARK                         _______ _______ _______ _____ _____    ______ ____
ROOT
ATOM      1  O   UNL     1       4.529   6.189  19.620  0.00  0.00    +0.000 OA
ATOM      2  C   UNL     1       4.228   5.054  19.306  0.00  0.00    +0.000 C 
ATOM      3  C   UNL     1       5.122   4.017  18.707  0.00  0.00    +0.000 C 
ATOM      4  C   UNL     1       6.327   4.217  18.155  0.00  0.00    +0.000 C 
ATOM      5  S   UNL     1       4.291   2.482  18.764  0.00  0.00    +0.000 S 
ATOM      6  C   UNL     1       2.878   3.294  19.394  0.00  0.00    +0.000 A 
ATOM      7  S   UNL     1       1.375   2.688  19.862  0.00  0.00    +0.000 S 
ATOM      8  C   UNL     1       0.825   4.284  20.253  0.00  0.00    +0.000 A 
ATOM      9  C   UNL     1       1.811   5.231  19.996  0.00  0.00    +0.000 A 
ATOM     10  N   UNL     1       2.961   4.589  19.575  0.00  0.00    +0.000 N 
ENDROOT
BRANCH   4  11
ATOM     11  C   UNL     1       6.935   5.552  18.026  0.00  0.00    +0.000 A 
ATOM     12  C   UNL     1       7.861   5.968  18.991  0.00  0.00    +0.000 A 
ATOM     13  C   UNL     1       8.394   7.258  18.945  0.00  0.00    +0.000 A 
ATOM     14  C   UNL     1       8.019   8.134  17.927  0.00  0.00    +0.000 A 
ATOM     15 CL   UNL     1       8.666   9.726  17.889  0.00  0.00    +0.000 Cl
ATOM     16  C   UNL     1       7.109   7.734  16.951  0.00  0.00    +0.000 A 
ATOM     17  C   UNL     1       6.563   6.449  17.005  0.00  0.00    +0.000 A 
ATOM     18 CL   UNL     1       5.382   6.018  15.819  0.00  0.00    +0.000 Cl
ENDBRANCH   4  11
BRANCH   9  19
ATOM     19  C   UNL     1       1.566   6.672  20.115  0.00  0.00    +0.000 A 
ATOM     20  C   UNL     1       1.202   7.257  21.344  0.00  0.00    +0.000 A 
ATOM     21  C   UNL     1       0.958   8.633  21.461  0.00  0.00    +0.000 A 
ATOM     22  C   UNL     1       1.162   9.449  20.362  0.00  0.00    +0.000 A 
ATOM     23  C   UNL     1       1.580   8.896  19.159  0.00  0.00    +0.000 A 
ATOM     24  C   UNL     1       1.761   7.523  19.016  0.00  0.00    +0.000 A 
BRANCH  22  25
ATOM     25  O   UNL     1       0.986  10.801  20.418  0.00  0.00    +0.000 OA
ATOM     26  H   UNL     1       0.265  11.057  19.817  0.00  0.00    +0.000 HD
ENDBRANCH  22  25
BRANCH  23  27
ATOM     27  O   UNL     1       1.840   9.704  18.090  0.00  0.00    +0.000 OA
ATOM     28  H   UNL     1       2.790   9.935  18.168  0.00  0.00    +0.000 HD
ENDBRANCH  23  27
ENDBRANCH   9  19
TORSDOF 4
ENDMDL
MODEL 2
REMARK VINA RESULT:      -7.0      0.583      1.341
REMARK  Name = 
REMARK  4 active torsions:
REMARK  status: ('A' for Active; 'I' for Inactive)
REMARK    1  A    between atoms: C_4  and  C_5
REMARK    2  A    between atoms: C_17  and  C_18
REMARK    3  A    between atoms: C_21  and  O_22
REMARK    4  A    between atoms: C_23  and  O_24
REMARK                            x       y       z     vdW  Elec       q    Type
REMARK                         _______ _______ _______ _____ _____    ______ ____
ROOT
ATOM      1  O   UNL     1       4.529   6.222  19.650  0.00  0.00    +0.000 OA
ATOM      2  C   UNL     1       4.205   5.096  19.328  0.00  0.00    +0.000 C 
ATOM      3  C   UNL     1       5.073   4.050  18.708  0.00  0.00    +0.000 C 
ATOM      4  C   UNL     1       6.275   4.235  18.144  0.00  0.00    +0.000 C 
ATOM      5  S   UNL     1       4.217   2.530  18.758  0.00  0.00    +0.000 S 
ATOM      6  C   UNL     1       2.825   3.359  19.414  0.00  0.00    +0.000 A 
ATOM      7  S   UNL     1       1.317   2.775  19.892  0.00  0.00    +0.000 S 
ATOM      8  C   UNL     1       0.800   4.375  20.306  0.00  0.00    +0.000 A 
ATOM      9  C   UNL     1       1.799   5.308  20.048  0.00  0.00    +0.000 A 
ATOM     10  N   UNL     1       2.933   4.651  19.606  0.00  0.00    +0.000 N 
ENDROOT
BRANCH   4  11
ATOM     11  C   UNL     1       6.905   5.560  18.021  0.00  0.00    +0.000 A 
ATOM     12  C   UNL     1       7.848   5.951  18.981  0.00  0.00    +0.000 A 
ATOM     13  C   UNL     1       8.402   7.232  18.942  0.00  0.00    +0.000 A 
ATOM     14  C   UNL     1       8.032   8.124  17.937  0.00  0.00    +0.000 A 
ATOM     15 CL   UNL     1       8.707   9.705  17.908  0.00  0.00    +0.000 Cl
ATOM     16  C   UNL     1       7.106   7.750  16.966  0.00  0.00    +0.000 A 
ATOM     17  C   UNL     1       6.538   6.474  17.013  0.00  0.00    +0.000 A 
ATOM     18 CL   UNL     1       5.339   6.075  15.835  0.00  0.00    +0.000 Cl
ENDBRANCH   4  11
BRANCH   9  19
ATOM     19  C   UNL     1       1.580   6.752  20.184  0.00  0.00    +0.000 A 
ATOM     20  C   UNL     1       1.719   7.623  19.086  0.00  0.00    +0.000 A 
ATOM     21  C   UNL     1       1.519   9.005  19.212  0.00  0.00    +0.000 A 
ATOM     22  C   UNL     1       1.093   9.516  20.426  0.00  0.00    +0.000 A 
ATOM     23  C   UNL     1       0.893   8.662  21.503  0.00  0.00    +0.000 A 
ATOM     24  C   UNL     1       1.152   7.298  21.405  0.00  0.00    +0.000 A 
BRANCH  22  25
ATOM     25  O   UNL     1       0.838  10.844  20.607  0.00  0.00    +0.000 OA
ATOM     26  H   UNL     1       1.495  11.217  21.220  0.00  0.00    +0.000 HD
ENDBRANCH  22  25
BRANCH  23  27
ATOM     27  O   UNL     1       0.416   9.153  22.684  0.00  0.00    +0.000 OA
ATOM     28  H   UNL     1      -0.014  10.003  22.453  0.00  0.00    +0.000 HD
ENDBRANCH  23  27
ENDBRANCH   9  19
TORSDOF 4
ENDMDL
MODEL 3
REMARK VINA RESULT:      -6.9      8.129     11.092
REMARK  Name = 
REMARK  4 active torsions:
REMARK  status: ('A' for Active; 'I' for Inactive)
REMARK    1  A    between atoms: C_4  and  C_5
REMARK    2  A    between atoms: C_17  and  C_18
REMARK    3  A    between atoms: C_21  and  O_22
REMARK    4  A    between atoms: C_23  and  O_24
REMARK                            x       y       z     vdW  Elec       q    Type
REMARK                         _______ _______ _______ _____ _____    ______ ____
ROOT
ATOM      1  O   UNL     1      -3.260  12.618  20.741  0.00  0.00    +0.000 OA
ATOM      2  C   UNL     1      -3.360  13.621  21.420  0.00  0.00    +0.000 C 
ATOM      3  C   UNL     1      -2.290  14.266  22.239  0.00  0.00    +0.000 C 
ATOM      4  C   UNL     1      -1.117  13.726  22.597  0.00  0.00    +0.000 C 
ATOM      5  S   UNL     1      -2.859  15.840  22.738  0.00  0.00    +0.000 S 
ATOM      6  C   UNL     1      -4.406  15.491  22.003  0.00  0.00    +0.000 A 
ATOM      7  S   UNL     1      -5.803  16.427  21.877  0.00  0.00    +0.000 S 
ATOM      8  C   UNL     1      -6.619  15.142  21.050  0.00  0.00    +0.000 A 
ATOM      9  C   UNL     1      -5.795  14.030  20.912  0.00  0.00    +0.000 A 
ATOM     10  N   UNL     1      -4.542  14.327  21.417  0.00  0.00    +0.000 N 
ENDROOT
BRANCH   4  11
ATOM     11  C   UNL     1      -0.733  12.348  22.249  0.00  0.00    +0.000 A 
ATOM     12  C   UNL     1      -1.109  11.305  23.105  0.00  0.00    +0.000 A 
ATOM     13  C   UNL     1      -0.690   9.998  22.848  0.00  0.00    +0.000 A 
ATOM     14  C   UNL     1       0.092   9.721  21.728  0.00  0.00    +0.000 A 
ATOM     15 CL   UNL     1       0.618   8.112  21.431  0.00  0.00    +0.000 Cl
ATOM     16  C   UNL     1       0.466  10.742  20.858  0.00  0.00    +0.000 A 
ATOM     17  C   UNL     1       0.061  12.054  21.122  0.00  0.00    +0.000 A 
ATOM     18 CL   UNL     1       0.608  13.302  20.060  0.00  0.00    +0.000 Cl
ENDBRANCH   4  11
BRANCH   9  19
ATOM     19  C   UNL     1      -6.277  12.757  20.366  0.00  0.00    +0.000 A 
ATOM     20  C   UNL     1      -6.056  12.404  19.021  0.00  0.00    +0.000 A 
ATOM     21  C   UNL     1      -6.521  11.191  18.491  0.00  0.00    +0.000 A 
ATOM     22  C   UNL     1      -7.139  10.282  19.333  0.00  0.00    +0.000 A 
ATOM     23  C   UNL     1      -7.311  10.590  20.676  0.00  0.00    +0.000 A 
ATOM     24  C   UNL     1      -6.911  11.818  21.196  0.00  0.00    +0.000 A 
BRANCH  22  25
ATOM     25  O   UNL     1      -7.578   9.067  18.894  0.00  0.00    +0.000 OA
ATOM     26  H   UNL     1      -7.710   8.478  19.657  0.00  0.00    +0.000 HD
ENDBRANCH  22  25
BRANCH  23  27
ATOM     27  O   UNL     1      -7.865   9.673  21.521  0.00  0.00    +0.000 OA
ATOM     28  H   UNL     1      -7.135   9.059  21.748  0.00  0.00    +0.000 HD
ENDBRANCH  23  27
ENDBRANCH   9  19
TORSDOF 4
ENDMDL
MODEL 4
REMARK VINA RESULT:      -6.6      8.156     11.047
REMARK  Name = 
REMARK  4 active torsions:
REMARK  status: ('A' for Active; 'I' for Inactive)
REMARK    1  A    between atoms: C_4  and  C_5
REMARK    2  A    between atoms: C_17  and  C_18
REMARK    3  A    between atoms: C_21  and  O_22
REMARK    4  A    between atoms: C_23  and  O_24
REMARK                            x       y       z     vdW  Elec       q    Type
REMARK                         _______ _______ _______ _____ _____    ______ ____
ROOT
ATOM      1  O   UNL     1      -3.252  12.722  21.011  0.00  0.00    +0.000 OA
ATOM      2  C   UNL     1      -3.383  13.670  21.761  0.00  0.00    +0.000 C 
ATOM      3  C   UNL     1      -2.326  14.305  22.604  0.00  0.00    +0.000 C 
ATOM      4  C   UNL     1      -1.123  13.795  22.904  0.00  0.00    +0.000 C 
ATOM      5  S   UNL     1      -2.955  15.812  23.223  0.00  0.00    +0.000 S 
ATOM      6  C   UNL     1      -4.499  15.444  22.492  0.00  0.00    +0.000 A 
ATOM      7  S   UNL     1      -5.939  16.321  22.456  0.00  0.00    +0.000 S 
ATOM      8  C   UNL     1      -6.713  15.061  21.555  0.00  0.00    +0.000 A 
ATOM      9  C   UNL     1      -5.843  14.000  21.325  0.00  0.00    +0.000 A 
ATOM     10  N   UNL     1      -4.595  14.318  21.828  0.00  0.00    +0.000 N 
ENDROOT
BRANCH   4  11
ATOM     11  C   UNL     1      -0.685  12.464  22.453  0.00  0.00    +0.000 A 
ATOM     12  C   UNL     1      -1.090  11.337  23.180  0.00  0.00    +0.000 A 
ATOM     13  C   UNL     1      -0.625  10.068  22.829  0.00  0.00    +0.000 A 
ATOM     14  C   UNL     1       0.233   9.914  21.742  0.00  0.00    +0.000 A 
ATOM     15 CL   UNL     1       0.815   8.350  21.329  0.00  0.00    +0.000 Cl
ATOM     16  C   UNL     1       0.638  11.020  20.999  0.00  0.00    +0.000 A 
ATOM     17  C   UNL     1       0.186  12.293  21.359  0.00  0.00    +0.000 A 
ATOM     18 CL   UNL     1       0.769  13.647  20.457  0.00  0.00    +0.000 Cl
ENDBRANCH   4  11
BRANCH   9  19
ATOM     19  C   UNL     1      -6.279  12.747  20.699  0.00  0.00    +0.000 A 
ATOM     20  C   UNL     1      -7.121  11.843  21.375  0.00  0.00    +0.000 A 
ATOM     21  C   UNL     1      -7.534  10.639  20.785  0.00  0.00    +0.000 A 
ATOM     22  C   UNL     1      -7.174  10.374  19.475  0.00  0.00    +0.000 A 
ATOM     23  C   UNL     1      -6.394  11.284  18.774  0.00  0.00    +0.000 A 
ATOM     24  C   UNL     1      -5.925  12.450  19.373  0.00  0.00    +0.000 A 
BRANCH  22  25
ATOM     25  O   UNL     1      -7.577   9.243  18.825  0.00  0.00    +0.000 OA
ATOM     26  H   UNL     1      -7.293   9.288  17.895  0.00  0.00    +0.000 HD
ENDBRANCH  22  25
BRANCH  23  27
ATOM     27  O   UNL     1      -6.087  11.054  17.465  0.00  0.00    +0.000 OA
ATOM     28  H   UNL     1      -6.544  11.764  16.966  0.00  0.00    +0.000 HD
ENDBRANCH  23  27
ENDBRANCH   9  19
TORSDOF 4
ENDMDL
MODEL 5
REMARK VINA RESULT:      -6.6      8.292     12.082
REMARK  Name = 
REMARK  4 active torsions:
REMARK  status: ('A' for Active; 'I' for Inactive)
REMARK    1  A    between atoms: C_4  and  C_5
REMARK    2  A    between atoms: C_17  and  C_18
REMARK    3  A    between atoms: C_21  and  O_22
REMARK    4  A    between atoms: C_23  and  O_24
REMARK                            x       y       z     vdW  Elec       q    Type
REMARK                         _______ _______ _______ _____ _____    ______ ____
ROOT
ATOM      1  O   UNL     1      -4.098  12.311  21.511  0.00  0.00    +0.000 OA
ATOM      2  C   UNL     1      -4.027  13.484  21.201  0.00  0.00    +0.000 C 
ATOM      3  C   UNL     1      -5.154  14.383  20.808  0.00  0.00    +0.000 C 
ATOM      4  C   UNL     1      -6.394  14.011  20.461  0.00  0.00    +0.000 C 
ATOM      5  S   UNL     1      -4.562  16.025  20.790  0.00  0.00    +0.000 S 
ATOM      6  C   UNL     1      -2.956  15.428  21.136  0.00  0.00    +0.000 A 
ATOM      7  S   UNL     1      -1.500  16.248  21.367  0.00  0.00    +0.000 S 
ATOM      8  C   UNL     1      -0.662  14.748  21.589  0.00  0.00    +0.000 A 
ATOM      9  C   UNL     1      -1.527  13.666  21.463  0.00  0.00    +0.000 A 
ATOM     10  N   UNL     1      -2.815  14.132  21.271  0.00  0.00    +0.000 N 
ENDROOT
BRANCH   4  11
ATOM     11  C   UNL     1      -6.812  12.602  20.378  0.00  0.00    +0.000 A 
ATOM     12  C   UNL     1      -7.527  12.046  21.448  0.00  0.00    +0.000 A 
ATOM     13  C   UNL     1      -7.866  10.691  21.439  0.00  0.00    +0.000 A 
ATOM     14  C   UNL     1      -7.510   9.888  20.357  0.00  0.00    +0.000 A 
ATOM     15 CL   UNL     1      -7.916   8.218  20.363  0.00  0.00    +0.000 Cl
ATOM     16  C   UNL     1      -6.811  10.425  19.278  0.00  0.00    +0.000 A 
ATOM     17  C   UNL     1      -6.457  11.777  19.293  0.00  0.00    +0.000 A 
ATOM     18 CL   UNL     1      -5.526  12.387  17.971  0.00  0.00    +0.000 Cl
ENDBRANCH   4  11
BRANCH   9  19
ATOM     19  C   UNL     1      -1.055  12.277  21.475  0.00  0.00    +0.000 A 
ATOM     20  C   UNL     1      -0.682  11.618  20.287  0.00  0.00    +0.000 A 
ATOM     21  C   UNL     1      -0.238  10.288  20.292  0.00  0.00    +0.000 A 
ATOM     22  C   UNL     1      -0.083   9.634  21.502  0.00  0.00    +0.000 A 
ATOM     23  C   UNL     1      -0.389  10.290  22.686  0.00  0.00    +0.000 A 
ATOM     24  C   UNL     1      -0.893  11.588  22.687  0.00  0.00    +0.000 A 
BRANCH  22  25
ATOM     25  O   UNL     1       0.386   8.354  21.583  0.00  0.00    +0.000 OA
ATOM     26  H   UNL     1       1.351   8.357  21.461  0.00  0.00    +0.000 HD
ENDBRANCH  22  25
BRANCH  23  27
ATOM     27  O   UNL     1      -0.181   9.670  23.884  0.00  0.00    +0.000 OA
ATOM     28  H   UNL     1       0.345   8.871  23.671  0.00  0.00    +0.000 HD
ENDBRANCH  23  27
ENDBRANCH   9  19
TORSDOF 4
ENDMDL
MODEL 6
REMARK VINA RESULT:      -6.5      9.194     12.012
REMARK  Name = 
REMARK  4 active torsions:
REMARK  status: ('A' for Active; 'I' for Inactive)
REMARK    1  A    between atoms: C_4  and  C_5
REMARK    2  A    between atoms: C_17  and  C_18
REMARK    3  A    between atoms: C_21  and  O_22
REMARK    4  A    between atoms: C_23  and  O_24
REMARK                            x       y       z     vdW  Elec       q    Type
REMARK                         _______ _______ _______ _____ _____    ______ ____
ROOT
ATOM      1  O   UNL     1      -3.866  13.086  20.499  0.00  0.00    +0.000 OA
ATOM      2  C   UNL     1      -4.149  14.223  20.821  0.00  0.00    +0.000 C 
ATOM      3  C   UNL     1      -3.271  15.207  21.522  0.00  0.00    +0.000 C 
ATOM      4  C   UNL     1      -2.123  14.945  22.164  0.00  0.00    +0.000 C 
ATOM      5  S   UNL     1      -4.036  16.774  21.445  0.00  0.00    +0.000 S 
ATOM      6  C   UNL     1      -5.422  16.036  20.677  0.00  0.00    +0.000 A 
ATOM      7  S   UNL     1      -6.858  16.713  20.107  0.00  0.00    +0.000 S 
ATOM      8  C   UNL     1      -7.432  15.152  19.625  0.00  0.00    +0.000 A 
ATOM      9  C   UNL     1      -6.506  14.160  19.932  0.00  0.00    +0.000 A 
ATOM     10  N   UNL     1      -5.372  14.744  20.465  0.00  0.00    +0.000 N 
ENDROOT
BRANCH   4  11
ATOM     11  C   UNL     1      -1.578  13.584  22.302  0.00  0.00    +0.000 A 
ATOM     12  C   UNL     1      -0.522  13.193  21.468  0.00  0.00    +0.000 A 
ATOM     13  C   UNL     1      -0.037  11.884  21.515  0.00  0.00    +0.000 A 
ATOM     14  C   UNL     1      -0.590  10.965  22.405  0.00  0.00    +0.000 A 
ATOM     15 CL   UNL     1       0.002   9.351  22.442  0.00  0.00    +0.000 Cl
ATOM     16  C   UNL     1      -1.631  11.338  23.251  0.00  0.00    +0.000 A 
ATOM     17  C   UNL     1      -2.129  12.643  23.194  0.00  0.00    +0.000 A 
ATOM     18 CL   UNL     1      -3.469  13.046  24.207  0.00  0.00    +0.000 Cl
ENDBRANCH   4  11
BRANCH   9  19
ATOM     19  C   UNL     1      -6.794  12.733  19.750  0.00  0.00    +0.000 A 
ATOM     20  C   UNL     1      -6.548  12.084  18.524  0.00  0.00    +0.000 A 
ATOM     21  C   UNL     1      -6.828  10.722  18.342  0.00  0.00    +0.000 A 
ATOM     22  C   UNL     1      -7.279   9.978  19.419  0.00  0.00    +0.000 A 
ATOM     23  C   UNL     1      -7.470  10.590  20.650  0.00  0.00    +0.000 A 
ATOM     24  C   UNL     1      -7.256  11.955  20.823  0.00  0.00    +0.000 A 
BRANCH  22  25
ATOM     25  O   UNL     1      -7.531   8.640  19.323  0.00  0.00    +0.000 OA
ATOM     26  H   UNL     1      -7.721   8.413  18.396  0.00  0.00    +0.000 HD
ENDBRANCH  22  25
BRANCH  23  27
ATOM     27  O   UNL     1      -7.856   9.848  21.728  0.00  0.00    +0.000 OA
ATOM     28  H   UNL     1      -8.295   9.056  21.351  0.00  0.00    +0.000 HD
ENDBRANCH  23  27
ENDBRANCH   9  19
TORSDOF 4
ENDMDL
MODEL 7
REMARK VINA RESULT:      -6.5      8.328     11.298
REMARK  Name = 
REMARK  4 active torsions:
REMARK  status: ('A' for Active; 'I' for Inactive)
REMARK    1  A    between atoms: C_4  and  C_5
REMARK    2  A    between atoms: C_17  and  C_18
REMARK    3  A    between atoms: C_21  and  O_22
REMARK    4  A    between atoms: C_23  and  O_24
REMARK                            x       y       z     vdW  Elec       q    Type
REMARK                         _______ _______ _______ _____ _____    ______ ____
ROOT
ATOM      1  O   UNL     1       7.294  14.595  19.675  0.00  0.00    +0.000 OA
ATOM      2  C   UNL     1       7.873  15.565  19.225  0.00  0.00    +0.000 C 
ATOM      3  C   UNL     1       7.295  16.917  18.959  0.00  0.00    +0.000 C 
ATOM      4  C   UNL     1       5.995  17.238  18.903  0.00  0.00    +0.000 C 
ATOM      5  S   UNL     1       8.611  18.019  18.639  0.00  0.00    +0.000 S 
ATOM      6  C   UNL     1       9.729  16.679  18.732  0.00  0.00    +0.000 A 
ATOM      7  S   UNL     1      11.408  16.631  18.582  0.00  0.00    +0.000 S 
ATOM      8  C   UNL     1      11.404  14.913  18.806  0.00  0.00    +0.000 A 
ATOM      9  C   UNL     1      10.110  14.432  18.974  0.00  0.00    +0.000 A 
ATOM     10  N   UNL     1       9.226  15.496  18.984  0.00  0.00    +0.000 N 
ENDROOT
BRANCH   4  11
ATOM     11  C   UNL     1       4.919  16.246  19.064  0.00  0.00    +0.000 A 
ATOM     12  C   UNL     1       4.428  15.591  17.926  0.00  0.00    +0.000 A 
ATOM     13  C   UNL     1       3.353  14.706  18.033  0.00  0.00    +0.000 A 
ATOM     14  C   UNL     1       2.773  14.457  19.275  0.00  0.00    +0.000 A 
ATOM     15 CL   UNL     1       1.438  13.380  19.393  0.00  0.00    +0.000 Cl
ATOM     16  C   UNL     1       3.255  15.088  20.419  0.00  0.00    +0.000 A 
ATOM     17  C   UNL     1       4.320  15.986  20.313  0.00  0.00    +0.000 A 
ATOM     18 CL   UNL     1       4.840  16.803  21.744  0.00  0.00    +0.000 Cl
ENDBRANCH   4  11
BRANCH   9  19
ATOM     19  C   UNL     1       9.809  12.999  19.053  0.00  0.00    +0.000 A 
ATOM     20  C   UNL     1       9.764  12.193  17.898  0.00  0.00    +0.000 A 
ATOM     21  C   UNL     1       9.468  10.824  17.967  0.00  0.00    +0.000 A 
ATOM     22  C   UNL     1       9.300  10.232  19.207  0.00  0.00    +0.000 A 
ATOM     23  C   UNL     1       9.401  11.001  20.358  0.00  0.00    +0.000 A 
ATOM     24  C   UNL     1       9.629  12.373  20.297  0.00  0.00    +0.000 A 
BRANCH  22  25
ATOM     25  O   UNL     1       9.053   8.898  19.349  0.00  0.00    +0.000 OA
ATOM     26  H   UNL     1       8.787   8.527  18.489  0.00  0.00    +0.000 HD
ENDBRANCH  22  25
BRANCH  23  27
ATOM     27  O   UNL     1       9.295  10.411  21.584  0.00  0.00    +0.000 OA
ATOM     28  H   UNL     1       9.672   9.514  21.471  0.00  0.00    +0.000 HD
ENDBRANCH  23  27
ENDBRANCH   9  19
TORSDOF 4
ENDMDL
MODEL 8
REMARK VINA RESULT:      -6.4      7.720     10.009
REMARK  Name = 
REMARK  4 active torsions:
REMARK  status: ('A' for Active; 'I' for Inactive)
REMARK    1  A    between atoms: C_4  and  C_5
REMARK    2  A    between atoms: C_17  and  C_18
REMARK    3  A    between atoms: C_21  and  O_22
REMARK    4  A    between atoms: C_23  and  O_24
REMARK                            x       y       z     vdW  Elec       q    Type
REMARK                         _______ _______ _______ _____ _____    ______ ____
ROOT
ATOM      1  O   UNL     1      -2.753  12.408  20.418  0.00  0.00    +0.000 OA
ATOM      2  C   UNL     1      -3.366  12.138  19.404  0.00  0.00    +0.000 C 
ATOM      3  C   UNL     1      -2.802  11.635  18.116  0.00  0.00    +0.000 C 
ATOM      4  C   UNL     1      -1.514  11.646  17.744  0.00  0.00    +0.000 C 
ATOM      5  S   UNL     1      -4.126  11.096  17.113  0.00  0.00    +0.000 S 
ATOM      6  C   UNL     1      -5.249  11.669  18.323  0.00  0.00    +0.000 A 
ATOM      7  S   UNL     1      -6.933  11.621  18.376  0.00  0.00    +0.000 S 
ATOM      8  C   UNL     1      -6.934  12.439  19.903  0.00  0.00    +0.000 A 
ATOM      9  C   UNL     1      -5.639  12.736  20.314  0.00  0.00    +0.000 A 
ATOM     10  N   UNL     1      -4.741  12.214  19.402  0.00  0.00    +0.000 N 
ENDROOT
BRANCH   4  11
ATOM     11  C   UNL     1      -0.446  12.219  18.580  0.00  0.00    +0.000 A 
ATOM     12  C   UNL     1      -0.079  13.557  18.382  0.00  0.00    +0.000 A 
ATOM     13  C   UNL     1       0.985  14.109  19.100  0.00  0.00    +0.000 A 
ATOM     14  C   UNL     1       1.677  13.334  20.029  0.00  0.00    +0.000 A 
ATOM     15 CL   UNL     1       2.997  14.017  20.893  0.00  0.00    +0.000 Cl
ATOM     16  C   UNL     1       1.319  12.007  20.249  0.00  0.00    +0.000 A 
ATOM     17  C   UNL     1       0.265  11.449  19.520  0.00  0.00    +0.000 A 
ATOM     18 CL   UNL     1      -0.099   9.778  19.769  0.00  0.00    +0.000 Cl
ENDBRANCH   4  11
BRANCH   9  19
ATOM     19  C   UNL     1      -5.359  13.542  21.507  0.00  0.00    +0.000 A 
ATOM     20  C   UNL     1      -5.398  14.949  21.469  0.00  0.00    +0.000 A 
ATOM     21  C   UNL     1      -5.122  15.725  22.604  0.00  0.00    +0.000 A 
ATOM     22  C   UNL     1      -4.889  15.091  23.813  0.00  0.00    +0.000 A 
ATOM     23  C   UNL     1      -4.908  13.704  23.880  0.00  0.00    +0.000 A 
ATOM     24  C   UNL     1      -5.115  12.925  22.745  0.00  0.00    +0.000 A 
BRANCH  22  25
ATOM     25  O   UNL     1      -4.658  15.784  24.965  0.00  0.00    +0.000 OA
ATOM     26  H   UNL     1      -4.961  16.702  24.855  0.00  0.00    +0.000 HD
ENDBRANCH  22  25
BRANCH  23  27
ATOM     27  O   UNL     1      -4.738  13.077  25.080  0.00  0.00    +0.000 OA
ATOM     28  H   UNL     1      -3.790  13.195  25.300  0.00  0.00    +0.000 HD
ENDBRANCH  23  27
ENDBRANCH   9  19
TORSDOF 4
ENDMDL
MODEL 9
REMARK VINA RESULT:      -6.3      8.296     10.955
REMARK  Name = 
REMARK  4 active torsions:
REMARK  status: ('A' for Active; 'I' for Inactive)
REMARK    1  A    between atoms: C_4  and  C_5
REMARK    2  A    between atoms: C_17  and  C_18
REMARK    3  A    between atoms: C_21  and  O_22
REMARK    4  A    between atoms: C_23  and  O_24
REMARK                            x       y       z     vdW  Elec       q    Type
REMARK                         _______ _______ _______ _____ _____    ______ ____
ROOT
ATOM      1  O   UNL     1      -0.554  14.054  19.385  0.00  0.00    +0.000 OA
ATOM      2  C   UNL     1      -0.860  14.126  20.559  0.00  0.00    +0.000 C 
ATOM      3  C   UNL     1      -1.476  13.054  21.398  0.00  0.00    +0.000 C 
ATOM      4  C   UNL     1      -2.051  11.924  20.962  0.00  0.00    +0.000 C 
ATOM      5  S   UNL     1      -1.401  13.558  23.068  0.00  0.00    +0.000 S 
ATOM      6  C   UNL     1      -0.744  15.094  22.554  0.00  0.00    +0.000 A 
ATOM      7  S   UNL     1      -0.248  16.436  23.447  0.00  0.00    +0.000 S 
ATOM      8  C   UNL     1       0.152  17.287  21.992  0.00  0.00    +0.000 A 
ATOM      9  C   UNL     1      -0.124  16.517  20.868  0.00  0.00    +0.000 A 
ATOM     10  N   UNL     1      -0.567  15.269  21.267  0.00  0.00    +0.000 N 
ENDROOT
BRANCH   4  11
ATOM     11  C   UNL     1      -2.193  11.599  19.534  0.00  0.00    +0.000 A 
ATOM     12  C   UNL     1      -3.378  11.956  18.875  0.00  0.00    +0.000 A 
ATOM     13  C   UNL     1      -3.579  11.589  17.543  0.00  0.00    +0.000 A 
ATOM     14  C   UNL     1      -2.596  10.880  16.856  0.00  0.00    +0.000 A 
ATOM     15 CL   UNL     1      -2.861  10.418  15.222  0.00  0.00    +0.000 Cl
ATOM     16  C   UNL     1      -1.406  10.528  17.489  0.00  0.00    +0.000 A 
ATOM     17  C   UNL     1      -1.209  10.880  18.827  0.00  0.00    +0.000 A 
ATOM     18 CL   UNL     1       0.247  10.359  19.598  0.00  0.00    +0.000 Cl
ENDBRANCH   4  11
BRANCH   9  19
ATOM     19  C   UNL     1      -0.002  17.044  19.504  0.00  0.00    +0.000 A 
ATOM     20  C   UNL     1      -1.095  17.644  18.849  0.00  0.00    +0.000 A 
ATOM     21  C   UNL     1      -0.986  18.143  17.542  0.00  0.00    +0.000 A 
ATOM     22  C   UNL     1       0.247  18.121  16.913  0.00  0.00    +0.000 A 
ATOM     23  C   UNL     1       1.348  17.588  17.570  0.00  0.00    +0.000 A 
ATOM     24  C   UNL     1       1.235  17.032  18.841  0.00  0.00    +0.000 A 
BRANCH  22  25
ATOM     25  O   UNL     1       0.433  18.629  15.660  0.00  0.00    +0.000 OA
ATOM     26  H   UNL     1      -0.318  19.203  15.431  0.00  0.00    +0.000 HD
ENDBRANCH  22  25
BRANCH  23  27
ATOM     27  O   UNL     1       2.577  17.619  16.977  0.00  0.00    +0.000 OA
ATOM     28  H   UNL     1       2.426  18.021  16.096  0.00  0.00    +0.000 HD
ENDBRANCH  23  27
ENDBRANCH   9  19
TORSDOF 4
ENDMDL
