MODEL 1
REMARK VINA RESULT:      -7.7      0.000      0.000
REMARK  Name = 
REMARK  9 active torsions:
REMARK  status: ('A' for Active; 'I' for Inactive)
REMARK    1  A    between atoms: C_1  and  S_2
REMARK    2  A    between atoms: S_2  and  C_3
REMARK    3  A    between atoms: C_6  and  C_7
REMARK    4  A    between atoms: C_7  and  C_8
REMARK    5  A    between atoms: C_8  and  N_9
REMARK    6  A    between atoms: C_10  and  C_12
REMARK    7  A    between atoms: C_14  and  C_15
REMARK    8  A    between atoms: C_19  and  C_20
REMARK    9  A    between atoms: N_22  and  C_23
REMARK                            x       y       z     vdW  Elec       q    Type
REMARK                         _______ _______ _______ _____ _____    ______ ____
ROOT
ATOM      1  C   UNL     1       1.433   7.553  20.473  0.00  0.00    +0.000 A 
ATOM      2  C   UNL     1       0.816   7.863  21.697  0.00  0.00    +0.000 A 
ATOM      3  C   UNL     1       0.407   9.160  21.942  0.00  0.00    +0.000 A 
ATOM      4  C   UNL     1      -0.268   9.511  23.237  0.00  0.00    +0.000 C 
ATOM      5  N   UNL     1       0.580  10.169  21.076  0.00  0.00    +0.000 NA
ATOM      6  C   UNL     1       1.160   9.846  19.898  0.00  0.00    +0.000 A 
ATOM      7  C   UNL     1       1.590   8.579  19.513  0.00  0.00    +0.000 A 
ATOM      8  C   UNL     1       2.060   8.757  18.186  0.00  0.00    +0.000 A 
ATOM      9  C   UNL     1       2.617   7.768  17.226  0.00  0.00    +0.000 C 
ATOM     10  N   UNL     1       1.934  10.023  17.770  0.00  0.00    +0.000 NA
ATOM     11  N   UNL     1       1.444  10.707  18.841  0.00  0.00    +0.000 N 
ENDROOT
BRANCH  11  12
ATOM     12  C   UNL     1       1.299  12.126  18.788  0.00  0.00    +0.000 A 
ATOM     13  C   UNL     1       0.021  12.702  18.811  0.00  0.00    +0.000 A 
ATOM     14  C   UNL     1      -0.125  14.092  18.745  0.00  0.00    +0.000 A 
ATOM     15  C   UNL     1       0.997  14.913  18.640  0.00  0.00    +0.000 A 
ATOM     16  C   UNL     1       2.267  14.351  18.614  0.00  0.00    +0.000 A 
ATOM     17  C   UNL     1       2.418  12.967  18.692  0.00  0.00    +0.000 A 
ENDBRANCH  11  12
BRANCH   1  19
ATOM     18  N   UNL     1       3.314   6.093  19.931  0.00  0.00    +0.000 N 
ATOM     19  C   UNL     1       1.974   6.198  20.269  0.00  0.00    +0.000 C 
ATOM     20  O   UNL     1       1.241   5.220  20.359  0.00  0.00    +0.000 OA
ATOM     21  H   UNL     1       3.923   6.901  20.002  0.00  0.00    +0.000 HD
BRANCH  18  22
ATOM     22  C   UNL     1       3.884   4.774  19.721  0.00  0.00    +0.000 C 
BRANCH  22  23
ATOM     23  C   UNL     1       5.397   4.795  19.514  0.00  0.00    +0.000 C 
BRANCH  23  27
ATOM     24  C   UNL     1       6.535   4.602  15.336  0.00  0.00    +0.000 A 
ATOM     25  C   UNL     1       7.509   4.675  16.335  0.00  0.00    +0.000 A 
ATOM     26  C   UNL     1       7.137   4.729  17.682  0.00  0.00    +0.000 A 
ATOM     27  C   UNL     1       5.785   4.713  18.053  0.00  0.00    +0.000 A 
ATOM     28  C   UNL     1       4.811   4.643  17.047  0.00  0.00    +0.000 A 
ATOM     29  C   UNL     1       5.186   4.596  15.700  0.00  0.00    +0.000 A 
BRANCH  24  31
ATOM     30  C   UNL     1       5.675   3.496  12.961  0.00  0.00    +0.000 C 
ATOM     31  S   UNL     1       6.974   4.583  13.607  0.00  0.00    +0.000 S 
ENDBRANCH  24  31
ENDBRANCH  23  27
ENDBRANCH  22  23
ENDBRANCH  18  22
ENDBRANCH   1  19
TORSDOF 6
ENDMDL
MODEL 2
REMARK VINA RESULT:      -7.7      0.578      1.033
REMARK  Name = 
REMARK  9 active torsions:
REMARK  status: ('A' for Active; 'I' for Inactive)
REMARK    1  A    between atoms: C_1  and  S_2
REMARK    2  A    between atoms: S_2  and  C_3
REMARK    3  A    between atoms: C_6  and  C_7
REMARK    4  A    between atoms: C_7  and  C_8
REMARK    5  A    between atoms: C_8  and  N_9
REMARK    6  A    between atoms: C_10  and  C_12
REMARK    7  A    between atoms: C_14  and  C_15
REMARK    8  A    between atoms: C_19  and  C_20
REMARK    9  A    between atoms: N_22  and  C_23
REMARK                            x       y       z     vdW  Elec       q    Type
REMARK                         _______ _______ _______ _____ _____    ______ ____
ROOT
ATOM      1  C   UNL     1       1.519   7.527  20.418  0.00  0.00    +0.000 A 
ATOM      2  C   UNL     1       0.872   7.825  21.628  0.00  0.00    +0.000 A 
ATOM      3  C   UNL     1       0.430   9.112  21.865  0.00  0.00    +0.000 A 
ATOM      4  C   UNL     1      -0.277   9.449  23.147  0.00  0.00    +0.000 C 
ATOM      5  N   UNL     1       0.599  10.125  21.003  0.00  0.00    +0.000 NA
ATOM      6  C   UNL     1       1.209   9.814  19.836  0.00  0.00    +0.000 A 
ATOM      7  C   UNL     1       1.673   8.557  19.460  0.00  0.00    +0.000 A 
ATOM      8  C   UNL     1       2.164   8.744  18.142  0.00  0.00    +0.000 A 
ATOM      9  C   UNL     1       2.761   7.767  17.193  0.00  0.00    +0.000 C 
ATOM     10  N   UNL     1       2.020  10.008  17.723  0.00  0.00    +0.000 NA
ATOM     11  N   UNL     1       1.495  10.681  18.784  0.00  0.00    +0.000 N 
ENDROOT
BRANCH  11  12
ATOM     12  C   UNL     1       1.321  12.096  18.728  0.00  0.00    +0.000 A 
ATOM     13  C   UNL     1       0.031  12.646  18.722  0.00  0.00    +0.000 A 
ATOM     14  C   UNL     1      -0.143  14.032  18.653  0.00  0.00    +0.000 A 
ATOM     15  C   UNL     1       0.964  14.877  18.573  0.00  0.00    +0.000 A 
ATOM     16  C   UNL     1       2.245  14.342  18.575  0.00  0.00    +0.000 A 
ATOM     17  C   UNL     1       2.424  12.961  18.657  0.00  0.00    +0.000 A 
ENDBRANCH  11  12
BRANCH   1  19
ATOM     18  N   UNL     1       3.431   6.109  19.871  0.00  0.00    +0.000 N 
ATOM     19  C   UNL     1       2.093   6.184  20.224  0.00  0.00    +0.000 C 
ATOM     20  O   UNL     1       1.386   5.189  20.336  0.00  0.00    +0.000 OA
ATOM     21  H   UNL     1       4.019   6.933  19.924  0.00  0.00    +0.000 HD
BRANCH  18  22
ATOM     22  C   UNL     1       4.032   4.803  19.672  0.00  0.00    +0.000 C 
BRANCH  22  23
ATOM     23  C   UNL     1       5.502   4.869  19.263  0.00  0.00    +0.000 C 
BRANCH  23  27
ATOM     24  C   UNL     1       6.054   4.255  15.008  0.00  0.00    +0.000 A 
ATOM     25  C   UNL     1       4.823   3.989  15.610  0.00  0.00    +0.000 A 
ATOM     26  C   UNL     1       4.647   4.196  16.982  0.00  0.00    +0.000 A 
ATOM     27  C   UNL     1       5.701   4.672  17.776  0.00  0.00    +0.000 A 
ATOM     28  C   UNL     1       6.936   4.935  17.168  0.00  0.00    +0.000 A 
ATOM     29  C   UNL     1       7.111   4.719  15.796  0.00  0.00    +0.000 A 
BRANCH  24  31
ATOM     30  C   UNL     1       7.746   5.042  12.978  0.00  0.00    +0.000 C 
ATOM     31  S   UNL     1       6.326   3.954  13.271  0.00  0.00    +0.000 S 
ENDBRANCH  24  31
ENDBRANCH  23  27
ENDBRANCH  22  23
ENDBRANCH  18  22
ENDBRANCH   1  19
TORSDOF 6
ENDMDL
MODEL 3
REMARK VINA RESULT:      -7.6      4.371      6.423
REMARK  Name = 
REMARK  9 active torsions:
REMARK  status: ('A' for Active; 'I' for Inactive)
REMARK    1  A    between atoms: C_1  and  S_2
REMARK    2  A    between atoms: S_2  and  C_3
REMARK    3  A    between atoms: C_6  and  C_7
REMARK    4  A    between atoms: C_7  and  C_8
REMARK    5  A    between atoms: C_8  and  N_9
REMARK    6  A    between atoms: C_10  and  C_12
REMARK    7  A    between atoms: C_14  and  C_15
REMARK    8  A    between atoms: C_19  and  C_20
REMARK    9  A    between atoms: N_22  and  C_23
REMARK                            x       y       z     vdW  Elec       q    Type
REMARK                         _______ _______ _______ _____ _____    ______ ____
ROOT
ATOM      1  C   UNL     1      -1.222  10.625  18.537  0.00  0.00    +0.000 A 
ATOM      2  C   UNL     1      -1.757  10.288  17.283  0.00  0.00    +0.000 A 
ATOM      3  C   UNL     1      -3.017  10.739  16.937  0.00  0.00    +0.000 A 
ATOM      4  C   UNL     1      -3.601  10.403  15.595  0.00  0.00    +0.000 C 
ATOM      5  N   UNL     1      -3.788  11.478  17.746  0.00  0.00    +0.000 NA
ATOM      6  C   UNL     1      -3.249  11.805  18.943  0.00  0.00    +0.000 A 
ATOM      7  C   UNL     1      -1.985  11.445  19.401  0.00  0.00    +0.000 A 
ATOM      8  C   UNL     1      -1.876  12.081  20.665  0.00  0.00    +0.000 A 
ATOM      9  C   UNL     1      -0.749  12.101  21.634  0.00  0.00    +0.000 C 
ATOM     10  N   UNL     1      -2.974  12.783  20.975  0.00  0.00    +0.000 NA
ATOM     11  N   UNL     1      -3.843  12.562  19.950  0.00  0.00    +0.000 N 
ENDROOT
BRANCH  11  12
ATOM     12  C   UNL     1      -5.176  13.068  20.011  0.00  0.00    +0.000 A 
ATOM     13  C   UNL     1      -5.404  14.452  19.975  0.00  0.00    +0.000 A 
ATOM     14  C   UNL     1      -6.708  14.952  20.048  0.00  0.00    +0.000 A 
ATOM     15  C   UNL     1      -7.790  14.080  20.174  0.00  0.00    +0.000 A 
ATOM     16  C   UNL     1      -7.574  12.709  20.214  0.00  0.00    +0.000 A 
ATOM     17  C   UNL     1      -6.276  12.206  20.128  0.00  0.00    +0.000 A 
ENDBRANCH  11  12
BRANCH   1  19
ATOM     18  N   UNL     1       1.070   9.987  17.989  0.00  0.00    +0.000 N 
ATOM     19  C   UNL     1       0.068  10.043  18.945  0.00  0.00    +0.000 C 
ATOM     20  O   UNL     1       0.213   9.594  20.076  0.00  0.00    +0.000 OA
ATOM     21  H   UNL     1       0.968  10.489  17.114  0.00  0.00    +0.000 HD
BRANCH  18  22
ATOM     22  C   UNL     1       2.356   9.420  18.352  0.00  0.00    +0.000 C 
BRANCH  22  23
ATOM     23  C   UNL     1       2.688   8.137  17.592  0.00  0.00    +0.000 C 
BRANCH  23  27
ATOM     24  C   UNL     1       1.697   4.560  19.831  0.00  0.00    +0.000 A 
ATOM     25  C   UNL     1       1.821   4.517  18.440  0.00  0.00    +0.000 A 
ATOM     26  C   UNL     1       2.148   5.672  17.723  0.00  0.00    +0.000 A 
ATOM     27  C   UNL     1       2.356   6.891  18.384  0.00  0.00    +0.000 A 
ATOM     28  C   UNL     1       2.228   6.930  19.779  0.00  0.00    +0.000 A 
ATOM     29  C   UNL     1       1.893   5.774  20.493  0.00  0.00    +0.000 A 
BRANCH  24  31
ATOM     30  C   UNL     1       2.836   2.669  21.483  0.00  0.00    +0.000 C 
ATOM     31  S   UNL     1       1.231   3.117  20.769  0.00  0.00    +0.000 S 
ENDBRANCH  24  31
ENDBRANCH  23  27
ENDBRANCH  22  23
ENDBRANCH  18  22
ENDBRANCH   1  19
TORSDOF 6
ENDMDL
MODEL 4
REMARK VINA RESULT:      -7.5      3.618      5.809
REMARK  Name = 
REMARK  9 active torsions:
REMARK  status: ('A' for Active; 'I' for Inactive)
REMARK    1  A    between atoms: C_1  and  S_2
REMARK    2  A    between atoms: S_2  and  C_3
REMARK    3  A    between atoms: C_6  and  C_7
REMARK    4  A    between atoms: C_7  and  C_8
REMARK    5  A    between atoms: C_8  and  N_9
REMARK    6  A    between atoms: C_10  and  C_12
REMARK    7  A    between atoms: C_14  and  C_15
REMARK    8  A    between atoms: C_19  and  C_20
REMARK    9  A    between atoms: N_22  and  C_23
REMARK                            x       y       z     vdW  Elec       q    Type
REMARK                         _______ _______ _______ _____ _____    ______ ____
ROOT
ATOM      1  C   UNL     1      -0.037  11.784  19.190  0.00  0.00    +0.000 A 
ATOM      2  C   UNL     1       0.021  13.042  18.568  0.00  0.00    +0.000 A 
ATOM      3  C   UNL     1      -0.339  14.170  19.280  0.00  0.00    +0.000 A 
ATOM      4  C   UNL     1      -0.272  15.526  18.638  0.00  0.00    +0.000 C 
ATOM      5  N   UNL     1      -0.767  14.141  20.550  0.00  0.00    +0.000 NA
ATOM      6  C   UNL     1      -0.799  12.923  21.136  0.00  0.00    +0.000 A 
ATOM      7  C   UNL     1      -0.436  11.715  20.545  0.00  0.00    +0.000 A 
ATOM      8  C   UNL     1      -0.585  10.759  21.583  0.00  0.00    +0.000 A 
ATOM      9  C   UNL     1      -0.323   9.296  21.582  0.00  0.00    +0.000 C 
ATOM     10  N   UNL     1      -1.003  11.314  22.727  0.00  0.00    +0.000 NA
ATOM     11  N   UNL     1      -1.198  12.631  22.438  0.00  0.00    +0.000 N 
ENDROOT
BRANCH  11  12
ATOM     12  C   UNL     1      -1.764  13.508  23.411  0.00  0.00    +0.000 A 
ATOM     13  C   UNL     1      -3.100  13.348  23.808  0.00  0.00    +0.000 A 
ATOM     14  C   UNL     1      -3.661  14.214  24.752  0.00  0.00    +0.000 A 
ATOM     15  C   UNL     1      -2.904  15.253  25.292  0.00  0.00    +0.000 A 
ATOM     16  C   UNL     1      -1.581  15.421  24.902  0.00  0.00    +0.000 A 
ATOM     17  C   UNL     1      -1.014  14.552  23.971  0.00  0.00    +0.000 A 
ENDBRANCH  11  12
BRANCH   1  19
ATOM     18  N   UNL     1       1.557  10.196  18.239  0.00  0.00    +0.000 N 
ATOM     19  C   UNL     1       0.233  10.577  18.390  0.00  0.00    +0.000 C 
ATOM     20  O   UNL     1      -0.690   9.973  17.854  0.00  0.00    +0.000 OA
ATOM     21  H   UNL     1       2.279  10.629  18.804  0.00  0.00    +0.000 HD
BRANCH  18  22
ATOM     22  C   UNL     1       1.862   9.012  17.457  0.00  0.00    +0.000 C 
BRANCH  22  23
ATOM     23  C   UNL     1       3.077   8.243  17.973  0.00  0.00    +0.000 C 
BRANCH  23  27
ATOM     24  C   UNL     1       1.971   4.435  19.726  0.00  0.00    +0.000 A 
ATOM     25  C   UNL     1       2.488   4.498  18.429  0.00  0.00    +0.000 A 
ATOM     26  C   UNL     1       2.850   5.728  17.871  0.00  0.00    +0.000 A 
ATOM     27  C   UNL     1       2.701   6.917  18.599  0.00  0.00    +0.000 A 
ATOM     28  C   UNL     1       2.180   6.850  19.899  0.00  0.00    +0.000 A 
ATOM     29  C   UNL     1       1.810   5.618  20.451  0.00  0.00    +0.000 A 
BRANCH  24  31
ATOM     30  C   UNL     1       0.638   2.128  19.017  0.00  0.00    +0.000 C 
ATOM     31  S   UNL     1       1.452   2.889  20.447  0.00  0.00    +0.000 S 
ENDBRANCH  24  31
ENDBRANCH  23  27
ENDBRANCH  22  23
ENDBRANCH  18  22
ENDBRANCH   1  19
TORSDOF 6
ENDMDL
MODEL 5
REMARK VINA RESULT:      -7.5      3.357      8.272
REMARK  Name = 
REMARK  9 active torsions:
REMARK  status: ('A' for Active; 'I' for Inactive)
REMARK    1  A    between atoms: C_1  and  S_2
REMARK    2  A    between atoms: S_2  and  C_3
REMARK    3  A    between atoms: C_6  and  C_7
REMARK    4  A    between atoms: C_7  and  C_8
REMARK    5  A    between atoms: C_8  and  N_9
REMARK    6  A    between atoms: C_10  and  C_12
REMARK    7  A    between atoms: C_14  and  C_15
REMARK    8  A    between atoms: C_19  and  C_20
REMARK    9  A    between atoms: N_22  and  C_23
REMARK                            x       y       z     vdW  Elec       q    Type
REMARK                         _______ _______ _______ _____ _____    ______ ____
ROOT
ATOM      1  C   UNL     1       1.568   6.881  20.530  0.00  0.00    +0.000 A 
ATOM      2  C   UNL     1       1.654   5.646  21.195  0.00  0.00    +0.000 A 
ATOM      3  C   UNL     1       2.452   4.646  20.671  0.00  0.00    +0.000 A 
ATOM      4  C   UNL     1       2.569   3.324  21.372  0.00  0.00    +0.000 C 
ATOM      5  N   UNL     1       3.151   4.774  19.535  0.00  0.00    +0.000 NA
ATOM      6  C   UNL     1       3.068   5.975  18.920  0.00  0.00    +0.000 A 
ATOM      7  C   UNL     1       2.329   7.073  19.354  0.00  0.00    +0.000 A 
ATOM      8  C   UNL     1       2.624   8.090  18.410  0.00  0.00    +0.000 A 
ATOM      9  C   UNL     1       2.164   9.502  18.346  0.00  0.00    +0.000 C 
ATOM     10  N   UNL     1       3.476   7.672  17.465  0.00  0.00    +0.000 NA
ATOM     11  N   UNL     1       3.698   6.356  17.737  0.00  0.00    +0.000 N 
ENDROOT
BRANCH  11  12
ATOM     12  C   UNL     1       4.475   5.555  16.848  0.00  0.00    +0.000 A 
ATOM     13  C   UNL     1       5.219   6.162  15.825  0.00  0.00    +0.000 A 
ATOM     14  C   UNL     1       5.971   5.378  14.943  0.00  0.00    +0.000 A 
ATOM     15  C   UNL     1       5.974   3.989  15.064  0.00  0.00    +0.000 A 
ATOM     16  C   UNL     1       5.238   3.379  16.072  0.00  0.00    +0.000 A 
ATOM     17  C   UNL     1       4.497   4.157  16.961  0.00  0.00    +0.000 A 
ENDBRANCH  11  12
BRANCH   1  19
ATOM     18  N   UNL     1       1.152   9.117  21.419  0.00  0.00    +0.000 N 
ATOM     19  C   UNL     1       0.624   7.897  21.029  0.00  0.00    +0.000 C 
ATOM     20  O   UNL     1      -0.570   7.636  21.123  0.00  0.00    +0.000 OA
ATOM     21  H   UNL     1       2.114   9.351  21.199  0.00  0.00    +0.000 HD
BRANCH  18  22
ATOM     22  C   UNL     1       0.254  10.144  21.916  0.00  0.00    +0.000 C 
BRANCH  22  23
ATOM     23  C   UNL     1       0.216  11.392  21.036  0.00  0.00    +0.000 C 
BRANCH  23  27
ATOM     24  C   UNL     1      -3.172  11.385  18.332  0.00  0.00    +0.000 A 
ATOM     25  C   UNL     1      -3.126  12.270  19.411  0.00  0.00    +0.000 A 
ATOM     26  C   UNL     1      -2.027  12.274  20.277  0.00  0.00    +0.000 A 
ATOM     27  C   UNL     1      -0.956  11.391  20.078  0.00  0.00    +0.000 A 
ATOM     28  C   UNL     1      -1.008  10.503  18.995  0.00  0.00    +0.000 A 
ATOM     29  C   UNL     1      -2.112  10.496  18.136  0.00  0.00    +0.000 A 
BRANCH  24  31
ATOM     30  C   UNL     1      -3.764  10.845  15.694  0.00  0.00    +0.000 C 
ATOM     31  S   UNL     1      -4.581  11.319  17.241  0.00  0.00    +0.000 S 
ENDBRANCH  24  31
ENDBRANCH  23  27
ENDBRANCH  22  23
ENDBRANCH  18  22
ENDBRANCH   1  19
TORSDOF 6
ENDMDL
MODEL 6
REMARK VINA RESULT:      -7.5      1.435      2.232
REMARK  Name = 
REMARK  9 active torsions:
REMARK  status: ('A' for Active; 'I' for Inactive)
REMARK    1  A    between atoms: C_1  and  S_2
REMARK    2  A    between atoms: S_2  and  C_3
REMARK    3  A    between atoms: C_6  and  C_7
REMARK    4  A    between atoms: C_7  and  C_8
REMARK    5  A    between atoms: C_8  and  N_9
REMARK    6  A    between atoms: C_10  and  C_12
REMARK    7  A    between atoms: C_14  and  C_15
REMARK    8  A    between atoms: C_19  and  C_20
REMARK    9  A    between atoms: N_22  and  C_23
REMARK                            x       y       z     vdW  Elec       q    Type
REMARK                         _______ _______ _______ _____ _____    ______ ____
ROOT
ATOM      1  C   UNL     1       1.165   7.919  20.661  0.00  0.00    +0.000 A 
ATOM      2  C   UNL     1       0.460   8.269  21.825  0.00  0.00    +0.000 A 
ATOM      3  C   UNL     1       0.047   9.576  22.002  0.00  0.00    +0.000 A 
ATOM      4  C   UNL     1      -0.721   9.969  23.232  0.00  0.00    +0.000 C 
ATOM      5  N   UNL     1       0.296  10.559  21.125  0.00  0.00    +0.000 NA
ATOM      6  C   UNL     1       0.961  10.198  20.005  0.00  0.00    +0.000 A 
ATOM      7  C   UNL     1       1.406   8.917  19.688  0.00  0.00    +0.000 A 
ATOM      8  C   UNL     1       1.977   9.053  18.396  0.00  0.00    +0.000 A 
ATOM      9  C   UNL     1       2.595   8.033  17.509  0.00  0.00    +0.000 C 
ATOM     10  N   UNL     1       1.897  10.308  17.937  0.00  0.00    +0.000 NA
ATOM     11  N   UNL     1       1.335  11.026  18.949  0.00  0.00    +0.000 N 
ENDROOT
BRANCH  11  12
ATOM     12  C   UNL     1       1.209  12.444  18.846  0.00  0.00    +0.000 A 
ATOM     13  C   UNL     1       2.356  13.252  18.839  0.00  0.00    +0.000 A 
ATOM     14  C   UNL     1       2.235  14.643  18.752  0.00  0.00    +0.000 A 
ATOM     15  C   UNL     1       0.975  15.237  18.687  0.00  0.00    +0.000 A 
ATOM     16  C   UNL     1      -0.166  14.445  18.696  0.00  0.00    +0.000 A 
ATOM     17  C   UNL     1      -0.050  13.058  18.770  0.00  0.00    +0.000 A 
ENDBRANCH  11  12
BRANCH   1  19
ATOM     18  N   UNL     1       0.796   5.509  20.531  0.00  0.00    +0.000 N 
ATOM     19  C   UNL     1       1.706   6.554  20.536  0.00  0.00    +0.000 C 
ATOM     20  O   UNL     1       2.916   6.372  20.481  0.00  0.00    +0.000 OA
ATOM     21  H   UNL     1      -0.196   5.697  20.436  0.00  0.00    +0.000 HD
BRANCH  18  22
ATOM     22  C   UNL     1       1.290   4.149  20.409  0.00  0.00    +0.000 C 
BRANCH  22  23
ATOM     23  C   UNL     1       1.494   3.707  18.961  0.00  0.00    +0.000 C 
BRANCH  23  27
ATOM     24  C   UNL     1       5.573   4.341  17.638  0.00  0.00    +0.000 A 
ATOM     25  C   UNL     1       5.310   3.856  18.921  0.00  0.00    +0.000 A 
ATOM     26  C   UNL     1       3.992   3.646  19.341  0.00  0.00    +0.000 A 
ATOM     27  C   UNL     1       2.915   3.918  18.485  0.00  0.00    +0.000 A 
ATOM     28  C   UNL     1       3.185   4.408  17.199  0.00  0.00    +0.000 A 
ATOM     29  C   UNL     1       4.504   4.624  16.785  0.00  0.00    +0.000 A 
BRANCH  24  31
ATOM     30  C   UNL     1       7.265   6.476  17.215  0.00  0.00    +0.000 C 
ATOM     31  S   UNL     1       7.239   4.668  17.090  0.00  0.00    +0.000 S 
ENDBRANCH  24  31
ENDBRANCH  23  27
ENDBRANCH  22  23
ENDBRANCH  18  22
ENDBRANCH   1  19
TORSDOF 6
ENDMDL
MODEL 7
REMARK VINA RESULT:      -7.4      1.266      1.852
REMARK  Name = 
REMARK  9 active torsions:
REMARK  status: ('A' for Active; 'I' for Inactive)
REMARK    1  A    between atoms: C_1  and  S_2
REMARK    2  A    between atoms: S_2  and  C_3
REMARK    3  A    between atoms: C_6  and  C_7
REMARK    4  A    between atoms: C_7  and  C_8
REMARK    5  A    between atoms: C_8  and  N_9
REMARK    6  A    between atoms: C_10  and  C_12
REMARK    7  A    between atoms: C_14  and  C_15
REMARK    8  A    between atoms: C_19  and  C_20
REMARK    9  A    between atoms: N_22  and  C_23
REMARK                            x       y       z     vdW  Elec       q    Type
REMARK                         _______ _______ _______ _____ _____    ______ ____
ROOT
ATOM      1  C   UNL     1       1.182   7.934  20.669  0.00  0.00    +0.000 A 
ATOM      2  C   UNL     1       0.468   8.282  21.828  0.00  0.00    +0.000 A 
ATOM      3  C   UNL     1       0.050   9.587  22.002  0.00  0.00    +0.000 A 
ATOM      4  C   UNL     1      -0.727   9.978  23.227  0.00  0.00    +0.000 C 
ATOM      5  N   UNL     1       0.302  10.570  21.127  0.00  0.00    +0.000 NA
ATOM      6  C   UNL     1       0.975  10.211  20.010  0.00  0.00    +0.000 A 
ATOM      7  C   UNL     1       1.426   8.931  19.697  0.00  0.00    +0.000 A 
ATOM      8  C   UNL     1       2.005   9.069  18.409  0.00  0.00    +0.000 A 
ATOM      9  C   UNL     1       2.631   8.051  17.526  0.00  0.00    +0.000 C 
ATOM     10  N   UNL     1       1.924  10.324  17.949  0.00  0.00    +0.000 NA
ATOM     11  N   UNL     1       1.352  11.041  18.957  0.00  0.00    +0.000 N 
ENDROOT
BRANCH  11  12
ATOM     12  C   UNL     1       1.223  12.458  18.852  0.00  0.00    +0.000 A 
ATOM     13  C   UNL     1      -0.050  13.047  18.826  0.00  0.00    +0.000 A 
ATOM     14  C   UNL     1      -0.179  14.435  18.710  0.00  0.00    +0.000 A 
ATOM     15  C   UNL     1       0.953  15.241  18.604  0.00  0.00    +0.000 A 
ATOM     16  C   UNL     1       2.217  14.666  18.626  0.00  0.00    +0.000 A 
ATOM     17  C   UNL     1       2.352  13.284  18.754  0.00  0.00    +0.000 A 
ENDBRANCH  11  12
BRANCH   1  19
ATOM     18  N   UNL     1       0.824   5.520  20.571  0.00  0.00    +0.000 N 
ATOM     19  C   UNL     1       1.727   6.570  20.548  0.00  0.00    +0.000 C 
ATOM     20  O   UNL     1       2.938   6.394  20.472  0.00  0.00    +0.000 OA
ATOM     21  H   UNL     1      -0.171   5.701  20.492  0.00  0.00    +0.000 HD
BRANCH  18  22
ATOM     22  C   UNL     1       1.323   4.162  20.454  0.00  0.00    +0.000 C 
BRANCH  22  23
ATOM     23  C   UNL     1       1.485   3.699  19.007  0.00  0.00    +0.000 C 
BRANCH  23  27
ATOM     24  C   UNL     1       5.517   4.340  17.548  0.00  0.00    +0.000 A 
ATOM     25  C   UNL     1       5.297   3.801  18.818  0.00  0.00    +0.000 A 
ATOM     26  C   UNL     1       3.995   3.589  19.281  0.00  0.00    +0.000 A 
ATOM     27  C   UNL     1       2.889   3.913  18.483  0.00  0.00    +0.000 A 
ATOM     28  C   UNL     1       3.113   4.457  17.210  0.00  0.00    +0.000 A 
ATOM     29  C   UNL     1       4.418   4.675  16.753  0.00  0.00    +0.000 A 
BRANCH  24  31
ATOM     30  C   UNL     1       6.881   4.548  15.161  0.00  0.00    +0.000 C 
ATOM     31  S   UNL     1       7.163   4.670  16.948  0.00  0.00    +0.000 S 
ENDBRANCH  24  31
ENDBRANCH  23  27
ENDBRANCH  22  23
ENDBRANCH  18  22
ENDBRANCH   1  19
TORSDOF 6
ENDMDL
MODEL 8
REMARK VINA RESULT:      -7.4      1.247      2.145
REMARK  Name = 
REMARK  9 active torsions:
REMARK  status: ('A' for Active; 'I' for Inactive)
REMARK    1  A    between atoms: C_1  and  S_2
REMARK    2  A    between atoms: S_2  and  C_3
REMARK    3  A    between atoms: C_6  and  C_7
REMARK    4  A    between atoms: C_7  and  C_8
REMARK    5  A    between atoms: C_8  and  N_9
REMARK    6  A    between atoms: C_10  and  C_12
REMARK    7  A    between atoms: C_14  and  C_15
REMARK    8  A    between atoms: C_19  and  C_20
REMARK    9  A    between atoms: N_22  and  C_23
REMARK                            x       y       z     vdW  Elec       q    Type
REMARK                         _______ _______ _______ _____ _____    ______ ____
ROOT
ATOM      1  C   UNL     1       1.187   7.896  20.677  0.00  0.00    +0.000 A 
ATOM      2  C   UNL     1       0.485   8.254  21.840  0.00  0.00    +0.000 A 
ATOM      3  C   UNL     1       0.066   9.561  22.006  0.00  0.00    +0.000 A 
ATOM      4  C   UNL     1      -0.699   9.962  23.235  0.00  0.00    +0.000 C 
ATOM      5  N   UNL     1       0.307  10.536  21.119  0.00  0.00    +0.000 NA
ATOM      6  C   UNL     1       0.970  10.167  19.999  0.00  0.00    +0.000 A 
ATOM      7  C   UNL     1       1.419   8.886  19.693  0.00  0.00    +0.000 A 
ATOM      8  C   UNL     1       1.984   9.012  18.398  0.00  0.00    +0.000 A 
ATOM      9  C   UNL     1       2.603   7.987  17.518  0.00  0.00    +0.000 C 
ATOM     10  N   UNL     1       1.897  10.263  17.927  0.00  0.00    +0.000 NA
ATOM     11  N   UNL     1       1.334  10.988  18.934  0.00  0.00    +0.000 N 
ENDROOT
BRANCH  11  12
ATOM     12  C   UNL     1       1.202  12.404  18.818  0.00  0.00    +0.000 A 
ATOM     13  C   UNL     1       2.345  13.211  18.721  0.00  0.00    +0.000 A 
ATOM     14  C   UNL     1       2.218  14.600  18.620  0.00  0.00    +0.000 A 
ATOM     15  C   UNL     1       0.956  15.194  18.633  0.00  0.00    +0.000 A 
ATOM     16  C   UNL     1      -0.181  14.404  18.732  0.00  0.00    +0.000 A 
ATOM     17  C   UNL     1      -0.060  13.017  18.819  0.00  0.00    +0.000 A 
ENDBRANCH  11  12
BRANCH   1  19
ATOM     18  N   UNL     1       0.828   5.484  20.560  0.00  0.00    +0.000 N 
ATOM     19  C   UNL     1       1.733   6.533  20.562  0.00  0.00    +0.000 C 
ATOM     20  O   UNL     1       2.945   6.356  20.513  0.00  0.00    +0.000 OA
ATOM     21  H   UNL     1      -0.164   5.667  20.461  0.00  0.00    +0.000 HD
BRANCH  18  22
ATOM     22  C   UNL     1       1.328   4.125  20.449  0.00  0.00    +0.000 C 
BRANCH  22  23
ATOM     23  C   UNL     1       1.539   3.675  19.005  0.00  0.00    +0.000 C 
BRANCH  23  27
ATOM     24  C   UNL     1       5.564   4.392  17.562  0.00  0.00    +0.000 A 
ATOM     25  C   UNL     1       4.460   4.637  16.742  0.00  0.00    +0.000 A 
ATOM     26  C   UNL     1       3.164   4.411  17.214  0.00  0.00    +0.000 A 
ATOM     27  C   UNL     1       2.948   3.935  18.516  0.00  0.00    +0.000 A 
ATOM     28  C   UNL     1       4.058   3.688  19.335  0.00  0.00    +0.000 A 
ATOM     29  C   UNL     1       5.355   3.907  18.856  0.00  0.00    +0.000 A 
BRANCH  24  31
ATOM     30  C   UNL     1       6.937   4.644  15.184  0.00  0.00    +0.000 C 
ATOM     31  S   UNL     1       7.231   4.620  16.973  0.00  0.00    +0.000 S 
ENDBRANCH  24  31
ENDBRANCH  23  27
ENDBRANCH  22  23
ENDBRANCH  18  22
ENDBRANCH   1  19
TORSDOF 6
ENDMDL
MODEL 9
REMARK VINA RESULT:      -7.4      3.434      5.316
REMARK  Name = 
REMARK  9 active torsions:
REMARK  status: ('A' for Active; 'I' for Inactive)
REMARK    1  A    between atoms: C_1  and  S_2
REMARK    2  A    between atoms: S_2  and  C_3
REMARK    3  A    between atoms: C_6  and  C_7
REMARK    4  A    between atoms: C_7  and  C_8
REMARK    5  A    between atoms: C_8  and  N_9
REMARK    6  A    between atoms: C_10  and  C_12
REMARK    7  A    between atoms: C_14  and  C_15
REMARK    8  A    between atoms: C_19  and  C_20
REMARK    9  A    between atoms: N_22  and  C_23
REMARK                            x       y       z     vdW  Elec       q    Type
REMARK                         _______ _______ _______ _____ _____    ______ ____
ROOT
ATOM      1  C   UNL     1      -0.031  12.073  19.533  0.00  0.00    +0.000 A 
ATOM      2  C   UNL     1       0.013  13.290  18.832  0.00  0.00    +0.000 A 
ATOM      3  C   UNL     1      -0.377  14.454  19.465  0.00  0.00    +0.000 A 
ATOM      4  C   UNL     1      -0.325  15.768  18.738  0.00  0.00    +0.000 C 
ATOM      5  N   UNL     1      -0.823  14.498  20.728  0.00  0.00    +0.000 NA
ATOM      6  C   UNL     1      -0.842  13.320  21.391  0.00  0.00    +0.000 A 
ATOM      7  C   UNL     1      -0.449  12.084  20.884  0.00  0.00    +0.000 A 
ATOM      8  C   UNL     1      -0.596  11.193  21.979  0.00  0.00    +0.000 A 
ATOM      9  C   UNL     1      -0.308   9.738  22.076  0.00  0.00    +0.000 C 
ATOM     10  N   UNL     1      -1.041  11.813  23.079  0.00  0.00    +0.000 NA
ATOM     11  N   UNL     1      -1.255  13.104  22.704  0.00  0.00    +0.000 N 
ENDROOT
BRANCH  11  12
ATOM     12  C   UNL     1      -1.851  14.031  23.610  0.00  0.00    +0.000 A 
ATOM     13  C   UNL     1      -3.248  14.104  23.723  0.00  0.00    +0.000 A 
ATOM     14  C   UNL     1      -3.835  15.021  24.602  0.00  0.00    +0.000 A 
ATOM     15  C   UNL     1      -3.039  15.880  25.358  0.00  0.00    +0.000 A 
ATOM     16  C   UNL     1      -1.655  15.817  25.251  0.00  0.00    +0.000 A 
ATOM     17  C   UNL     1      -1.065  14.896  24.386  0.00  0.00    +0.000 A 
ENDBRANCH  11  12
BRANCH   1  19
ATOM     18  N   UNL     1       1.588  10.607  18.441  0.00  0.00    +0.000 N 
ATOM     19  C   UNL     1       0.272  10.822  18.816  0.00  0.00    +0.000 C 
ATOM     20  O   UNL     1      -0.628  10.038  18.536  0.00  0.00    +0.000 OA
ATOM     21  H   UNL     1       2.326  11.200  18.806  0.00  0.00    +0.000 HD
BRANCH  18  22
ATOM     22  C   UNL     1       1.926   9.387  17.732  0.00  0.00    +0.000 C 
BRANCH  22  23
ATOM     23  C   UNL     1       2.073   8.175  18.650  0.00  0.00    +0.000 C 
BRANCH  23  27
ATOM     24  C   UNL     1       4.558   5.095  16.880  0.00  0.00    +0.000 A 
ATOM     25  C   UNL     1       4.867   6.446  16.705  0.00  0.00    +0.000 A 
ATOM     26  C   UNL     1       4.066   7.436  17.284  0.00  0.00    +0.000 A 
ATOM     27  C   UNL     1       2.942   7.092  18.048  0.00  0.00    +0.000 A 
ATOM     28  C   UNL     1       2.634   5.735  18.219  0.00  0.00    +0.000 A 
ATOM     29  C   UNL     1       3.432   4.747  17.631  0.00  0.00    +0.000 A 
BRANCH  24  31
ATOM     30  C   UNL     1       5.715   4.505  14.448  0.00  0.00    +0.000 C 
ATOM     31  S   UNL     1       5.528   3.811  16.112  0.00  0.00    +0.000 S 
ENDBRANCH  24  31
ENDBRANCH  23  27
ENDBRANCH  22  23
ENDBRANCH  18  22
ENDBRANCH   1  19
TORSDOF 6
ENDMDL
