MODEL 1
REMARK VINA RESULT:      -6.0      0.000      0.000
REMARK  Name = 
REMARK  7 active torsions:
REMARK  status: ('A' for Active; 'I' for Inactive)
REMARK    1  A    between atoms: C_1  and  C_2
REMARK    2  A    between atoms: N_4  and  C_5
REMARK    3  A    between atoms: C_5  and  C_6
REMARK    4  A    between atoms: N_8  and  C_9
REMARK    5  A    between atoms: C_9  and  C_10
REMARK    6  A    between atoms: C_10  and  C_11
REMARK    7  A    between atoms: C_14  and  C_15
REMARK                            x       y       z     vdW  Elec       q    Type
REMARK                         _______ _______ _______ _____ _____    ______ ____
ROOT
ATOM      1  C   UNL     1       4.392   3.104  17.399  0.00  0.00    +0.000 C 
ENDROOT
BRANCH   1   5
ATOM      2  C   UNL     1       6.328   7.091  17.235  0.00  0.00    +0.000 C 
ATOM      3  C   UNL     1       7.108   5.781  17.161  0.00  0.00    +0.000 C 
ATOM      4  C   UNL     1       6.308   4.589  17.731  0.00  0.00    +0.000 C 
ATOM      5  N   UNL     1       5.160   4.244  16.857  0.00  0.00    +0.000 NA
ATOM      6  C   UNL     1       5.716   3.912  15.523  0.00  0.00    +0.000 C 
ATOM      7  C   UNL     1       6.493   5.117  14.947  0.00  0.00    +0.000 C 
ATOM      8  C   UNL     1       7.108   4.780  13.596  0.00  0.00    +0.000 C 
ATOM      9  O   UNL     1       7.561   5.511  15.823  0.00  0.00    +0.000 OA
ENDBRANCH   1   5
BRANCH   1  10
ATOM     10  C   UNL     1       2.982   3.548  17.813  0.00  0.00    +0.000 C 
ATOM     11  O   UNL     1       2.532   4.653  17.545  0.00  0.00    +0.000 OA
ATOM     12  N   UNL     1       2.266   2.594  18.510  0.00  0.00    +0.000 N 
ATOM     13  H   UNL     1       2.651   1.653  18.502  0.00  0.00    +0.000 HD
BRANCH  12  14
ATOM     14  C   UNL     1       0.880   2.810  18.895  0.00  0.00    +0.000 C 
BRANCH  14  15
ATOM     15  C   UNL     1       0.724   3.493  20.257  0.00  0.00    +0.000 C 
BRANCH  15  16
ATOM     16  C   UNL     1       1.787   2.972  21.211  0.00  0.00    +0.000 C 
ATOM     17  N   UNL     1       2.669   2.540  22.002  0.00  0.00    +0.000 NA
ENDBRANCH  15  16
ENDBRANCH  14  15
ENDBRANCH  12  14
ENDBRANCH   1  10
TORSDOF 5
ENDMDL
MODEL 2
REMARK VINA RESULT:      -6.0      1.425      2.330
REMARK  Name = 
REMARK  7 active torsions:
REMARK  status: ('A' for Active; 'I' for Inactive)
REMARK    1  A    between atoms: C_1  and  C_2
REMARK    2  A    between atoms: N_4  and  C_5
REMARK    3  A    between atoms: C_5  and  C_6
REMARK    4  A    between atoms: N_8  and  C_9
REMARK    5  A    between atoms: C_9  and  C_10
REMARK    6  A    between atoms: C_10  and  C_11
REMARK    7  A    between atoms: C_14  and  C_15
REMARK                            x       y       z     vdW  Elec       q    Type
REMARK                         _______ _______ _______ _____ _____    ______ ____
ROOT
ATOM      1  C   UNL     1       5.109   3.900  18.978  0.00  0.00    +0.000 C 
ENDROOT
BRANCH   1   5
ATOM      2  C   UNL     1       6.266   4.915  14.818  0.00  0.00    +0.000 C 
ATOM      3  C   UNL     1       5.422   5.834  15.697  0.00  0.00    +0.000 C 
ATOM      4  C   UNL     1       4.749   5.075  16.863  0.00  0.00    +0.000 C 
ATOM      5  N   UNL     1       5.749   4.626  17.862  0.00  0.00    +0.000 NA
ATOM      6  C   UNL     1       6.441   5.840  18.357  0.00  0.00    +0.000 C 
ATOM      7  C   UNL     1       7.135   6.579  17.191  0.00  0.00    +0.000 C 
ATOM      8  C   UNL     1       7.815   7.853  17.674  0.00  0.00    +0.000 C 
ATOM      9  O   UNL     1       6.187   6.953  16.178  0.00  0.00    +0.000 OA
ENDBRANCH   1   5
BRANCH   1  10
ATOM     10  C   UNL     1       3.773   3.289  18.531  0.00  0.00    +0.000 C 
ATOM     11  O   UNL     1       3.706   2.278  17.845  0.00  0.00    +0.000 OA
ATOM     12  N   UNL     1       2.657   3.975  18.969  0.00  0.00    +0.000 N 
ATOM     13  H   UNL     1       2.818   4.673  19.690  0.00  0.00    +0.000 HD
BRANCH  12  14
ATOM     14  C   UNL     1       1.311   3.483  18.720  0.00  0.00    +0.000 C 
BRANCH  14  15
ATOM     15  C   UNL     1       0.647   2.869  19.956  0.00  0.00    +0.000 C 
BRANCH  15  16
ATOM     16  C   UNL     1       1.586   2.981  21.145  0.00  0.00    +0.000 C 
ATOM     17  N   UNL     1       2.365   3.075  22.132  0.00  0.00    +0.000 NA
ENDBRANCH  15  16
ENDBRANCH  14  15
ENDBRANCH  12  14
ENDBRANCH   1  10
TORSDOF 5
ENDMDL
MODEL 3
REMARK VINA RESULT:      -5.9      1.134      1.134
REMARK  Name = 
REMARK  7 active torsions:
REMARK  status: ('A' for Active; 'I' for Inactive)
REMARK    1  A    between atoms: C_1  and  C_2
REMARK    2  A    between atoms: N_4  and  C_5
REMARK    3  A    between atoms: C_5  and  C_6
REMARK    4  A    between atoms: N_8  and  C_9
REMARK    5  A    between atoms: C_9  and  C_10
REMARK    6  A    between atoms: C_10  and  C_11
REMARK    7  A    between atoms: C_14  and  C_15
REMARK                            x       y       z     vdW  Elec       q    Type
REMARK                         _______ _______ _______ _____ _____    ______ ____
ROOT
ATOM      1  C   UNL     1       5.079   3.581  18.866  0.00  0.00    +0.000 C 
ENDROOT
BRANCH   1   5
ATOM      2  C   UNL     1       6.594   7.464  17.348  0.00  0.00    +0.000 C 
ATOM      3  C   UNL     1       7.401   6.170  17.283  0.00  0.00    +0.000 C 
ATOM      4  C   UNL     1       6.898   5.112  18.290  0.00  0.00    +0.000 C 
ATOM      5  N   UNL     1       5.563   4.592  17.904  0.00  0.00    +0.000 NA
ATOM      6  C   UNL     1       5.705   4.002  16.551  0.00  0.00    +0.000 C 
ATOM      7  C   UNL     1       6.182   5.071  15.543  0.00  0.00    +0.000 C 
ATOM      8  C   UNL     1       6.375   4.472  14.156  0.00  0.00    +0.000 C 
ATOM      9  O   UNL     1       7.438   5.638  15.947  0.00  0.00    +0.000 OA
ENDBRANCH   1   5
BRANCH   1  10
ATOM     10  C   UNL     1       3.661   3.120  18.500  0.00  0.00    +0.000 C 
ATOM     11  O   UNL     1       3.440   2.078  17.897  0.00  0.00    +0.000 OA
ATOM     12  N   UNL     1       2.659   3.977  18.910  0.00  0.00    +0.000 N 
ATOM     13  H   UNL     1       2.933   4.700  19.570  0.00  0.00    +0.000 HD
BRANCH  12  14
ATOM     14  C   UNL     1       1.253   3.650  18.732  0.00  0.00    +0.000 C 
BRANCH  14  15
ATOM     15  C   UNL     1       0.597   3.071  19.988  0.00  0.00    +0.000 C 
BRANCH  15  16
ATOM     16  C   UNL     1       1.604   3.058  21.127  0.00  0.00    +0.000 C 
ATOM     17  N   UNL     1       2.439   3.048  22.071  0.00  0.00    +0.000 NA
ENDBRANCH  15  16
ENDBRANCH  14  15
ENDBRANCH  12  14
ENDBRANCH   1  10
TORSDOF 5
ENDMDL
MODEL 4
REMARK VINA RESULT:      -5.9      2.552      6.344
REMARK  Name = 
REMARK  7 active torsions:
REMARK  status: ('A' for Active; 'I' for Inactive)
REMARK    1  A    between atoms: C_1  and  C_2
REMARK    2  A    between atoms: N_4  and  C_5
REMARK    3  A    between atoms: C_5  and  C_6
REMARK    4  A    between atoms: N_8  and  C_9
REMARK    5  A    between atoms: C_9  and  C_10
REMARK    6  A    between atoms: C_10  and  C_11
REMARK    7  A    between atoms: C_14  and  C_15
REMARK                            x       y       z     vdW  Elec       q    Type
REMARK                         _______ _______ _______ _____ _____    ______ ____
ROOT
ATOM      1  C   UNL     1       6.655   4.339  16.561  0.00  0.00    +0.000 C 
ENDROOT
BRANCH   1   5
ATOM      2  C   UNL     1       2.435   3.339  17.494  0.00  0.00    +0.000 C 
ATOM      3  C   UNL     1       3.380   3.994  18.499  0.00  0.00    +0.000 C 
ATOM      4  C   UNL     1       4.865   3.780  18.133  0.00  0.00    +0.000 C 
ATOM      5  N   UNL     1       5.234   4.541  16.913  0.00  0.00    +0.000 NA
ATOM      6  C   UNL     1       4.965   5.971  17.198  0.00  0.00    +0.000 C 
ATOM      7  C   UNL     1       3.472   6.181  17.537  0.00  0.00    +0.000 C 
ATOM      8  C   UNL     1       3.185   7.638  17.875  0.00  0.00    +0.000 C 
ATOM      9  O   UNL     1       3.082   5.390  18.671  0.00  0.00    +0.000 OA
ENDBRANCH   1   5
BRANCH   1  10
ATOM     10  C   UNL     1       6.886   4.608  15.067  0.00  0.00    +0.000 C 
ATOM     11  O   UNL     1       7.592   5.522  14.662  0.00  0.00    +0.000 OA
ATOM     12  N   UNL     1       6.233   3.732  14.222  0.00  0.00    +0.000 N 
ATOM     13  H   UNL     1       5.844   2.900  14.657  0.00  0.00    +0.000 HD
BRANCH  12  14
ATOM     14  C   UNL     1       6.417   3.781  12.780  0.00  0.00    +0.000 C 
BRANCH  14  15
ATOM     15  C   UNL     1       5.776   2.602  12.042  0.00  0.00    +0.000 C 
BRANCH  15  16
ATOM     16  C   UNL     1       4.523   3.074  11.323  0.00  0.00    +0.000 C 
ATOM     17  N   UNL     1       3.484   3.466  10.727  0.00  0.00    +0.000 NA
ENDBRANCH  15  16
ENDBRANCH  14  15
ENDBRANCH  12  14
ENDBRANCH   1  10
TORSDOF 5
ENDMDL
MODEL 5
REMARK VINA RESULT:      -5.8      1.660      2.701
REMARK  Name = 
REMARK  7 active torsions:
REMARK  status: ('A' for Active; 'I' for Inactive)
REMARK    1  A    between atoms: C_1  and  C_2
REMARK    2  A    between atoms: N_4  and  C_5
REMARK    3  A    between atoms: C_5  and  C_6
REMARK    4  A    between atoms: N_8  and  C_9
REMARK    5  A    between atoms: C_9  and  C_10
REMARK    6  A    between atoms: C_10  and  C_11
REMARK    7  A    between atoms: C_14  and  C_15
REMARK                            x       y       z     vdW  Elec       q    Type
REMARK                         _______ _______ _______ _____ _____    ______ ____
ROOT
ATOM      1  C   UNL     1       3.166   5.969  17.832  0.00  0.00    +0.000 C 
ENDROOT
BRANCH   1   5
ATOM      2  C   UNL     1       6.318   3.874  15.518  0.00  0.00    +0.000 C 
ATOM      3  C   UNL     1       6.375   5.363  15.848  0.00  0.00    +0.000 C 
ATOM      4  C   UNL     1       4.985   5.941  16.196  0.00  0.00    +0.000 C 
ATOM      5  N   UNL     1       4.495   5.418  17.495  0.00  0.00    +0.000 NA
ATOM      6  C   UNL     1       5.495   5.802  18.521  0.00  0.00    +0.000 C 
ATOM      7  C   UNL     1       6.876   5.199  18.181  0.00  0.00    +0.000 C 
ATOM      8  C   UNL     1       7.926   5.618  19.200  0.00  0.00    +0.000 C 
ATOM      9  O   UNL     1       7.328   5.637  16.889  0.00  0.00    +0.000 OA
ENDBRANCH   1   5
BRANCH   1  10
ATOM     10  C   UNL     1       2.201   4.846  18.239  0.00  0.00    +0.000 C 
ATOM     11  O   UNL     1       1.642   4.127  17.422  0.00  0.00    +0.000 OA
ATOM     12  N   UNL     1       2.021   4.715  19.602  0.00  0.00    +0.000 N 
ATOM     13  H   UNL     1       2.679   5.221  20.189  0.00  0.00    +0.000 HD
BRANCH  12  14
ATOM     14  C   UNL     1       1.217   3.643  20.167  0.00  0.00    +0.000 C 
BRANCH  14  15
ATOM     15  C   UNL     1       2.021   2.666  21.029  0.00  0.00    +0.000 C 
BRANCH  15  16
ATOM     16  C   UNL     1       3.440   2.564  20.492  0.00  0.00    +0.000 C 
ATOM     17  N   UNL     1       4.616   2.481  20.047  0.00  0.00    +0.000 NA
ENDBRANCH  15  16
ENDBRANCH  14  15
ENDBRANCH  12  14
ENDBRANCH   1  10
TORSDOF 5
ENDMDL
MODEL 6
REMARK VINA RESULT:      -5.8      1.477      1.766
REMARK  Name = 
REMARK  7 active torsions:
REMARK  status: ('A' for Active; 'I' for Inactive)
REMARK    1  A    between atoms: C_1  and  C_2
REMARK    2  A    between atoms: N_4  and  C_5
REMARK    3  A    between atoms: C_5  and  C_6
REMARK    4  A    between atoms: N_8  and  C_9
REMARK    5  A    between atoms: C_9  and  C_10
REMARK    6  A    between atoms: C_10  and  C_11
REMARK    7  A    between atoms: C_14  and  C_15
REMARK                            x       y       z     vdW  Elec       q    Type
REMARK                         _______ _______ _______ _____ _____    ______ ____
ROOT
ATOM      1  C   UNL     1       4.685   2.955  17.499  0.00  0.00    +0.000 C 
ENDROOT
BRANCH   1   5
ATOM      2  C   UNL     1       6.234   7.101  17.207  0.00  0.00    +0.000 C 
ATOM      3  C   UNL     1       7.130   5.867  17.123  0.00  0.00    +0.000 C 
ATOM      4  C   UNL     1       6.465   4.616  17.739  0.00  0.00    +0.000 C 
ATOM      5  N   UNL     1       5.323   4.151  16.913  0.00  0.00    +0.000 NA
ATOM      6  C   UNL     1       5.861   3.849  15.564  0.00  0.00    +0.000 C 
ATOM      7  C   UNL     1       6.500   5.111  14.943  0.00  0.00    +0.000 C 
ATOM      8  C   UNL     1       7.096   4.809  13.574  0.00  0.00    +0.000 C 
ATOM      9  O   UNL     1       7.558   5.617  15.773  0.00  0.00    +0.000 OA
ENDBRANCH   1   5
BRANCH   1  10
ATOM     10  C   UNL     1       4.233   3.233  18.940  0.00  0.00    +0.000 C 
ATOM     11  O   UNL     1       4.793   2.747  19.913  0.00  0.00    +0.000 OA
ATOM     12  N   UNL     1       3.146   4.078  19.043  0.00  0.00    +0.000 N 
ATOM     13  H   UNL     1       2.889   4.579  18.197  0.00  0.00    +0.000 HD
BRANCH  12  14
ATOM     14  C   UNL     1       2.645   4.525  20.334  0.00  0.00    +0.000 C 
BRANCH  14  15
ATOM     15  C   UNL     1       1.257   3.974  20.674  0.00  0.00    +0.000 C 
BRANCH  15  16
ATOM     16  C   UNL     1       0.788   3.055  19.558  0.00  0.00    +0.000 C 
ATOM     17  N   UNL     1       0.399   2.292  18.633  0.00  0.00    +0.000 NA
ENDBRANCH  15  16
ENDBRANCH  14  15
ENDBRANCH  12  14
ENDBRANCH   1  10
TORSDOF 5
ENDMDL
MODEL 7
REMARK VINA RESULT:      -5.8      1.250      1.689
REMARK  Name = 
REMARK  7 active torsions:
REMARK  status: ('A' for Active; 'I' for Inactive)
REMARK    1  A    between atoms: C_1  and  C_2
REMARK    2  A    between atoms: N_4  and  C_5
REMARK    3  A    between atoms: C_5  and  C_6
REMARK    4  A    between atoms: N_8  and  C_9
REMARK    5  A    between atoms: C_9  and  C_10
REMARK    6  A    between atoms: C_10  and  C_11
REMARK    7  A    between atoms: C_14  and  C_15
REMARK                            x       y       z     vdW  Elec       q    Type
REMARK                         _______ _______ _______ _____ _____    ______ ____
ROOT
ATOM      1  C   UNL     1       3.714   4.266  17.233  0.00  0.00    +0.000 C 
ENDROOT
BRANCH   1   5
ATOM      2  C   UNL     1       7.566   6.353  17.923  0.00  0.00    +0.000 C 
ATOM      3  C   UNL     1       7.473   4.877  17.542  0.00  0.00    +0.000 C 
ATOM      4  C   UNL     1       6.082   4.279  17.848  0.00  0.00    +0.000 C 
ATOM      5  N   UNL     1       5.045   4.836  16.943  0.00  0.00    +0.000 NA
ATOM      6  C   UNL     1       5.462   4.511  15.558  0.00  0.00    +0.000 C 
ATOM      7  C   UNL     1       6.842   5.134  15.250  0.00  0.00    +0.000 C 
ATOM      8  C   UNL     1       7.307   4.776  13.844  0.00  0.00    +0.000 C 
ATOM      9  O   UNL     1       7.840   4.663  16.169  0.00  0.00    +0.000 OA
ENDBRANCH   1   5
BRANCH   1  10
ATOM     10  C   UNL     1       3.272   4.620  18.661  0.00  0.00    +0.000 C 
ATOM     11  O   UNL     1       3.039   5.768  19.014  0.00  0.00    +0.000 OA
ATOM     12  N   UNL     1       3.157   3.535  19.508  0.00  0.00    +0.000 N 
ATOM     13  H   UNL     1       3.175   2.620  19.065  0.00  0.00    +0.000 HD
BRANCH  12  14
ATOM     14  C   UNL     1       2.657   3.676  20.866  0.00  0.00    +0.000 C 
BRANCH  14  15
ATOM     15  C   UNL     1       1.255   3.094  21.065  0.00  0.00    +0.000 C 
BRANCH  15  16
ATOM     16  C   UNL     1       0.713   2.608  19.730  0.00  0.00    +0.000 C 
ATOM     17  N   UNL     1       0.265   2.206  18.622  0.00  0.00    +0.000 NA
ENDBRANCH  15  16
ENDBRANCH  14  15
ENDBRANCH  12  14
ENDBRANCH   1  10
TORSDOF 5
ENDMDL
MODEL 8
REMARK VINA RESULT:      -5.7      1.637      1.791
REMARK  Name = 
REMARK  7 active torsions:
REMARK  status: ('A' for Active; 'I' for Inactive)
REMARK    1  A    between atoms: C_1  and  C_2
REMARK    2  A    between atoms: N_4  and  C_5
REMARK    3  A    between atoms: C_5  and  C_6
REMARK    4  A    between atoms: N_8  and  C_9
REMARK    5  A    between atoms: C_9  and  C_10
REMARK    6  A    between atoms: C_10  and  C_11
REMARK    7  A    between atoms: C_14  and  C_15
REMARK                            x       y       z     vdW  Elec       q    Type
REMARK                         _______ _______ _______ _____ _____    ______ ____
ROOT
ATOM      1  C   UNL     1       3.453   5.009  17.409  0.00  0.00    +0.000 C 
ENDROOT
BRANCH   1   5
ATOM      2  C   UNL     1       7.631   6.136  18.382  0.00  0.00    +0.000 C 
ATOM      3  C   UNL     1       7.234   4.747  17.891  0.00  0.00    +0.000 C 
ATOM      4  C   UNL     1       5.732   4.456  18.104  0.00  0.00    +0.000 C 
ATOM      5  N   UNL     1       4.890   5.286  17.208  0.00  0.00    +0.000 NA
ATOM      6  C   UNL     1       5.294   4.965  15.817  0.00  0.00    +0.000 C 
ATOM      7  C   UNL     1       6.790   5.284  15.603  0.00  0.00    +0.000 C 
ATOM      8  C   UNL     1       7.234   4.921  14.192  0.00  0.00    +0.000 C 
ATOM      9  O   UNL     1       7.613   4.544  16.519  0.00  0.00    +0.000 OA
ENDBRANCH   1   5
BRANCH   1  10
ATOM     10  C   UNL     1       3.088   5.096  18.898  0.00  0.00    +0.000 C 
ATOM     11  O   UNL     1       3.413   6.040  19.604  0.00  0.00    +0.000 OA
ATOM     12  N   UNL     1       2.361   4.020  19.371  0.00  0.00    +0.000 N 
ATOM     13  H   UNL     1       1.976   3.399  18.665  0.00  0.00    +0.000 HD
BRANCH  12  14
ATOM     14  C   UNL     1       1.849   3.983  20.731  0.00  0.00    +0.000 C 
BRANCH  14  15
ATOM     15  C   UNL     1       2.447   2.855  21.578  0.00  0.00    +0.000 C 
BRANCH  15  16
ATOM     16  C   UNL     1       3.715   2.341  20.915  0.00  0.00    +0.000 C 
ATOM     17  N   UNL     1       4.766   1.914  20.366  0.00  0.00    +0.000 NA
ENDBRANCH  15  16
ENDBRANCH  14  15
ENDBRANCH  12  14
ENDBRANCH   1  10
TORSDOF 5
ENDMDL
MODEL 9
REMARK VINA RESULT:      -5.7      2.191      6.092
REMARK  Name = 
REMARK  7 active torsions:
REMARK  status: ('A' for Active; 'I' for Inactive)
REMARK    1  A    between atoms: C_1  and  C_2
REMARK    2  A    between atoms: N_4  and  C_5
REMARK    3  A    between atoms: C_5  and  C_6
REMARK    4  A    between atoms: N_8  and  C_9
REMARK    5  A    between atoms: C_9  and  C_10
REMARK    6  A    between atoms: C_10  and  C_11
REMARK    7  A    between atoms: C_14  and  C_15
REMARK                            x       y       z     vdW  Elec       q    Type
REMARK                         _______ _______ _______ _____ _____    ______ ____
ROOT
ATOM      1  C   UNL     1       4.168   3.480  17.180  0.00  0.00    +0.000 C 
ENDROOT
BRANCH   1   5
ATOM      2  C   UNL     1       2.477   6.657  19.773  0.00  0.00    +0.000 C 
ATOM      3  C   UNL     1       1.651   5.492  19.233  0.00  0.00    +0.000 C 
ATOM      4  C   UNL     1       2.301   4.835  17.996  0.00  0.00    +0.000 C 
ATOM      5  N   UNL     1       3.543   4.110  18.361  0.00  0.00    +0.000 NA
ATOM      6  C   UNL     1       3.164   3.083  19.362  0.00  0.00    +0.000 C 
ATOM      7  C   UNL     1       2.539   3.749  20.608  0.00  0.00    +0.000 C 
ATOM      8  C   UNL     1       2.104   2.707  21.630  0.00  0.00    +0.000 C 
ATOM      9  O   UNL     1       1.379   4.519  20.256  0.00  0.00    +0.000 OA
ENDBRANCH   1   5
BRANCH   1  10
ATOM     10  C   UNL     1       5.565   4.064  16.929  0.00  0.00    +0.000 C 
ATOM     11  O   UNL     1       5.919   4.484  15.836  0.00  0.00    +0.000 OA
ATOM     12  N   UNL     1       6.385   4.079  18.040  0.00  0.00    +0.000 N 
ATOM     13  H   UNL     1       5.931   3.898  18.932  0.00  0.00    +0.000 HD
BRANCH  12  14
ATOM     14  C   UNL     1       7.707   4.685  18.007  0.00  0.00    +0.000 C 
BRANCH  14  15
ATOM     15  C   UNL     1       7.825   5.940  18.877  0.00  0.00    +0.000 C 
BRANCH  15  16
ATOM     16  C   UNL     1       7.705   7.177  18.001  0.00  0.00    +0.000 C 
ATOM     17  N   UNL     1       7.606   8.202  17.275  0.00  0.00    +0.000 NA
ENDBRANCH  15  16
ENDBRANCH  14  15
ENDBRANCH  12  14
ENDBRANCH   1  10
TORSDOF 5
ENDMDL
