MODEL 1
REMARK VINA RESULT:      -7.7      0.000      0.000
REMARK  Name = 
REMARK  3 active torsions:
REMARK  status: ('A' for Active; 'I' for Inactive)
REMARK    1  A    between atoms: N_1  and  C_2
REMARK    2  A    between atoms: C_3  and  C_4
REMARK    3  A    between atoms: N_6  and  C_7
REMARK                            x       y       z     vdW  Elec       q    Type
REMARK                         _______ _______ _______ _____ _____    ______ ____
ROOT
ATOM      1  C   UNL     1       1.307   8.221  20.320  0.00  0.00    +0.000 A 
ATOM      2  C   UNL     1       1.307   9.495  19.776  0.00  0.00    +0.000 A 
ATOM      3  S   UNL     1       2.255   9.551  18.360  0.00  0.00    +0.000 S 
ATOM      4  C   UNL     1       2.654   7.888  18.471  0.00  0.00    +0.000 A 
ATOM      5  N   UNL     1       3.441   7.313  17.540  0.00  0.00    +0.000 NA
ATOM      6  C   UNL     1       3.721   6.001  17.697  0.00  0.00    +0.000 A 
ATOM      7  N   UNL     1       4.548   5.438  16.745  0.00  0.00    +0.000 N 
ATOM      8  C   UNL     1       4.405   4.100  16.159  0.00  0.00    +0.000 C 
ATOM      9  C   UNL     1       5.806   3.467  16.147  0.00  0.00    +0.000 C 
ATOM     10  O   UNL     1       6.678   4.231  15.295  0.00  0.00    +0.000 OA
ATOM     11  C   UNL     1       6.768   5.601  15.744  0.00  0.00    +0.000 C 
ATOM     12  C   UNL     1       5.388   6.286  15.883  0.00  0.00    +0.000 C 
ATOM     13  C   UNL     1       3.252   5.275  18.822  0.00  0.00    +0.000 A 
ATOM     14  C   UNL     1       2.374   5.894  19.756  0.00  0.00    +0.000 A 
ATOM     15  C   UNL     1       2.086   7.271  19.575  0.00  0.00    +0.000 A 
ATOM     16  C   UNL     1       1.817   5.123  20.934  0.00  0.00    +0.000 C 
ATOM     17  C   UNL     1       1.997   3.615  20.863  0.00  0.00    +0.000 C 
ATOM     18  C   UNL     1       3.431   3.315  20.490  0.00  0.00    +0.000 C 
ATOM     19  C   UNL     1       3.678   3.841  19.083  0.00  0.00    +0.000 C 
ENDROOT
BRANCH   2  20
ATOM     20  C   UNL     1       0.630  10.657  20.364  0.00  0.00    +0.000 C 
ATOM     21  O   UNL     1       0.813  10.942  21.550  0.00  0.00    +0.000 OA
ATOM     22  N   UNL     1      -0.233  11.379  19.550  0.00  0.00    +0.000 N 
ATOM     23  H   UNL     1      -0.443  10.981  18.644  0.00  0.00    +0.000 HD
BRANCH  22  24
ATOM     24  C   UNL     1      -0.929  12.554  19.933  0.00  0.00    +0.000 A 
ATOM     25  C   UNL     1      -0.372  13.839  19.859  0.00  0.00    +0.000 A 
ATOM     26  C   UNL     1      -1.088  14.963  20.270  0.00  0.00    +0.000 A 
ATOM     27  C   UNL     1      -2.381  14.818  20.753  0.00  0.00    +0.000 A 
ATOM     28 BR   UNL     1      -3.346  16.340  21.316  0.00  0.00    +0.000 Br
ATOM     29  C   UNL     1      -2.963  13.554  20.818  0.00  0.00    +0.000 A 
ATOM     30  C   UNL     1      -2.240  12.424  20.398  0.00  0.00    +0.000 A 
ENDBRANCH  22  24
ENDBRANCH   2  20
BRANCH   1  31
ATOM     31  N   UNL     1       0.621   7.934  21.458  0.00  0.00    +0.000 N 
ATOM     32  H   UNL     1       0.970   7.186  22.069  0.00  0.00    +0.000 HD
ATOM     33  H   UNL     1      -0.381   8.052  21.536  0.00  0.00    +0.000 HD
ENDBRANCH   1  31
TORSDOF 3
ENDMDL
MODEL 2
REMARK VINA RESULT:      -7.5      0.911      1.152
REMARK  Name = 
REMARK  3 active torsions:
REMARK  status: ('A' for Active; 'I' for Inactive)
REMARK    1  A    between atoms: N_1  and  C_2
REMARK    2  A    between atoms: C_3  and  C_4
REMARK    3  A    between atoms: N_6  and  C_7
REMARK                            x       y       z     vdW  Elec       q    Type
REMARK                         _______ _______ _______ _____ _____    ______ ____
ROOT
ATOM      1  C   UNL     1       1.313   8.228  20.282  0.00  0.00    +0.000 A 
ATOM      2  C   UNL     1       1.310   9.498  19.727  0.00  0.00    +0.000 A 
ATOM      3  S   UNL     1       2.247   9.541  18.303  0.00  0.00    +0.000 S 
ATOM      4  C   UNL     1       2.647   7.878  18.427  0.00  0.00    +0.000 A 
ATOM      5  N   UNL     1       3.427   7.295  17.496  0.00  0.00    +0.000 NA
ATOM      6  C   UNL     1       3.708   5.984  17.663  0.00  0.00    +0.000 A 
ATOM      7  N   UNL     1       4.528   5.412  16.710  0.00  0.00    +0.000 N 
ATOM      8  C   UNL     1       4.381   4.069  16.138  0.00  0.00    +0.000 C 
ATOM      9  C   UNL     1       5.781   3.436  16.121  0.00  0.00    +0.000 C 
ATOM     10  O   UNL     1       6.648   4.192  15.256  0.00  0.00    +0.000 OA
ATOM     11  C   UNL     1       6.741   5.566  15.692  0.00  0.00    +0.000 C 
ATOM     12  C   UNL     1       5.362   6.253  15.834  0.00  0.00    +0.000 C 
ATOM     13  C   UNL     1       3.247   5.269  18.798  0.00  0.00    +0.000 A 
ATOM     14  C   UNL     1       2.376   5.897  19.733  0.00  0.00    +0.000 A 
ATOM     15  C   UNL     1       2.087   7.272  19.541  0.00  0.00    +0.000 A 
ATOM     16  C   UNL     1       1.827   5.136  20.921  0.00  0.00    +0.000 C 
ATOM     17  C   UNL     1       2.007   3.628  20.863  0.00  0.00    +0.000 C 
ATOM     18  C   UNL     1       3.438   3.324  20.483  0.00  0.00    +0.000 C 
ATOM     19  C   UNL     1       3.675   3.837  19.069  0.00  0.00    +0.000 C 
ENDROOT
BRANCH   2  20
ATOM     20  C   UNL     1       0.636  10.665  20.309  0.00  0.00    +0.000 C 
ATOM     21  O   UNL     1       1.284  11.680  20.577  0.00  0.00    +0.000 OA
ATOM     22  N   UNL     1      -0.724  10.560  20.568  0.00  0.00    +0.000 N 
ATOM     23  H   UNL     1      -1.137   9.642  20.465  0.00  0.00    +0.000 HD
BRANCH  22  24
ATOM     24  C   UNL     1      -1.543  11.599  21.078  0.00  0.00    +0.000 A 
ATOM     25  C   UNL     1      -1.667  11.882  22.446  0.00  0.00    +0.000 A 
ATOM     26  C   UNL     1      -2.505  12.902  22.901  0.00  0.00    +0.000 A 
ATOM     27  C   UNL     1      -3.223  13.661  21.989  0.00  0.00    +0.000 A 
ATOM     28 BR   UNL     1      -4.361  15.035  22.608  0.00  0.00    +0.000 Br
ATOM     29  C   UNL     1      -3.101  13.412  20.624  0.00  0.00    +0.000 A 
ATOM     30  C   UNL     1      -2.253  12.389  20.169  0.00  0.00    +0.000 A 
ENDBRANCH  22  24
ENDBRANCH   2  20
BRANCH   1  31
ATOM     31  N   UNL     1       0.635   7.952  21.428  0.00  0.00    +0.000 N 
ATOM     32  H   UNL     1       0.637   8.649  22.182  0.00  0.00    +0.000 HD
ATOM     33  H   UNL     1       0.517   7.012  21.780  0.00  0.00    +0.000 HD
ENDBRANCH   1  31
TORSDOF 3
ENDMDL
MODEL 3
REMARK VINA RESULT:      -7.5      1.415      1.415
REMARK  Name = 
REMARK  3 active torsions:
REMARK  status: ('A' for Active; 'I' for Inactive)
REMARK    1  A    between atoms: N_1  and  C_2
REMARK    2  A    between atoms: C_3  and  C_4
REMARK    3  A    between atoms: N_6  and  C_7
REMARK                            x       y       z     vdW  Elec       q    Type
REMARK                         _______ _______ _______ _____ _____    ______ ____
ROOT
ATOM      1  C   UNL     1       0.995   8.409  20.124  0.00  0.00    +0.000 A 
ATOM      2  C   UNL     1       0.993   9.657  19.521  0.00  0.00    +0.000 A 
ATOM      3  S   UNL     1       2.032   9.680  18.169  0.00  0.00    +0.000 S 
ATOM      4  C   UNL     1       2.474   8.038  18.386  0.00  0.00    +0.000 A 
ATOM      5  N   UNL     1       3.339   7.448  17.537  0.00  0.00    +0.000 NA
ATOM      6  C   UNL     1       3.648   6.154  17.775  0.00  0.00    +0.000 A 
ATOM      7  N   UNL     1       4.554   5.577  16.908  0.00  0.00    +0.000 N 
ATOM      8  C   UNL     1       4.492   4.210  16.378  0.00  0.00    +0.000 C 
ATOM      9  C   UNL     1       5.909   3.625  16.489  0.00  0.00    +0.000 C 
ATOM     10  O   UNL     1       6.813   4.378  15.660  0.00  0.00    +0.000 OA
ATOM     11  C   UNL     1       6.831   5.770  16.049  0.00  0.00    +0.000 C 
ATOM     12  C   UNL     1       5.424   6.413  16.063  0.00  0.00    +0.000 C 
ATOM     13  C   UNL     1       3.127   5.466  18.901  0.00  0.00    +0.000 A 
ATOM     14  C   UNL     1       2.169   6.097  19.744  0.00  0.00    +0.000 A 
ATOM     15  C   UNL     1       1.852   7.453  19.479  0.00  0.00    +0.000 A 
ATOM     16  C   UNL     1       1.557   5.361  20.918  0.00  0.00    +0.000 C 
ATOM     17  C   UNL     1       1.789   3.859  20.931  0.00  0.00    +0.000 C 
ATOM     18  C   UNL     1       3.253   3.591  20.668  0.00  0.00    +0.000 C 
ATOM     19  C   UNL     1       3.578   4.060  19.257  0.00  0.00    +0.000 C 
ENDROOT
BRANCH   2  20
ATOM     20  C   UNL     1       0.241  10.820  20.007  0.00  0.00    +0.000 C 
ATOM     21  O   UNL     1      -0.488  11.448  19.235  0.00  0.00    +0.000 OA
ATOM     22  N   UNL     1       0.414  11.189  21.334  0.00  0.00    +0.000 N 
ATOM     23  H   UNL     1       1.148  10.716  21.846  0.00  0.00    +0.000 HD
BRANCH  22  24
ATOM     24  C   UNL     1      -0.268  12.249  21.984  0.00  0.00    +0.000 A 
ATOM     25  C   UNL     1       0.114  13.594  21.873  0.00  0.00    +0.000 A 
ATOM     26  C   UNL     1      -0.575  14.601  22.551  0.00  0.00    +0.000 A 
ATOM     27  C   UNL     1      -1.665  14.275  23.345  0.00  0.00    +0.000 A 
ATOM     28 BR   UNL     1      -2.590  15.638  24.268  0.00  0.00    +0.000 Br
ATOM     29  C   UNL     1      -2.075  12.948  23.456  0.00  0.00    +0.000 A 
ATOM     30  C   UNL     1      -1.383  11.938  22.767  0.00  0.00    +0.000 A 
ENDBRANCH  22  24
ENDBRANCH   2  20
BRANCH   1  31
ATOM     31  N   UNL     1       0.243   8.151  21.226  0.00  0.00    +0.000 N 
ATOM     32  H   UNL     1      -0.648   8.650  21.343  0.00  0.00    +0.000 HD
ATOM     33  H   UNL     1       0.647   7.883  22.114  0.00  0.00    +0.000 HD
ENDBRANCH   1  31
TORSDOF 3
ENDMDL
MODEL 4
REMARK VINA RESULT:      -7.4      1.213      1.315
REMARK  Name = 
REMARK  3 active torsions:
REMARK  status: ('A' for Active; 'I' for Inactive)
REMARK    1  A    between atoms: N_1  and  C_2
REMARK    2  A    between atoms: C_3  and  C_4
REMARK    3  A    between atoms: N_6  and  C_7
REMARK                            x       y       z     vdW  Elec       q    Type
REMARK                         _______ _______ _______ _____ _____    ______ ____
ROOT
ATOM      1  C   UNL     1       1.132   8.587  20.094  0.00  0.00    +0.000 A 
ATOM      2  C   UNL     1       1.160   9.822  19.465  0.00  0.00    +0.000 A 
ATOM      3  S   UNL     1       2.160   9.778  18.086  0.00  0.00    +0.000 S 
ATOM      4  C   UNL     1       2.546   8.125  18.325  0.00  0.00    +0.000 A 
ATOM      5  N   UNL     1       3.364   7.486  17.466  0.00  0.00    +0.000 NA
ATOM      6  C   UNL     1       3.630   6.186  17.723  0.00  0.00    +0.000 A 
ATOM      7  N   UNL     1       4.490   5.557  16.843  0.00  0.00    +0.000 N 
ATOM      8  C   UNL     1       4.362   4.183  16.345  0.00  0.00    +0.000 C 
ATOM      9  C   UNL     1       5.758   3.547  16.429  0.00  0.00    +0.000 C 
ATOM     10  O   UNL     1       6.666   4.248  15.560  0.00  0.00    +0.000 OA
ATOM     11  C   UNL     1       6.747   5.645  15.919  0.00  0.00    +0.000 C 
ATOM     12  C   UNL     1       5.367   6.343  15.958  0.00  0.00    +0.000 C 
ATOM     13  C   UNL     1       3.115   5.541  18.876  0.00  0.00    +0.000 A 
ATOM     14  C   UNL     1       2.206   6.225  19.731  0.00  0.00    +0.000 A 
ATOM     15  C   UNL     1       1.933   7.587  19.446  0.00  0.00    +0.000 A 
ATOM     16  C   UNL     1       1.600   5.537  20.936  0.00  0.00    +0.000 C 
ATOM     17  C   UNL     1       1.775   4.028  20.975  0.00  0.00    +0.000 C 
ATOM     18  C   UNL     1       3.220   3.698  20.679  0.00  0.00    +0.000 C 
ATOM     19  C   UNL     1       3.523   4.126  19.249  0.00  0.00    +0.000 C 
ENDROOT
BRANCH   2  20
ATOM     20  C   UNL     1       0.466  11.023  19.946  0.00  0.00    +0.000 C 
ATOM     21  O   UNL     1      -0.647  10.923  20.469  0.00  0.00    +0.000 OA
ATOM     22  N   UNL     1       1.094  12.247  19.759  0.00  0.00    +0.000 N 
ATOM     23  H   UNL     1       1.926  12.248  19.183  0.00  0.00    +0.000 HD
BRANCH  22  24
ATOM     24  C   UNL     1       0.597  13.498  20.205  0.00  0.00    +0.000 A 
ATOM     25  C   UNL     1       0.792  13.986  21.506  0.00  0.00    +0.000 A 
ATOM     26  C   UNL     1       0.263  15.214  21.905  0.00  0.00    +0.000 A 
ATOM     27  C   UNL     1      -0.461  15.978  21.001  0.00  0.00    +0.000 A 
ATOM     28 BR   UNL     1      -1.182  17.636  21.546  0.00  0.00    +0.000 Br
ATOM     29  C   UNL     1      -0.651  15.524  19.698  0.00  0.00    +0.000 A 
ATOM     30  C   UNL     1      -0.113  14.290  19.298  0.00  0.00    +0.000 A 
ENDBRANCH  22  24
ENDBRANCH   2  20
BRANCH   1  31
ATOM     31  N   UNL     1       0.401   8.381  21.222  0.00  0.00    +0.000 N 
ATOM     32  H   UNL     1       0.000   9.194  21.705  0.00  0.00    +0.000 HD
ATOM     33  H   UNL     1       0.577   7.612  21.854  0.00  0.00    +0.000 HD
ENDBRANCH   1  31
TORSDOF 3
ENDMDL
MODEL 5
REMARK VINA RESULT:      -7.4      3.972     10.378
REMARK  Name = 
REMARK  3 active torsions:
REMARK  status: ('A' for Active; 'I' for Inactive)
REMARK    1  A    between atoms: N_1  and  C_2
REMARK    2  A    between atoms: C_3  and  C_4
REMARK    3  A    between atoms: N_6  and  C_7
REMARK                            x       y       z     vdW  Elec       q    Type
REMARK                         _______ _______ _______ _____ _____    ______ ____
ROOT
ATOM      1  C   UNL     1      -0.708  10.444  18.733  0.00  0.00    +0.000 A 
ATOM      2  C   UNL     1       0.578  10.116  19.133  0.00  0.00    +0.000 A 
ATOM      3  S   UNL     1       0.938  10.812  20.647  0.00  0.00    +0.000 S 
ATOM      4  C   UNL     1      -0.610  11.538  20.767  0.00  0.00    +0.000 A 
ATOM      5  N   UNL     1      -0.936  12.272  21.849  0.00  0.00    +0.000 NA
ATOM      6  C   UNL     1      -2.170  12.821  21.870  0.00  0.00    +0.000 A 
ATOM      7  N   UNL     1      -2.474  13.590  22.977  0.00  0.00    +0.000 N 
ATOM      8  C   UNL     1      -3.763  13.622  23.678  0.00  0.00    +0.000 C 
ATOM      9  C   UNL     1      -4.090  15.101  23.941  0.00  0.00    +0.000 C 
ATOM     10  O   UNL     1      -3.098  15.671  24.814  0.00  0.00    +0.000 OA
ATOM     11  C   UNL     1      -1.778  15.561  24.237  0.00  0.00    +0.000 C 
ATOM     12  C   UNL     1      -1.406  14.111  23.847  0.00  0.00    +0.000 C 
ATOM     13  C   UNL     1      -3.062  12.675  20.777  0.00  0.00    +0.000 A 
ATOM     14  C   UNL     1      -2.712  11.844  19.675  0.00  0.00    +0.000 A 
ATOM     15  C   UNL     1      -1.415  11.272  19.670  0.00  0.00    +0.000 A 
ATOM     16  C   UNL     1      -3.672  11.629  18.524  0.00  0.00    +0.000 C 
ATOM     17  C   UNL     1      -5.099  12.086  18.778  0.00  0.00    +0.000 C 
ATOM     18  C   UNL     1      -5.066  13.478  19.365  0.00  0.00    +0.000 C 
ATOM     19  C   UNL     1      -4.393  13.405  20.728  0.00  0.00    +0.000 C 
ENDROOT
BRANCH   2  20
ATOM     20  C   UNL     1       1.525   9.322  18.342  0.00  0.00    +0.000 C 
ATOM     21  O   UNL     1       2.014   9.794  17.312  0.00  0.00    +0.000 OA
ATOM     22  N   UNL     1       1.808   8.035  18.778  0.00  0.00    +0.000 N 
ATOM     23  H   UNL     1       1.242   7.677  19.537  0.00  0.00    +0.000 HD
BRANCH  22  24
ATOM     24  C   UNL     1       2.733   7.149  18.169  0.00  0.00    +0.000 A 
ATOM     25  C   UNL     1       3.927   7.574  17.569  0.00  0.00    +0.000 A 
ATOM     26  C   UNL     1       4.796   6.666  16.962  0.00  0.00    +0.000 A 
ATOM     27  C   UNL     1       4.485   5.314  16.956  0.00  0.00    +0.000 A 
ATOM     28 BR   UNL     1       5.658   4.089  16.127  0.00  0.00    +0.000 Br
ATOM     29  C   UNL     1       3.314   4.866  17.563  0.00  0.00    +0.000 A 
ATOM     30  C   UNL     1       2.444   5.782  18.178  0.00  0.00    +0.000 A 
ENDBRANCH  22  24
ENDBRANCH   2  20
BRANCH   1  31
ATOM     31  N   UNL     1      -1.218  10.004  17.552  0.00  0.00    +0.000 N 
ATOM     32  H   UNL     1      -0.610   9.998  16.724  0.00  0.00    +0.000 HD
ATOM     33  H   UNL     1      -2.193  10.106  17.306  0.00  0.00    +0.000 HD
ENDBRANCH   1  31
TORSDOF 3
ENDMDL
MODEL 6
REMARK VINA RESULT:      -7.3      4.152     10.280
REMARK  Name = 
REMARK  3 active torsions:
REMARK  status: ('A' for Active; 'I' for Inactive)
REMARK    1  A    between atoms: N_1  and  C_2
REMARK    2  A    between atoms: C_3  and  C_4
REMARK    3  A    between atoms: N_6  and  C_7
REMARK                            x       y       z     vdW  Elec       q    Type
REMARK                         _______ _______ _______ _____ _____    ______ ____
ROOT
ATOM      1  C   UNL     1       0.082  10.981  20.001  0.00  0.00    +0.000 A 
ATOM      2  C   UNL     1       0.202  10.330  18.783  0.00  0.00    +0.000 A 
ATOM      3  S   UNL     1      -1.233  10.473  17.875  0.00  0.00    +0.000 S 
ATOM      4  C   UNL     1      -2.003  11.400  19.095  0.00  0.00    +0.000 A 
ATOM      5  N   UNL     1      -3.263  11.844  18.918  0.00  0.00    +0.000 NA
ATOM      6  C   UNL     1      -3.808  12.561  19.926  0.00  0.00    +0.000 A 
ATOM      7  N   UNL     1      -5.108  12.987  19.734  0.00  0.00    +0.000 N 
ATOM      8  C   UNL     1      -5.655  14.292  20.121  0.00  0.00    +0.000 C 
ATOM      9  C   UNL     1      -7.014  14.026  20.787  0.00  0.00    +0.000 C 
ATOM     10  O   UNL     1      -7.916  13.435  19.833  0.00  0.00    +0.000 OA
ATOM     11  C   UNL     1      -7.379  12.198  19.313  0.00  0.00    +0.000 C 
ATOM     12  C   UNL     1      -5.962  12.357  18.713  0.00  0.00    +0.000 C 
ATOM     13  C   UNL     1      -3.104  12.786  21.137  0.00  0.00    +0.000 A 
ATOM     14  C   UNL     1      -1.754  12.356  21.269  0.00  0.00    +0.000 A 
ATOM     15  C   UNL     1      -1.194  11.609  20.201  0.00  0.00    +0.000 A 
ATOM     16  C   UNL     1      -0.966  12.635  22.531  0.00  0.00    +0.000 C 
ATOM     17  C   UNL     1      -1.592  13.649  23.474  0.00  0.00    +0.000 C 
ATOM     18  C   UNL     1      -3.050  13.300  23.664  0.00  0.00    +0.000 C 
ATOM     19  C   UNL     1      -3.758  13.465  22.327  0.00  0.00    +0.000 C 
ENDROOT
BRANCH   2  20
ATOM     20  C   UNL     1       1.383   9.574  18.351  0.00  0.00    +0.000 C 
ATOM     21  O   UNL     1       2.172  10.071  17.544  0.00  0.00    +0.000 OA
ATOM     22  N   UNL     1       1.546   8.291  18.856  0.00  0.00    +0.000 N 
ATOM     23  H   UNL     1       0.772   7.908  19.384  0.00  0.00    +0.000 HD
BRANCH  22  24
ATOM     24  C   UNL     1       2.648   7.440  18.590  0.00  0.00    +0.000 A 
ATOM     25  C   UNL     1       3.479   7.582  17.469  0.00  0.00    +0.000 A 
ATOM     26  C   UNL     1       4.539   6.704  17.237  0.00  0.00    +0.000 A 
ATOM     27  C   UNL     1       4.789   5.675  18.133  0.00  0.00    +0.000 A 
ATOM     28 BR   UNL     1       6.219   4.484  17.813  0.00  0.00    +0.000 Br
ATOM     29  C   UNL     1       3.990   5.525  19.264  0.00  0.00    +0.000 A 
ATOM     30  C   UNL     1       2.927   6.414  19.497  0.00  0.00    +0.000 A 
ENDBRANCH  22  24
ENDBRANCH   2  20
BRANCH   1  31
ATOM     31  N   UNL     1       1.102  11.000  20.900  0.00  0.00    +0.000 N 
ATOM     32  H   UNL     1       1.804  11.746  20.833  0.00  0.00    +0.000 HD
ATOM     33  H   UNL     1       1.480  10.159  21.316  0.00  0.00    +0.000 HD
ENDBRANCH   1  31
TORSDOF 3
ENDMDL
MODEL 7
REMARK VINA RESULT:      -7.2      4.082     10.467
REMARK  Name = 
REMARK  3 active torsions:
REMARK  status: ('A' for Active; 'I' for Inactive)
REMARK    1  A    between atoms: N_1  and  C_2
REMARK    2  A    between atoms: C_3  and  C_4
REMARK    3  A    between atoms: N_6  and  C_7
REMARK                            x       y       z     vdW  Elec       q    Type
REMARK                         _______ _______ _______ _____ _____    ______ ____
ROOT
ATOM      1  C   UNL     1      -0.961  10.317  18.289  0.00  0.00    +0.000 A 
ATOM      2  C   UNL     1       0.272  10.195  18.912  0.00  0.00    +0.000 A 
ATOM      3  S   UNL     1       0.302  11.067  20.376  0.00  0.00    +0.000 S 
ATOM      4  C   UNL     1      -1.317  11.596  20.181  0.00  0.00    +0.000 A 
ATOM      5  N   UNL     1      -1.894  12.380  21.114  0.00  0.00    +0.000 NA
ATOM      6  C   UNL     1      -3.169  12.765  20.889  0.00  0.00    +0.000 A 
ATOM      7  N   UNL     1      -3.733  13.587  21.846  0.00  0.00    +0.000 N 
ATOM      8  C   UNL     1      -5.114  13.518  22.338  0.00  0.00    +0.000 C 
ATOM      9  C   UNL     1      -5.642  14.961  22.383  0.00  0.00    +0.000 C 
ATOM     10  O   UNL     1      -4.876  15.731  23.327  0.00  0.00    +0.000 OA
ATOM     11  C   UNL     1      -3.476  15.738  22.969  0.00  0.00    +0.000 C 
ATOM     12  C   UNL     1      -2.885  14.318  22.803  0.00  0.00    +0.000 C 
ATOM     13  C   UNL     1      -3.850  12.407  19.697  0.00  0.00    +0.000 A 
ATOM     14  C   UNL     1      -3.236  11.529  18.760  0.00  0.00    +0.000 A 
ATOM     15  C   UNL     1      -1.898  11.130  19.012  0.00  0.00    +0.000 A 
ATOM     16  C   UNL     1      -3.965  11.089  17.509  0.00  0.00    +0.000 C 
ATOM     17  C   UNL     1      -5.457  11.380  17.494  0.00  0.00    +0.000 C 
ATOM     18  C   UNL     1      -5.676  12.813  17.921  0.00  0.00    +0.000 C 
ATOM     19  C   UNL     1      -5.229  12.952  19.370  0.00  0.00    +0.000 C 
ENDROOT
BRANCH   2  20
ATOM     20  C   UNL     1       1.417   9.459  18.363  0.00  0.00    +0.000 C 
ATOM     21  O   UNL     1       2.053   9.926  17.415  0.00  0.00    +0.000 OA
ATOM     22  N   UNL     1       1.721   8.227  18.928  0.00  0.00    +0.000 N 
ATOM     23  H   UNL     1       1.053   7.853  19.590  0.00  0.00    +0.000 HD
BRANCH  22  24
ATOM     24  C   UNL     1       2.818   7.407  18.561  0.00  0.00    +0.000 A 
ATOM     25  C   UNL     1       3.608   7.638  17.425  0.00  0.00    +0.000 A 
ATOM     26  C   UNL     1       4.664   6.789  17.093  0.00  0.00    +0.000 A 
ATOM     27  C   UNL     1       4.952   5.699  17.901  0.00  0.00    +0.000 A 
ATOM     28 BR   UNL     1       6.376   4.546  17.444  0.00  0.00    +0.000 Br
ATOM     29  C   UNL     1       4.194   5.459  19.045  0.00  0.00    +0.000 A 
ATOM     30  C   UNL     1       3.135   6.320  19.380  0.00  0.00    +0.000 A 
ENDBRANCH  22  24
ENDBRANCH   2  20
BRANCH   1  31
ATOM     31  N   UNL     1      -1.220   9.709  17.101  0.00  0.00    +0.000 N 
ATOM     32  H   UNL     1      -2.193   9.657  16.776  0.00  0.00    +0.000 HD
ATOM     33  H   UNL     1      -0.658   8.948  16.743  0.00  0.00    +0.000 HD
ENDBRANCH   1  31
TORSDOF 3
ENDMDL
MODEL 8
REMARK VINA RESULT:      -6.9      3.993     10.656
REMARK  Name = 
REMARK  3 active torsions:
REMARK  status: ('A' for Active; 'I' for Inactive)
REMARK    1  A    between atoms: N_1  and  C_2
REMARK    2  A    between atoms: C_3  and  C_4
REMARK    3  A    between atoms: N_6  and  C_7
REMARK                            x       y       z     vdW  Elec       q    Type
REMARK                         _______ _______ _______ _____ _____    ______ ____
ROOT
ATOM      1  C   UNL     1       1.588  11.961  18.528  0.00  0.00    +0.000 A 
ATOM      2  C   UNL     1       0.962  10.763  18.832  0.00  0.00    +0.000 A 
ATOM      3  S   UNL     1      -0.494  11.035  19.676  0.00  0.00    +0.000 S 
ATOM      4  C   UNL     1      -0.292  12.737  19.628  0.00  0.00    +0.000 A 
ATOM      5  N   UNL     1      -1.217  13.547  20.180  0.00  0.00    +0.000 NA
ATOM      6  C   UNL     1      -0.986  14.877  20.113  0.00  0.00    +0.000 A 
ATOM      7  N   UNL     1      -1.934  15.689  20.705  0.00  0.00    +0.000 N 
ATOM      8  C   UNL     1      -2.424  16.968  20.180  0.00  0.00    +0.000 C 
ATOM      9  C   UNL     1      -2.455  17.951  21.361  0.00  0.00    +0.000 C 
ATOM     10  O   UNL     1      -3.393  17.493  22.352  0.00  0.00    +0.000 OA
ATOM     11  C   UNL     1      -3.038  16.175  22.826  0.00  0.00    +0.000 C 
ATOM     12  C   UNL     1      -2.886  15.140  21.686  0.00  0.00    +0.000 C 
ATOM     13  C   UNL     1       0.204  15.392  19.537  0.00  0.00    +0.000 A 
ATOM     14  C   UNL     1       1.132  14.514  18.909  0.00  0.00    +0.000 A 
ATOM     15  C   UNL     1       0.874  13.121  18.984  0.00  0.00    +0.000 A 
ATOM     16  C   UNL     1       2.380  15.047  18.239  0.00  0.00    +0.000 C 
ATOM     17  C   UNL     1       2.401  16.550  18.012  0.00  0.00    +0.000 C 
ATOM     18  C   UNL     1       1.987  17.240  19.291  0.00  0.00    +0.000 C 
ATOM     19  C   UNL     1       0.539  16.872  19.584  0.00  0.00    +0.000 C 
ENDROOT
BRANCH   2  20
ATOM     20  C   UNL     1       1.501   9.434  18.520  0.00  0.00    +0.000 C 
ATOM     21  O   UNL     1       1.755   9.131  17.352  0.00  0.00    +0.000 OA
ATOM     22  N   UNL     1       1.674   8.546  19.573  0.00  0.00    +0.000 N 
ATOM     23  H   UNL     1       1.292   8.822  20.469  0.00  0.00    +0.000 HD
BRANCH  22  24
ATOM     24  C   UNL     1       2.229   7.246  19.465  0.00  0.00    +0.000 A 
ATOM     25  C   UNL     1       3.129   6.873  18.455  0.00  0.00    +0.000 A 
ATOM     26  C   UNL     1       3.631   5.573  18.376  0.00  0.00    +0.000 A 
ATOM     27  C   UNL     1       3.245   4.628  19.316  0.00  0.00    +0.000 A 
ATOM     28 BR   UNL     1       3.919   2.868  19.202  0.00  0.00    +0.000 Br
ATOM     29  C   UNL     1       2.368   4.979  20.339  0.00  0.00    +0.000 A 
ATOM     30  C   UNL     1       1.869   6.290  20.419  0.00  0.00    +0.000 A 
ENDBRANCH  22  24
ENDBRANCH   2  20
BRANCH   1  31
ATOM     31  N   UNL     1       2.770  11.996  17.859  0.00  0.00    +0.000 N 
ATOM     32  H   UNL     1       3.516  11.350  18.143  0.00  0.00    +0.000 HD
ATOM     33  H   UNL     1       3.138  12.840  17.441  0.00  0.00    +0.000 HD
ENDBRANCH   1  31
TORSDOF 3
ENDMDL
MODEL 9
REMARK VINA RESULT:      -6.9      4.084     10.576
REMARK  Name = 
REMARK  3 active torsions:
REMARK  status: ('A' for Active; 'I' for Inactive)
REMARK    1  A    between atoms: N_1  and  C_2
REMARK    2  A    between atoms: C_3  and  C_4
REMARK    3  A    between atoms: N_6  and  C_7
REMARK                            x       y       z     vdW  Elec       q    Type
REMARK                         _______ _______ _______ _____ _____    ______ ____
ROOT
ATOM      1  C   UNL     1       1.473  11.700  19.018  0.00  0.00    +0.000 A 
ATOM      2  C   UNL     1       1.033  10.471  19.484  0.00  0.00    +0.000 A 
ATOM      3  S   UNL     1       0.051  10.661  20.864  0.00  0.00    +0.000 S 
ATOM      4  C   UNL     1       0.207  12.368  20.833  0.00  0.00    +0.000 A 
ATOM      5  N   UNL     1      -0.413  13.125  21.760  0.00  0.00    +0.000 NA
ATOM      6  C   UNL     1      -0.237  14.462  21.678  0.00  0.00    +0.000 A 
ATOM      7  N   UNL     1      -0.863  15.217  22.652  0.00  0.00    +0.000 N 
ATOM      8  C   UNL     1      -1.532  16.507  22.446  0.00  0.00    +0.000 C 
ATOM      9  C   UNL     1      -1.080  17.430  23.590  0.00  0.00    +0.000 C 
ATOM     10  O   UNL     1      -1.525  16.897  24.850  0.00  0.00    +0.000 OA
ATOM     11  C   UNL     1      -1.000  15.568  25.063  0.00  0.00    +0.000 C 
ATOM     12  C   UNL     1      -1.324  14.595  23.905  0.00  0.00    +0.000 C 
ATOM     13  C   UNL     1       0.608  15.037  20.695  0.00  0.00    +0.000 A 
ATOM     14  C   UNL     1       1.201  14.217  19.694  0.00  0.00    +0.000 A 
ATOM     15  C   UNL     1       1.003  12.816  19.791  0.00  0.00    +0.000 A 
ATOM     16  C   UNL     1       2.061  14.817  18.602  0.00  0.00    +0.000 C 
ATOM     17  C   UNL     1       1.978  16.329  18.471  0.00  0.00    +0.000 C 
ATOM     18  C   UNL     1       2.123  16.944  19.844  0.00  0.00    +0.000 C 
ATOM     19  C   UNL     1       0.925  16.523  20.684  0.00  0.00    +0.000 C 
ENDROOT
BRANCH   2  20
ATOM     20  C   UNL     1       1.404   9.175  18.904  0.00  0.00    +0.000 C 
ATOM     21  O   UNL     1       1.271   8.981  17.693  0.00  0.00    +0.000 OA
ATOM     22  N   UNL     1       1.867   8.192  19.769  0.00  0.00    +0.000 N 
ATOM     23  H   UNL     1       1.792   8.385  20.759  0.00  0.00    +0.000 HD
BRANCH  22  24
ATOM     24  C   UNL     1       2.316   6.905  19.379  0.00  0.00    +0.000 A 
ATOM     25  C   UNL     1       3.074   6.670  18.222  0.00  0.00    +0.000 A 
ATOM     26  C   UNL     1       3.474   5.381  17.868  0.00  0.00    +0.000 A 
ATOM     27  C   UNL     1       3.129   4.306  18.675  0.00  0.00    +0.000 A 
ATOM     28 BR   UNL     1       3.664   2.562  18.189  0.00  0.00    +0.000 Br
ATOM     29  C   UNL     1       2.393   4.517  19.839  0.00  0.00    +0.000 A 
ATOM     30  C   UNL     1       1.997   5.817  20.196  0.00  0.00    +0.000 A 
ENDBRANCH  22  24
ENDBRANCH   2  20
BRANCH   1  31
ATOM     31  N   UNL     1       2.276  11.800  17.925  0.00  0.00    +0.000 N 
ATOM     32  H   UNL     1       2.821  12.660  17.791  0.00  0.00    +0.000 HD
ATOM     33  H   UNL     1       2.064  11.344  17.048  0.00  0.00    +0.000 HD
ENDBRANCH   1  31
TORSDOF 3
ENDMDL
