MODEL 1
REMARK VINA RESULT:      -6.5      0.000      0.000
REMARK  Name = 
REMARK  3 active torsions:
REMARK  status: ('A' for Active; 'I' for Inactive)
REMARK    1  A    between atoms: C_1  and  C_2
REMARK    2  A    between atoms: C_2  and  C_4
REMARK    3  A    between atoms: C_5  and  C_6
REMARK                            x       y       z     vdW  Elec       q    Type
REMARK                         _______ _______ _______ _____ _____    ______ ____
ROOT
ATOM      1  C   UNL     1       1.101   8.284  20.481  0.00  0.00    +0.000 C 
ATOM      2  C   UNL     1       1.223   9.220  19.512  0.00  0.00    +0.000 C 
ATOM      3  C   UNL     1       2.023   8.942  18.271  0.00  0.00    +0.000 C 
ATOM      4  O   UNL     1       2.042   9.715  17.320  0.00  0.00    +0.000 OA
ATOM      5  C   UNL     1       2.839   7.721  18.219  0.00  0.00    +0.000 A 
ATOM      6  C   UNL     1       3.748   7.528  17.170  0.00  0.00    +0.000 A 
ATOM      7  C   UNL     1       4.527   6.371  17.122  0.00  0.00    +0.000 A 
ATOM      8  C   UNL     1       4.397   5.403  18.116  0.00  0.00    +0.000 A 
ATOM      9  C   UNL     1       3.487   5.593  19.156  0.00  0.00    +0.000 A 
ATOM     10  C   UNL     1       2.709   6.759  19.205  0.00  0.00    +0.000 A 
ATOM     11  C   UNL     1       1.745   6.948  20.297  0.00  0.00    +0.000 C 
ATOM     12  O   UNL     1       1.500   5.997  21.028  0.00  0.00    +0.000 OA
ENDROOT
BRANCH   2  13
ATOM     13  C   UNL     1       0.621  10.573  19.587  0.00  0.00    +0.000 A 
ATOM     14  C   UNL     1      -0.717  10.767  19.220  0.00  0.00    +0.000 A 
ATOM     15  C   UNL     1      -1.312  12.022  19.368  0.00  0.00    +0.000 A 
ATOM     16  C   UNL     1      -0.571  13.084  19.884  0.00  0.00    +0.000 A 
ATOM     17 BR   UNL     1      -1.398  14.763  20.147  0.00  0.00    +0.000 Br
ATOM     18  C   UNL     1       0.770  12.911  20.225  0.00  0.00    +0.000 A 
ATOM     19  C   UNL     1       1.367  11.657  20.074  0.00  0.00    +0.000 A 
ENDBRANCH   2  13
BRANCH   1  21
ATOM     20  C   UNL     1       0.998   9.291  22.882  0.00  0.00    +0.000 C 
ATOM     21  C   UNL     1       0.323   8.555  21.750  0.00  0.00    +0.000 C 
ATOM     22  O   UNL     1      -0.846   8.196  21.894  0.00  0.00    +0.000 OA
ENDBRANCH   1  21
TORSDOF 2
ENDMDL
MODEL 2
REMARK VINA RESULT:      -6.4      0.341      1.084
REMARK  Name = 
REMARK  3 active torsions:
REMARK  status: ('A' for Active; 'I' for Inactive)
REMARK    1  A    between atoms: C_1  and  C_2
REMARK    2  A    between atoms: C_2  and  C_4
REMARK    3  A    between atoms: C_5  and  C_6
REMARK                            x       y       z     vdW  Elec       q    Type
REMARK                         _______ _______ _______ _____ _____    ______ ____
ROOT
ATOM      1  C   UNL     1       1.189   8.239  20.413  0.00  0.00    +0.000 C 
ATOM      2  C   UNL     1       1.360   9.159  19.436  0.00  0.00    +0.000 C 
ATOM      3  C   UNL     1       2.167   8.839  18.211  0.00  0.00    +0.000 C 
ATOM      4  O   UNL     1       2.230   9.600  17.252  0.00  0.00    +0.000 OA
ATOM      5  C   UNL     1       2.939   7.588  18.184  0.00  0.00    +0.000 A 
ATOM      6  C   UNL     1       3.856   7.350  17.152  0.00  0.00    +0.000 A 
ATOM      7  C   UNL     1       4.593   6.164  17.128  0.00  0.00    +0.000 A 
ATOM      8  C   UNL     1       4.412   5.214  18.130  0.00  0.00    +0.000 A 
ATOM      9  C   UNL     1       3.494   5.448  19.154  0.00  0.00    +0.000 A 
ATOM     10  C   UNL     1       2.759   6.642  19.178  0.00  0.00    +0.000 A 
ATOM     11  C   UNL     1       1.786   6.879  20.253  0.00  0.00    +0.000 C 
ATOM     12  O   UNL     1       1.495   5.945  20.990  0.00  0.00    +0.000 OA
ENDROOT
BRANCH   2  13
ATOM     13  C   UNL     1       0.807  10.534  19.487  0.00  0.00    +0.000 A 
ATOM     14  C   UNL     1       1.571  11.578  20.027  0.00  0.00    +0.000 A 
ATOM     15  C   UNL     1       1.089  12.888  20.002  0.00  0.00    +0.000 A 
ATOM     16  C   UNL     1      -0.157  13.158  19.437  0.00  0.00    +0.000 A 
ATOM     17 BR   UNL     1      -0.776  14.941  19.343  0.00  0.00    +0.000 Br
ATOM     18  C   UNL     1      -0.939  12.125  18.923  0.00  0.00    +0.000 A 
ATOM     19  C   UNL     1      -0.459  10.813  18.951  0.00  0.00    +0.000 A 
ENDBRANCH   2  13
BRANCH   1  21
ATOM     20  C   UNL     1       1.078   9.305  22.788  0.00  0.00    +0.000 C 
ATOM     21  C   UNL     1       0.403   8.553  21.667  0.00  0.00    +0.000 C 
ATOM     22  O   UNL     1      -0.773   8.216  21.808  0.00  0.00    +0.000 OA
ENDBRANCH   1  21
TORSDOF 2
ENDMDL
MODEL 3
REMARK VINA RESULT:      -6.4      4.043      7.339
REMARK  Name = 
REMARK  3 active torsions:
REMARK  status: ('A' for Active; 'I' for Inactive)
REMARK    1  A    between atoms: C_1  and  C_2
REMARK    2  A    between atoms: C_2  and  C_4
REMARK    3  A    between atoms: C_5  and  C_6
REMARK                            x       y       z     vdW  Elec       q    Type
REMARK                         _______ _______ _______ _____ _____    ______ ____
ROOT
ATOM      1  C   UNL     1       3.732   4.652  18.986  0.00  0.00    +0.000 C 
ATOM      2  C   UNL     1       4.079   5.504  17.994  0.00  0.00    +0.000 C 
ATOM      3  C   UNL     1       3.605   6.930  18.004  0.00  0.00    +0.000 C 
ATOM      4  O   UNL     1       4.009   7.758  17.196  0.00  0.00    +0.000 OA
ATOM      5  C   UNL     1       2.594   7.328  18.994  0.00  0.00    +0.000 A 
ATOM      6  C   UNL     1       1.983   8.586  18.907  0.00  0.00    +0.000 A 
ATOM      7  C   UNL     1       1.019   8.963  19.843  0.00  0.00    +0.000 A 
ATOM      8  C   UNL     1       0.667   8.089  20.869  0.00  0.00    +0.000 A 
ATOM      9  C   UNL     1       1.279   6.839  20.958  0.00  0.00    +0.000 A 
ATOM     10  C   UNL     1       2.244   6.460  20.013  0.00  0.00    +0.000 A 
ATOM     11  C   UNL     1       2.893   5.147  20.120  0.00  0.00    +0.000 C 
ATOM     12  O   UNL     1       2.723   4.494  21.141  0.00  0.00    +0.000 OA
ENDROOT
BRANCH   2  13
ATOM     13  C   UNL     1       4.911   5.123  16.828  0.00  0.00    +0.000 A 
ATOM     14  C   UNL     1       4.316   4.537  15.703  0.00  0.00    +0.000 A 
ATOM     15  C   UNL     1       5.082   4.252  14.570  0.00  0.00    +0.000 A 
ATOM     16  C   UNL     1       6.443   4.554  14.559  0.00  0.00    +0.000 A 
ATOM     17 BR   UNL     1       7.461   4.231  13.000  0.00  0.00    +0.000 Br
ATOM     18  C   UNL     1       7.052   5.110  15.682  0.00  0.00    +0.000 A 
ATOM     19  C   UNL     1       6.288   5.392  16.818  0.00  0.00    +0.000 A 
ENDBRANCH   2  13
BRANCH   1  21
ATOM     20  C   UNL     1       3.319   2.179  18.279  0.00  0.00    +0.000 C 
ATOM     21  C   UNL     1       4.176   3.205  18.978  0.00  0.00    +0.000 C 
ATOM     22  O   UNL     1       5.215   2.834  19.524  0.00  0.00    +0.000 OA
ENDBRANCH   1  21
TORSDOF 2
ENDMDL
MODEL 4
REMARK VINA RESULT:      -6.2      4.249      5.967
REMARK  Name = 
REMARK  3 active torsions:
REMARK  status: ('A' for Active; 'I' for Inactive)
REMARK    1  A    between atoms: C_1  and  C_2
REMARK    2  A    between atoms: C_2  and  C_4
REMARK    3  A    between atoms: C_5  and  C_6
REMARK                            x       y       z     vdW  Elec       q    Type
REMARK                         _______ _______ _______ _____ _____    ______ ____
ROOT
ATOM      1  C   UNL     1      -1.072  11.620  20.224  0.00  0.00    +0.000 C 
ATOM      2  C   UNL     1      -2.215  12.314  20.427  0.00  0.00    +0.000 C 
ATOM      3  C   UNL     1      -3.378  12.171  19.487  0.00  0.00    +0.000 C 
ATOM      4  O   UNL     1      -4.470  12.681  19.716  0.00  0.00    +0.000 OA
ATOM      5  C   UNL     1      -3.183  11.428  18.234  0.00  0.00    +0.000 A 
ATOM      6  C   UNL     1      -4.176  11.443  17.246  0.00  0.00    +0.000 A 
ATOM      7  C   UNL     1      -3.990  10.741  16.054  0.00  0.00    +0.000 A 
ATOM      8  C   UNL     1      -2.816  10.021  15.848  0.00  0.00    +0.000 A 
ATOM      9  C   UNL     1      -1.830  10.001  16.834  0.00  0.00    +0.000 A 
ATOM     10  C   UNL     1      -2.018  10.711  18.029  0.00  0.00    +0.000 A 
ATOM     11  C   UNL     1      -0.980  10.677  19.069  0.00  0.00    +0.000 C 
ATOM     12  O   UNL     1      -0.065   9.872  18.952  0.00  0.00    +0.000 OA
ENDROOT
BRANCH   2  13
ATOM     13  C   UNL     1      -2.418  13.269  21.543  0.00  0.00    +0.000 A 
ATOM     14  C   UNL     1      -2.174  14.636  21.349  0.00  0.00    +0.000 A 
ATOM     15  C   UNL     1      -2.443  15.550  22.371  0.00  0.00    +0.000 A 
ATOM     16  C   UNL     1      -2.955  15.099  23.587  0.00  0.00    +0.000 A 
ATOM     17 BR   UNL     1      -3.382  16.345  24.942  0.00  0.00    +0.000 Br
ATOM     18  C   UNL     1      -3.174  13.739  23.802  0.00  0.00    +0.000 A 
ATOM     19  C   UNL     1      -2.903  12.824  22.782  0.00  0.00    +0.000 A 
ENDBRANCH   2  13
BRANCH   1  21
ATOM     20  C   UNL     1       1.195  12.773  20.793  0.00  0.00    +0.000 C 
ATOM     21  C   UNL     1       0.120  11.773  21.144  0.00  0.00    +0.000 C 
ATOM     22  O   UNL     1       0.246  11.108  22.172  0.00  0.00    +0.000 OA
ENDBRANCH   1  21
TORSDOF 2
ENDMDL
MODEL 5
REMARK VINA RESULT:      -6.2      4.477      6.186
REMARK  Name = 
REMARK  3 active torsions:
REMARK  status: ('A' for Active; 'I' for Inactive)
REMARK    1  A    between atoms: C_1  and  C_2
REMARK    2  A    between atoms: C_2  and  C_4
REMARK    3  A    between atoms: C_5  and  C_6
REMARK                            x       y       z     vdW  Elec       q    Type
REMARK                         _______ _______ _______ _____ _____    ______ ____
ROOT
ATOM      1  C   UNL     1      -1.681  11.787  20.378  0.00  0.00    +0.000 C 
ATOM      2  C   UNL     1      -2.857  12.456  20.365  0.00  0.00    +0.000 C 
ATOM      3  C   UNL     1      -3.849  12.243  19.258  0.00  0.00    +0.000 C 
ATOM      4  O   UNL     1      -4.974  12.730  19.286  0.00  0.00    +0.000 OA
ATOM      5  C   UNL     1      -3.438  11.456  18.086  0.00  0.00    +0.000 A 
ATOM      6  C   UNL     1      -4.259  11.404  16.952  0.00  0.00    +0.000 A 
ATOM      7  C   UNL     1      -3.867  10.661  15.837  0.00  0.00    +0.000 A 
ATOM      8  C   UNL     1      -2.660   9.966  15.854  0.00  0.00    +0.000 A 
ATOM      9  C   UNL     1      -1.846  10.014  16.985  0.00  0.00    +0.000 A 
ATOM     10  C   UNL     1      -2.239  10.765  18.102  0.00  0.00    +0.000 A 
ATOM     11  C   UNL     1      -1.383  10.802  19.295  0.00  0.00    +0.000 C 
ATOM     12  O   UNL     1      -0.444  10.019  19.362  0.00  0.00    +0.000 OA
ENDROOT
BRANCH   2  13
ATOM     13  C   UNL     1      -3.257  13.449  21.391  0.00  0.00    +0.000 A 
ATOM     14  C   UNL     1      -3.931  13.031  22.546  0.00  0.00    +0.000 A 
ATOM     15  C   UNL     1      -4.237  13.949  23.553  0.00  0.00    +0.000 A 
ATOM     16  C   UNL     1      -3.867  15.286  23.408  0.00  0.00    +0.000 A 
ATOM     17 BR   UNL     1      -4.220  16.511  24.802  0.00  0.00    +0.000 Br
ATOM     18  C   UNL     1      -3.221  15.719  22.251  0.00  0.00    +0.000 A 
ATOM     19  C   UNL     1      -2.919  14.802  21.241  0.00  0.00    +0.000 A 
ENDBRANCH   2  13
BRANCH   1  21
ATOM     20  C   UNL     1      -0.719  11.167  22.720  0.00  0.00    +0.000 C 
ATOM     21  C   UNL     1      -0.656  12.010  21.470  0.00  0.00    +0.000 C 
ATOM     22  O   UNL     1       0.231  12.858  21.375  0.00  0.00    +0.000 OA
ENDBRANCH   1  21
TORSDOF 2
ENDMDL
MODEL 6
REMARK VINA RESULT:      -6.2      4.499      6.259
REMARK  Name = 
REMARK  3 active torsions:
REMARK  status: ('A' for Active; 'I' for Inactive)
REMARK    1  A    between atoms: C_1  and  C_2
REMARK    2  A    between atoms: C_2  and  C_4
REMARK    3  A    between atoms: C_5  and  C_6
REMARK                            x       y       z     vdW  Elec       q    Type
REMARK                         _______ _______ _______ _____ _____    ______ ____
ROOT
ATOM      1  C   UNL     1      -1.686  11.779  20.420  0.00  0.00    +0.000 C 
ATOM      2  C   UNL     1      -2.858  12.454  20.417  0.00  0.00    +0.000 C 
ATOM      3  C   UNL     1      -3.854  12.260  19.309  0.00  0.00    +0.000 C 
ATOM      4  O   UNL     1      -4.976  12.753  19.346  0.00  0.00    +0.000 OA
ATOM      5  C   UNL     1      -3.449  11.487  18.126  0.00  0.00    +0.000 A 
ATOM      6  C   UNL     1      -4.273  11.454  16.993  0.00  0.00    +0.000 A 
ATOM      7  C   UNL     1      -3.887  10.724  15.868  0.00  0.00    +0.000 A 
ATOM      8  C   UNL     1      -2.683  10.023  15.873  0.00  0.00    +0.000 A 
ATOM      9  C   UNL     1      -1.867  10.051  17.003  0.00  0.00    +0.000 A 
ATOM     10  C   UNL     1      -2.254  10.790  18.131  0.00  0.00    +0.000 A 
ATOM     11  C   UNL     1      -1.395  10.806  19.323  0.00  0.00    +0.000 C 
ATOM     12  O   UNL     1      -0.460  10.018  19.377  0.00  0.00    +0.000 OA
ENDROOT
BRANCH   2  13
ATOM     13  C   UNL     1      -3.251  13.435  21.457  0.00  0.00    +0.000 A 
ATOM     14  C   UNL     1      -2.962  14.795  21.283  0.00  0.00    +0.000 A 
ATOM     15  C   UNL     1      -3.404  15.733  22.220  0.00  0.00    +0.000 A 
ATOM     16  C   UNL     1      -4.135  15.313  23.330  0.00  0.00    +0.000 A 
ATOM     17 BR   UNL     1      -4.790  16.592  24.558  0.00  0.00    +0.000 Br
ATOM     18  C   UNL     1      -4.404  13.960  23.528  0.00  0.00    +0.000 A 
ATOM     19  C   UNL     1      -3.960  13.020  22.595  0.00  0.00    +0.000 A 
ENDBRANCH   2  13
BRANCH   1  21
ATOM     20  C   UNL     1      -0.724  11.124  22.751  0.00  0.00    +0.000 C 
ATOM     21  C   UNL     1      -0.658  11.982  21.512  0.00  0.00    +0.000 C 
ATOM     22  O   UNL     1       0.234  12.826  21.426  0.00  0.00    +0.000 OA
ENDBRANCH   1  21
TORSDOF 2
ENDMDL
MODEL 7
REMARK VINA RESULT:      -6.2      4.285      5.984
REMARK  Name = 
REMARK  3 active torsions:
REMARK  status: ('A' for Active; 'I' for Inactive)
REMARK    1  A    between atoms: C_1  and  C_2
REMARK    2  A    between atoms: C_2  and  C_4
REMARK    3  A    between atoms: C_5  and  C_6
REMARK                            x       y       z     vdW  Elec       q    Type
REMARK                         _______ _______ _______ _____ _____    ______ ____
ROOT
ATOM      1  C   UNL     1      -1.114  11.614  20.091  0.00  0.00    +0.000 C 
ATOM      2  C   UNL     1      -2.276  12.256  20.352  0.00  0.00    +0.000 C 
ATOM      3  C   UNL     1      -3.462  12.098  19.444  0.00  0.00    +0.000 C 
ATOM      4  O   UNL     1      -4.564  12.557  19.723  0.00  0.00    +0.000 OA
ATOM      5  C   UNL     1      -3.279  11.404  18.161  0.00  0.00    +0.000 A 
ATOM      6  C   UNL     1      -4.303  11.412  17.205  0.00  0.00    +0.000 A 
ATOM      7  C   UNL     1      -4.128  10.756  15.985  0.00  0.00    +0.000 A 
ATOM      8  C   UNL     1      -2.935  10.089  15.720  0.00  0.00    +0.000 A 
ATOM      9  C   UNL     1      -1.918  10.076  16.674  0.00  0.00    +0.000 A 
ATOM     10  C   UNL     1      -2.094  10.739  17.897  0.00  0.00    +0.000 A 
ATOM     11  C   UNL     1      -1.023  10.712  18.903  0.00  0.00    +0.000 C 
ATOM     12  O   UNL     1      -0.083   9.948  18.731  0.00  0.00    +0.000 OA
ENDROOT
BRANCH   2  13
ATOM     13  C   UNL     1      -2.478  13.166  21.504  0.00  0.00    +0.000 A 
ATOM     14  C   UNL     1      -2.891  12.652  22.741  0.00  0.00    +0.000 A 
ATOM     15  C   UNL     1      -3.002  13.493  23.851  0.00  0.00    +0.000 A 
ATOM     16  C   UNL     1      -2.700  14.848  23.726  0.00  0.00    +0.000 A 
ATOM     17 BR   UNL     1      -2.786  15.970  25.245  0.00  0.00    +0.000 Br
ATOM     18  C   UNL     1      -2.316  15.377  22.495  0.00  0.00    +0.000 A 
ATOM     19  C   UNL     1      -2.208  14.538  21.384  0.00  0.00    +0.000 A 
ENDBRANCH   2  13
BRANCH   1  21
ATOM     20  C   UNL     1       1.100  12.868  20.656  0.00  0.00    +0.000 C 
ATOM     21  C   UNL     1       0.101  11.783  20.978  0.00  0.00    +0.000 C 
ATOM     22  O   UNL     1       0.305  11.065  21.957  0.00  0.00    +0.000 OA
ENDBRANCH   1  21
TORSDOF 2
ENDMDL
MODEL 8
REMARK VINA RESULT:      -6.1      2.175      3.665
REMARK  Name = 
REMARK  3 active torsions:
REMARK  status: ('A' for Active; 'I' for Inactive)
REMARK    1  A    between atoms: C_1  and  C_2
REMARK    2  A    between atoms: C_2  and  C_4
REMARK    3  A    between atoms: C_5  and  C_6
REMARK                            x       y       z     vdW  Elec       q    Type
REMARK                         _______ _______ _______ _____ _____    ______ ____
ROOT
ATOM      1  C   UNL     1       2.501   5.131  19.081  0.00  0.00    +0.000 C 
ATOM      2  C   UNL     1       2.649   6.449  18.810  0.00  0.00    +0.000 C 
ATOM      3  C   UNL     1       3.525   6.907  17.680  0.00  0.00    +0.000 C 
ATOM      4  O   UNL     1       3.574   8.080  17.325  0.00  0.00    +0.000 OA
ATOM      5  C   UNL     1       4.379   5.919  17.006  0.00  0.00    +0.000 A 
ATOM      6  C   UNL     1       5.351   6.339  16.088  0.00  0.00    +0.000 A 
ATOM      7  C   UNL     1       6.166   5.401  15.451  0.00  0.00    +0.000 A 
ATOM      8  C   UNL     1       6.009   4.045  15.725  0.00  0.00    +0.000 A 
ATOM      9  C   UNL     1       5.037   3.626  16.633  0.00  0.00    +0.000 A 
ATOM     10  C   UNL     1       4.223   4.571  17.276  0.00  0.00    +0.000 A 
ATOM     11  C   UNL     1       3.194   4.123  18.224  0.00  0.00    +0.000 C 
ATOM     12  O   UNL     1       2.937   2.927  18.282  0.00  0.00    +0.000 OA
ENDROOT
BRANCH   2  13
ATOM     13  C   UNL     1       2.004   7.532  19.590  0.00  0.00    +0.000 A 
ATOM     14  C   UNL     1       1.351   8.580  18.928  0.00  0.00    +0.000 A 
ATOM     15  C   UNL     1       0.670   9.558  19.657  0.00  0.00    +0.000 A 
ATOM     16  C   UNL     1       0.641   9.489  21.049  0.00  0.00    +0.000 A 
ATOM     17 BR   UNL     1      -0.338  10.774  22.030  0.00  0.00    +0.000 Br
ATOM     18  C   UNL     1       1.311   8.467  21.721  0.00  0.00    +0.000 A 
ATOM     19  C   UNL     1       1.995   7.491  20.992  0.00  0.00    +0.000 A 
ENDBRANCH   2  13
BRANCH   1  21
ATOM     20  C   UNL     1       2.318   4.162  21.493  0.00  0.00    +0.000 C 
ATOM     21  C   UNL     1       1.646   4.652  20.234  0.00  0.00    +0.000 C 
ATOM     22  O   UNL     1       0.416   4.646  20.181  0.00  0.00    +0.000 OA
ENDBRANCH   1  21
TORSDOF 2
ENDMDL
MODEL 9
REMARK VINA RESULT:      -6.1      5.687      7.495
REMARK  Name = 
REMARK  3 active torsions:
REMARK  status: ('A' for Active; 'I' for Inactive)
REMARK    1  A    between atoms: C_1  and  C_2
REMARK    2  A    between atoms: C_2  and  C_4
REMARK    3  A    between atoms: C_5  and  C_6
REMARK                            x       y       z     vdW  Elec       q    Type
REMARK                         _______ _______ _______ _____ _____    ______ ____
ROOT
ATOM      1  C   UNL     1       5.342   4.181  17.034  0.00  0.00    +0.000 C 
ATOM      2  C   UNL     1       5.340   5.170  17.957  0.00  0.00    +0.000 C 
ATOM      3  C   UNL     1       4.312   5.197  19.051  0.00  0.00    +0.000 C 
ATOM      4  O   UNL     1       4.363   6.000  19.976  0.00  0.00    +0.000 OA
ATOM      5  C   UNL     1       3.187   4.252  18.985  0.00  0.00    +0.000 A 
ATOM      6  C   UNL     1       2.109   4.379  19.871  0.00  0.00    +0.000 A 
ATOM      7  C   UNL     1       1.039   3.485  19.805  0.00  0.00    +0.000 A 
ATOM      8  C   UNL     1       1.046   2.462  18.860  0.00  0.00    +0.000 A 
ATOM      9  C   UNL     1       2.122   2.332  17.982  0.00  0.00    +0.000 A 
ATOM     10  C   UNL     1       3.193   3.235  18.047  0.00  0.00    +0.000 A 
ATOM     11  C   UNL     1       4.329   3.086  17.127  0.00  0.00    +0.000 C 
ATOM     12  O   UNL     1       4.407   2.063  16.459  0.00  0.00    +0.000 OA
ENDROOT
BRANCH   2  13
ATOM     13  C   UNL     1       6.301   6.299  17.964  0.00  0.00    +0.000 A 
ATOM     14  C   UNL     1       6.008   7.474  17.260  0.00  0.00    +0.000 A 
ATOM     15  C   UNL     1       6.871   8.571  17.332  0.00  0.00    +0.000 A 
ATOM     16  C   UNL     1       8.026   8.493  18.107  0.00  0.00    +0.000 A 
ATOM     17 BR   UNL     1       9.156  10.001  18.256  0.00  0.00    +0.000 Br
ATOM     18  C   UNL     1       8.344   7.319  18.788  0.00  0.00    +0.000 A 
ATOM     19  C   UNL     1       7.484   6.221  18.714  0.00  0.00    +0.000 A 
ENDBRANCH   2  13
BRANCH   1  21
ATOM     20  C   UNL     1       5.866   4.261  14.483  0.00  0.00    +0.000 C 
ATOM     21  C   UNL     1       6.352   4.152  15.907  0.00  0.00    +0.000 C 
ATOM     22  O   UNL     1       7.561   4.043  16.111  0.00  0.00    +0.000 OA
ENDBRANCH   1  21
TORSDOF 2
ENDMDL
