MODEL 1
REMARK VINA RESULT:      -7.9      0.000      0.000
REMARK  Name = 
REMARK  6 active torsions:
REMARK  status: ('A' for Active; 'I' for Inactive)
REMARK    1  A    between atoms: C_1  and  C_2
REMARK    2  A    between atoms: C_5  and  C_6
REMARK    3  A    between atoms: C_6  and  C_7
REMARK    4  A    between atoms: C_6  and  N_8
REMARK    5  A    between atoms: C_9  and  C_11
REMARK    6  A    between atoms: C_11  and  N_12
REMARK                            x       y       z     vdW  Elec       q    Type
REMARK                         _______ _______ _______ _____ _____    ______ ____
ROOT
ATOM      1  N   UNL     1       5.181   6.203  17.862  0.00  0.00    +0.000 N 
ATOM      2  C   UNL     1       6.161   5.528  18.551  0.00  0.00    +0.000 C 
ATOM      3  O   UNL     1       6.069   5.252  19.748  0.00  0.00    +0.000 OA
ATOM      4  H   UNL     1       5.276   6.234  16.851  0.00  0.00    +0.000 HD
ENDROOT
BRANCH   1   5
ATOM      5  C   UNL     1       3.943   6.639  18.483  0.00  0.00    +0.000 C 
ATOM      6  C   UNL     1       3.309   7.764  17.662  0.00  0.00    +0.000 C 
BRANCH   5  11
ATOM      7  C   UNL     1       0.531   1.924  19.091  0.00  0.00    +0.000 C 
ATOM      8  C   UNL     1       1.340   3.185  18.975  0.00  0.00    +0.000 A 
ATOM      9  C   UNL     1       1.532   3.773  17.718  0.00  0.00    +0.000 A 
ATOM     10  C   UNL     1       2.338   4.908  17.572  0.00  0.00    +0.000 A 
ATOM     11  C   UNL     1       2.977   5.485  18.680  0.00  0.00    +0.000 A 
ATOM     12  C   UNL     1       2.741   4.927  19.945  0.00  0.00    +0.000 A 
ATOM     13  C   UNL     1       1.944   3.786  20.090  0.00  0.00    +0.000 A 
ATOM     14 CL   UNL     1       1.763   3.126  21.677  0.00  0.00    +0.000 Cl
ENDBRANCH   5  11
ENDBRANCH   1   5
BRANCH   2  15
ATOM     15  C   UNL     1       7.397   5.126  17.746  0.00  0.00    +0.000 C 
BRANCH  15  16
ATOM     16  N   UNL     1       7.140   4.777  16.366  0.00  0.00    +0.000 N 
ATOM     17  N   UNL     1       7.834   5.332  15.305  0.00  0.00    +0.000 NA
ATOM     18  C   UNL     1       7.228   4.853  14.261  0.00  0.00    +0.000 A 
ATOM     19  N   UNL     1       7.589   5.136  12.975  0.00  0.00    +0.000 NA
ATOM     20  C   UNL     1       6.875   4.574  12.054  0.00  0.00    +0.000 A 
ATOM     21  C   UNL     1       5.726   3.658  12.282  0.00  0.00    +0.000 A 
ATOM     22  C   UNL     1       5.433   3.426  13.567  0.00  0.00    +0.000 A 
ATOM     23  N   UNL     1       6.190   4.023  14.530  0.00  0.00    +0.000 N 
ATOM     24  C   UNL     1       6.098   3.959  15.898  0.00  0.00    +0.000 A 
ATOM     25  O   UNL     1       5.284   3.340  16.562  0.00  0.00    +0.000 OA
ENDBRANCH  15  16
ENDBRANCH   2  15
TORSDOF 4
ENDMDL
MODEL 2
REMARK VINA RESULT:      -7.8      2.512      3.817
REMARK  Name = 
REMARK  6 active torsions:
REMARK  status: ('A' for Active; 'I' for Inactive)
REMARK    1  A    between atoms: C_1  and  C_2
REMARK    2  A    between atoms: C_5  and  C_6
REMARK    3  A    between atoms: C_6  and  C_7
REMARK    4  A    between atoms: C_6  and  N_8
REMARK    5  A    between atoms: C_9  and  C_11
REMARK    6  A    between atoms: C_11  and  N_12
REMARK                            x       y       z     vdW  Elec       q    Type
REMARK                         _______ _______ _______ _____ _____    ______ ____
ROOT
ATOM      1  N   UNL     1       3.994   5.501  18.939  0.00  0.00    +0.000 N 
ATOM      2  C   UNL     1       4.427   4.381  18.271  0.00  0.00    +0.000 C 
ATOM      3  O   UNL     1       3.684   3.440  17.988  0.00  0.00    +0.000 OA
ATOM      4  H   UNL     1       4.638   6.286  18.976  0.00  0.00    +0.000 HD
ENDROOT
BRANCH   1   5
ATOM      5  C   UNL     1       2.615   5.681  19.359  0.00  0.00    +0.000 C 
ATOM      6  C   UNL     1       2.415   5.113  20.766  0.00  0.00    +0.000 C 
BRANCH   5  11
ATOM      7  C   UNL     1       0.609  11.155  18.861  0.00  0.00    +0.000 C 
ATOM      8  C   UNL     1       1.194   9.782  19.039  0.00  0.00    +0.000 A 
ATOM      9  C   UNL     1       1.800   9.139  17.951  0.00  0.00    +0.000 A 
ATOM     10  C   UNL     1       2.292   7.835  18.071  0.00  0.00    +0.000 A 
ATOM     11  C   UNL     1       2.189   7.135  19.284  0.00  0.00    +0.000 A 
ATOM     12  C   UNL     1       1.630   7.799  20.386  0.00  0.00    +0.000 A 
ATOM     13  C   UNL     1       1.129   9.100  20.263  0.00  0.00    +0.000 A 
ATOM     14 CL   UNL     1       0.397   9.815  21.656  0.00  0.00    +0.000 Cl
ENDBRANCH   5  11
ENDBRANCH   1   5
BRANCH   2  15
ATOM     15  C   UNL     1       5.907   4.355  17.885  0.00  0.00    +0.000 C 
BRANCH  15  16
ATOM     16  N   UNL     1       6.169   4.440  16.465  0.00  0.00    +0.000 N 
ATOM     17  N   UNL     1       5.678   3.522  15.552  0.00  0.00    +0.000 NA
ATOM     18  C   UNL     1       6.231   3.881  14.433  0.00  0.00    +0.000 A 
ATOM     19  N   UNL     1       6.021   3.247  13.242  0.00  0.00    +0.000 NA
ATOM     20  C   UNL     1       6.652   3.737  12.226  0.00  0.00    +0.000 A 
ATOM     21  C   UNL     1       7.559   4.915  12.250  0.00  0.00    +0.000 A 
ATOM     22  C   UNL     1       7.714   5.486  13.450  0.00  0.00    +0.000 A 
ATOM     23  N   UNL     1       7.046   4.962  14.515  0.00  0.00    +0.000 N 
ATOM     24  C   UNL     1       7.036   5.346  15.833  0.00  0.00    +0.000 A 
ATOM     25  O   UNL     1       7.653   6.264  16.347  0.00  0.00    +0.000 OA
ENDBRANCH  15  16
ENDBRANCH   2  15
TORSDOF 4
ENDMDL
MODEL 3
REMARK VINA RESULT:      -7.8      4.987      6.933
REMARK  Name = 
REMARK  6 active torsions:
REMARK  status: ('A' for Active; 'I' for Inactive)
REMARK    1  A    between atoms: C_1  and  C_2
REMARK    2  A    between atoms: C_5  and  C_6
REMARK    3  A    between atoms: C_6  and  C_7
REMARK    4  A    between atoms: C_6  and  N_8
REMARK    5  A    between atoms: C_9  and  C_11
REMARK    6  A    between atoms: C_11  and  N_12
REMARK                            x       y       z     vdW  Elec       q    Type
REMARK                         _______ _______ _______ _____ _____    ______ ____
ROOT
ATOM      1  N   UNL     1       1.259   9.431  18.471  0.00  0.00    +0.000 N 
ATOM      2  C   UNL     1       2.004   8.362  18.911  0.00  0.00    +0.000 C 
ATOM      3  O   UNL     1       2.005   7.984  20.083  0.00  0.00    +0.000 OA
ATOM      4  H   UNL     1       1.196   9.558  17.465  0.00  0.00    +0.000 HD
ENDROOT
BRANCH   1   5
ATOM      5  C   UNL     1       0.396  10.201  19.349  0.00  0.00    +0.000 C 
ATOM      6  C   UNL     1       1.094  11.495  19.773  0.00  0.00    +0.000 C 
BRANCH   5  11
ATOM      7  C   UNL     1      -4.634  11.681  16.751  0.00  0.00    +0.000 C 
ATOM      8  C   UNL     1      -3.379  11.218  17.435  0.00  0.00    +0.000 A 
ATOM      9  C   UNL     1      -3.048  11.726  18.698  0.00  0.00    +0.000 A 
ATOM     10  C   UNL     1      -1.852  11.363  19.327  0.00  0.00    +0.000 A 
ATOM     11  C   UNL     1      -0.950  10.484  18.708  0.00  0.00    +0.000 A 
ATOM     12  C   UNL     1      -1.307   9.935  17.467  0.00  0.00    +0.000 A 
ATOM     13  C   UNL     1      -2.499  10.305  16.833  0.00  0.00    +0.000 A 
ATOM     14 CL   UNL     1      -2.826   9.630  15.276  0.00  0.00    +0.000 Cl
ENDBRANCH   5  11
ENDBRANCH   1   5
BRANCH   2  15
ATOM     15  C   UNL     1       2.849   7.648  17.855  0.00  0.00    +0.000 C 
BRANCH  15  16
ATOM     16  N   UNL     1       2.871   6.206  17.965  0.00  0.00    +0.000 N 
ATOM     17  N   UNL     1       1.744   5.419  17.799  0.00  0.00    +0.000 NA
ATOM     18  C   UNL     1       2.161   4.225  18.093  0.00  0.00    +0.000 A 
ATOM     19  N   UNL     1       1.369   3.113  18.058  0.00  0.00    +0.000 NA
ATOM     20  C   UNL     1       1.947   2.002  18.381  0.00  0.00    +0.000 A 
ATOM     21  C   UNL     1       3.374   1.844  18.769  0.00  0.00    +0.000 A 
ATOM     22  C   UNL     1       4.087   2.976  18.778  0.00  0.00    +0.000 A 
ATOM     23  N   UNL     1       3.470   4.142  18.437  0.00  0.00    +0.000 N 
ATOM     24  C   UNL     1       3.962   5.422  18.374  0.00  0.00    +0.000 A 
ATOM     25  O   UNL     1       5.094   5.798  18.628  0.00  0.00    +0.000 OA
ENDBRANCH  15  16
ENDBRANCH   2  15
TORSDOF 4
ENDMDL
MODEL 4
REMARK VINA RESULT:      -7.6      4.954      6.865
REMARK  Name = 
REMARK  6 active torsions:
REMARK  status: ('A' for Active; 'I' for Inactive)
REMARK    1  A    between atoms: C_1  and  C_2
REMARK    2  A    between atoms: C_5  and  C_6
REMARK    3  A    between atoms: C_6  and  C_7
REMARK    4  A    between atoms: C_6  and  N_8
REMARK    5  A    between atoms: C_9  and  C_11
REMARK    6  A    between atoms: C_11  and  N_12
REMARK                            x       y       z     vdW  Elec       q    Type
REMARK                         _______ _______ _______ _____ _____    ______ ____
ROOT
ATOM      1  N   UNL     1       1.304   9.278  18.426  0.00  0.00    +0.000 N 
ATOM      2  C   UNL     1       1.922   8.149  18.911  0.00  0.00    +0.000 C 
ATOM      3  O   UNL     1       1.882   7.821  20.097  0.00  0.00    +0.000 OA
ATOM      4  H   UNL     1       1.255   9.370  17.416  0.00  0.00    +0.000 HD
ENDROOT
BRANCH   1   5
ATOM      5  C   UNL     1       0.536  10.176  19.270  0.00  0.00    +0.000 C 
ATOM      6  C   UNL     1       1.320  11.467  19.517  0.00  0.00    +0.000 C 
BRANCH   5  11
ATOM      7  C   UNL     1      -4.589  11.676  16.876  0.00  0.00    +0.000 C 
ATOM      8  C   UNL     1      -3.309  11.208  17.510  0.00  0.00    +0.000 A 
ATOM      9  C   UNL     1      -2.923  11.719  18.755  0.00  0.00    +0.000 A 
ATOM     10  C   UNL     1      -1.704  11.352  19.336  0.00  0.00    +0.000 A 
ATOM     11  C   UNL     1      -0.834  10.464  18.684  0.00  0.00    +0.000 A 
ATOM     12  C   UNL     1      -1.245   9.912  17.461  0.00  0.00    +0.000 A 
ATOM     13  C   UNL     1      -2.461  10.287  16.876  0.00  0.00    +0.000 A 
ATOM     14 CL   UNL     1      -2.856   9.607  15.337  0.00  0.00    +0.000 Cl
ENDBRANCH   5  11
ENDBRANCH   1   5
BRANCH   2  15
ATOM     15  C   UNL     1       2.678   7.301  17.887  0.00  0.00    +0.000 C 
BRANCH  15  16
ATOM     16  N   UNL     1       2.906   5.929  18.282  0.00  0.00    +0.000 N 
ATOM     17  N   UNL     1       4.028   5.522  18.985  0.00  0.00    +0.000 NA
ATOM     18  C   UNL     1       3.908   4.230  19.029  0.00  0.00    +0.000 A 
ATOM     19  N   UNL     1       4.804   3.403  19.643  0.00  0.00    +0.000 NA
ATOM     20  C   UNL     1       4.530   2.140  19.590  0.00  0.00    +0.000 A 
ATOM     21  C   UNL     1       3.339   1.534  18.939  0.00  0.00    +0.000 A 
ATOM     22  C   UNL     1       2.505   2.407  18.361  0.00  0.00    +0.000 A 
ATOM     23  N   UNL     1       2.802   3.735  18.420  0.00  0.00    +0.000 N 
ATOM     24  C   UNL     1       2.130   4.818  17.911  0.00  0.00    +0.000 A 
ATOM     25  O   UNL     1       1.093   4.818  17.269  0.00  0.00    +0.000 OA
ENDBRANCH  15  16
ENDBRANCH   2  15
TORSDOF 4
ENDMDL
MODEL 5
REMARK VINA RESULT:      -7.6      5.081      6.915
REMARK  Name = 
REMARK  6 active torsions:
REMARK  status: ('A' for Active; 'I' for Inactive)
REMARK    1  A    between atoms: C_1  and  C_2
REMARK    2  A    between atoms: C_5  and  C_6
REMARK    3  A    between atoms: C_6  and  C_7
REMARK    4  A    between atoms: C_6  and  N_8
REMARK    5  A    between atoms: C_9  and  C_11
REMARK    6  A    between atoms: C_11  and  N_12
REMARK                            x       y       z     vdW  Elec       q    Type
REMARK                         _______ _______ _______ _____ _____    ______ ____
ROOT
ATOM      1  N   UNL     1       1.256   9.375  18.646  0.00  0.00    +0.000 N 
ATOM      2  C   UNL     1       1.989   8.289  19.063  0.00  0.00    +0.000 C 
ATOM      3  O   UNL     1       1.945   7.854  20.215  0.00  0.00    +0.000 OA
ATOM      4  H   UNL     1       1.234   9.550  17.645  0.00  0.00    +0.000 HD
ENDROOT
BRANCH   1   5
ATOM      5  C   UNL     1       0.352  10.096  19.524  0.00  0.00    +0.000 C 
ATOM      6  C   UNL     1       1.071  11.292  20.153  0.00  0.00    +0.000 C 
BRANCH   5  11
ATOM      7  C   UNL     1      -4.683  11.368  16.827  0.00  0.00    +0.000 C 
ATOM      8  C   UNL     1      -3.363  11.128  17.504  0.00  0.00    +0.000 A 
ATOM      9  C   UNL     1      -2.396  10.330  16.878  0.00  0.00    +0.000 A 
ATOM     10  C   UNL     1      -1.186  10.035  17.515  0.00  0.00    +0.000 A 
ATOM     11  C   UNL     1      -0.910  10.528  18.800  0.00  0.00    +0.000 A 
ATOM     12  C   UNL     1      -1.856  11.370  19.403  0.00  0.00    +0.000 A 
ATOM     13  C   UNL     1      -3.070  11.657  18.770  0.00  0.00    +0.000 A 
ATOM     14 CL   UNL     1      -4.205  12.650  19.616  0.00  0.00    +0.000 Cl
ENDBRANCH   5  11
ENDBRANCH   1   5
BRANCH   2  15
ATOM     15  C   UNL     1       2.881   7.632  18.010  0.00  0.00    +0.000 C 
BRANCH  15  16
ATOM     16  N   UNL     1       2.925   6.187  18.063  0.00  0.00    +0.000 N 
ATOM     17  N   UNL     1       1.823   5.389  17.807  0.00  0.00    +0.000 NA
ATOM     18  C   UNL     1       2.247   4.191  18.074  0.00  0.00    +0.000 A 
ATOM     19  N   UNL     1       1.480   3.068  17.953  0.00  0.00    +0.000 NA
ATOM     20  C   UNL     1       2.060   1.955  18.263  0.00  0.00    +0.000 A 
ATOM     21  C   UNL     1       3.468   1.805  18.719  0.00  0.00    +0.000 A 
ATOM     22  C   UNL     1       4.158   2.948  18.811  0.00  0.00    +0.000 A 
ATOM     23  N   UNL     1       3.538   4.116  18.484  0.00  0.00    +0.000 N 
ATOM     24  C   UNL     1       4.008   5.405  18.498  0.00  0.00    +0.000 A 
ATOM     25  O   UNL     1       5.118   5.790  18.826  0.00  0.00    +0.000 OA
ENDBRANCH  15  16
ENDBRANCH   2  15
TORSDOF 4
ENDMDL
MODEL 6
REMARK VINA RESULT:      -7.5      2.993      4.844
REMARK  Name = 
REMARK  6 active torsions:
REMARK  status: ('A' for Active; 'I' for Inactive)
REMARK    1  A    between atoms: C_1  and  C_2
REMARK    2  A    between atoms: C_5  and  C_6
REMARK    3  A    between atoms: C_6  and  C_7
REMARK    4  A    between atoms: C_6  and  N_8
REMARK    5  A    between atoms: C_9  and  C_11
REMARK    6  A    between atoms: C_11  and  N_12
REMARK                            x       y       z     vdW  Elec       q    Type
REMARK                         _______ _______ _______ _____ _____    ______ ____
ROOT
ATOM      1  N   UNL     1       3.131   4.700  18.830  0.00  0.00    +0.000 N 
ATOM      2  C   UNL     1       3.098   3.822  17.772  0.00  0.00    +0.000 C 
ATOM      3  O   UNL     1       2.074   3.235  17.421  0.00  0.00    +0.000 OA
ATOM      4  H   UNL     1       3.976   5.255  18.933  0.00  0.00    +0.000 HD
ENDROOT
BRANCH   1   5
ATOM      5  C   UNL     1       1.955   5.024  19.618  0.00  0.00    +0.000 C 
ATOM      6  C   UNL     1       2.036   4.345  20.988  0.00  0.00    +0.000 C 
BRANCH   5  11
ATOM      7  C   UNL     1       0.852  10.763  19.917  0.00  0.00    +0.000 C 
ATOM      8  C   UNL     1       1.208   9.303  19.895  0.00  0.00    +0.000 A 
ATOM      9  C   UNL     1       1.749   8.737  18.733  0.00  0.00    +0.000 A 
ATOM     10  C   UNL     1       2.025   7.367  18.664  0.00  0.00    +0.000 A 
ATOM     11  C   UNL     1       1.765   6.523  19.756  0.00  0.00    +0.000 A 
ATOM     12  C   UNL     1       1.274   7.101  20.936  0.00  0.00    +0.000 A 
ATOM     13  C   UNL     1       0.988   8.469  21.002  0.00  0.00    +0.000 A 
ATOM     14 CL   UNL     1       0.323   9.082  22.475  0.00  0.00    +0.000 Cl
ENDBRANCH   5  11
ENDBRANCH   1   5
BRANCH   2  15
ATOM     15  C   UNL     1       4.420   3.603  17.035  0.00  0.00    +0.000 C 
BRANCH  15  16
ATOM     16  N   UNL     1       5.442   4.589  17.311  0.00  0.00    +0.000 N 
ATOM     17  N   UNL     1       6.282   4.518  18.409  0.00  0.00    +0.000 NA
ATOM     18  C   UNL     1       6.951   5.630  18.353  0.00  0.00    +0.000 A 
ATOM     19  N   UNL     1       7.913   5.984  19.254  0.00  0.00    +0.000 NA
ATOM     20  C   UNL     1       8.480   7.129  19.049  0.00  0.00    +0.000 A 
ATOM     21  C   UNL     1       8.179   8.061  17.930  0.00  0.00    +0.000 A 
ATOM     22  C   UNL     1       7.227   7.644  17.086  0.00  0.00    +0.000 A 
ATOM     23  N   UNL     1       6.635   6.438  17.311  0.00  0.00    +0.000 N 
ATOM     24  C   UNL     1       5.644   5.792  16.615  0.00  0.00    +0.000 A 
ATOM     25  O   UNL     1       5.058   6.181  15.618  0.00  0.00    +0.000 OA
ENDBRANCH  15  16
ENDBRANCH   2  15
TORSDOF 4
ENDMDL
MODEL 7
REMARK VINA RESULT:      -7.5      3.196      6.765
REMARK  Name = 
REMARK  6 active torsions:
REMARK  status: ('A' for Active; 'I' for Inactive)
REMARK    1  A    between atoms: C_1  and  C_2
REMARK    2  A    between atoms: C_5  and  C_6
REMARK    3  A    between atoms: C_6  and  C_7
REMARK    4  A    between atoms: C_6  and  N_8
REMARK    5  A    between atoms: C_9  and  C_11
REMARK    6  A    between atoms: C_11  and  N_12
REMARK                            x       y       z     vdW  Elec       q    Type
REMARK                         _______ _______ _______ _____ _____    ______ ____
ROOT
ATOM      1  N   UNL     1       5.814   5.992  17.493  0.00  0.00    +0.000 N 
ATOM      2  C   UNL     1       4.944   6.875  16.898  0.00  0.00    +0.000 C 
ATOM      3  O   UNL     1       5.157   7.385  15.797  0.00  0.00    +0.000 OA
ATOM      4  H   UNL     1       5.472   5.502  18.315  0.00  0.00    +0.000 HD
ENDROOT
BRANCH   1   5
ATOM      5  C   UNL     1       7.056   5.572  16.869  0.00  0.00    +0.000 C 
ATOM      6  C   UNL     1       7.866   4.708  17.838  0.00  0.00    +0.000 C 
BRANCH   5  11
ATOM      7  C   UNL     1       5.721   2.990  11.790  0.00  0.00    +0.000 C 
ATOM      8  C   UNL     1       6.146   3.613  13.090  0.00  0.00    +0.000 A 
ATOM      9  C   UNL     1       5.598   3.152  14.294  0.00  0.00    +0.000 A 
ATOM     10  C   UNL     1       5.926   3.760  15.511  0.00  0.00    +0.000 A 
ATOM     11  C   UNL     1       6.810   4.849  15.558  0.00  0.00    +0.000 A 
ATOM     12  C   UNL     1       7.399   5.275  14.358  0.00  0.00    +0.000 A 
ATOM     13  C   UNL     1       7.064   4.674  13.139  0.00  0.00    +0.000 A 
ATOM     14 CL   UNL     1       7.787   5.308  11.703  0.00  0.00    +0.000 Cl
ENDBRANCH   5  11
ENDBRANCH   1   5
BRANCH   2  15
ATOM     15  C   UNL     1       3.672   7.201  17.681  0.00  0.00    +0.000 C 
BRANCH  15  16
ATOM     16  N   UNL     1       3.020   6.061  18.288  0.00  0.00    +0.000 N 
ATOM     17  N   UNL     1       2.892   4.838  17.652  0.00  0.00    +0.000 NA
ATOM     18  C   UNL     1       2.158   4.145  18.470  0.00  0.00    +0.000 A 
ATOM     19  N   UNL     1       1.780   2.853  18.244  0.00  0.00    +0.000 NA
ATOM     20  C   UNL     1       1.048   2.314  19.164  0.00  0.00    +0.000 A 
ATOM     21  C   UNL     1       0.606   2.972  20.422  0.00  0.00    +0.000 A 
ATOM     22  C   UNL     1       1.017   4.236  20.575  0.00  0.00    +0.000 A 
ATOM     23  N   UNL     1       1.787   4.796  19.601  0.00  0.00    +0.000 N 
ATOM     24  C   UNL     1       2.325   6.056  19.509  0.00  0.00    +0.000 A 
ATOM     25  O   UNL     1       2.216   6.973  20.305  0.00  0.00    +0.000 OA
ENDBRANCH  15  16
ENDBRANCH   2  15
TORSDOF 4
ENDMDL
MODEL 8
REMARK VINA RESULT:      -7.3      5.170      7.043
REMARK  Name = 
REMARK  6 active torsions:
REMARK  status: ('A' for Active; 'I' for Inactive)
REMARK    1  A    between atoms: C_1  and  C_2
REMARK    2  A    between atoms: C_5  and  C_6
REMARK    3  A    between atoms: C_6  and  C_7
REMARK    4  A    between atoms: C_6  and  N_8
REMARK    5  A    between atoms: C_9  and  C_11
REMARK    6  A    between atoms: C_11  and  N_12
REMARK                            x       y       z     vdW  Elec       q    Type
REMARK                         _______ _______ _______ _____ _____    ______ ____
ROOT
ATOM      1  N   UNL     1       0.585   9.016  19.757  0.00  0.00    +0.000 N 
ATOM      2  C   UNL     1       1.092   8.618  20.971  0.00  0.00    +0.000 C 
ATOM      3  O   UNL     1       1.427   9.414  21.850  0.00  0.00    +0.000 OA
ATOM      4  H   UNL     1       0.186   8.288  19.171  0.00  0.00    +0.000 HD
ENDROOT
BRANCH   1   5
ATOM      5  C   UNL     1       0.385  10.411  19.408  0.00  0.00    +0.000 C 
ATOM      6  C   UNL     1       1.514  10.893  18.493  0.00  0.00    +0.000 C 
BRANCH   5  11
ATOM      7  C   UNL     1      -4.711  11.700  16.839  0.00  0.00    +0.000 C 
ATOM      8  C   UNL     1      -3.436  11.286  17.518  0.00  0.00    +0.000 A 
ATOM      9  C   UNL     1      -3.104  11.832  18.764  0.00  0.00    +0.000 A 
ATOM     10  C   UNL     1      -1.891  11.515  19.387  0.00  0.00    +0.000 A 
ATOM     11  C   UNL     1      -0.975  10.644  18.777  0.00  0.00    +0.000 A 
ATOM     12  C   UNL     1      -1.332  10.057  17.554  0.00  0.00    +0.000 A 
ATOM     13  C   UNL     1      -2.541  10.382  16.927  0.00  0.00    +0.000 A 
ATOM     14 CL   UNL     1      -2.868   9.662  15.390  0.00  0.00    +0.000 Cl
ENDBRANCH   5  11
ENDBRANCH   1   5
BRANCH   2  15
ATOM     15  C   UNL     1       1.225   7.110  21.186  0.00  0.00    +0.000 C 
BRANCH  15  16
ATOM     16  N   UNL     1       2.103   6.436  20.255  0.00  0.00    +0.000 N 
ATOM     17  N   UNL     1       2.686   7.072  19.173  0.00  0.00    +0.000 NA
ATOM     18  C   UNL     1       3.284   6.108  18.540  0.00  0.00    +0.000 A 
ATOM     19  N   UNL     1       4.005   6.284  17.394  0.00  0.00    +0.000 NA
ATOM     20  C   UNL     1       4.535   5.214  16.895  0.00  0.00    +0.000 A 
ATOM     21  C   UNL     1       4.430   3.844  17.463  0.00  0.00    +0.000 A 
ATOM     22  C   UNL     1       3.711   3.751  18.588  0.00  0.00    +0.000 A 
ATOM     23  N   UNL     1       3.156   4.883  19.106  0.00  0.00    +0.000 N 
ATOM     24  C   UNL     1       2.380   5.059  20.224  0.00  0.00    +0.000 A 
ATOM     25  O   UNL     1       2.003   4.208  21.012  0.00  0.00    +0.000 OA
ENDBRANCH  15  16
ENDBRANCH   2  15
TORSDOF 4
ENDMDL
MODEL 9
REMARK VINA RESULT:      -7.3      5.078      6.873
REMARK  Name = 
REMARK  6 active torsions:
REMARK  status: ('A' for Active; 'I' for Inactive)
REMARK    1  A    between atoms: C_1  and  C_2
REMARK    2  A    between atoms: C_5  and  C_6
REMARK    3  A    between atoms: C_6  and  C_7
REMARK    4  A    between atoms: C_6  and  N_8
REMARK    5  A    between atoms: C_9  and  C_11
REMARK    6  A    between atoms: C_11  and  N_12
REMARK                            x       y       z     vdW  Elec       q    Type
REMARK                         _______ _______ _______ _____ _____    ______ ____
ROOT
ATOM      1  N   UNL     1       1.237   9.234  18.711  0.00  0.00    +0.000 N 
ATOM      2  C   UNL     1       1.921   8.143  19.192  0.00  0.00    +0.000 C 
ATOM      3  O   UNL     1       1.858   7.777  20.367  0.00  0.00    +0.000 OA
ATOM      4  H   UNL     1       1.223   9.353  17.703  0.00  0.00    +0.000 HD
ENDROOT
BRANCH   1   5
ATOM      5  C   UNL     1       0.367  10.045  19.545  0.00  0.00    +0.000 C 
ATOM      6  C   UNL     1       1.133  11.253  20.088  0.00  0.00    +0.000 C 
BRANCH   5  11
ATOM      7  C   UNL     1      -4.633  11.304  16.777  0.00  0.00    +0.000 C 
ATOM      8  C   UNL     1      -3.321  11.067  17.471  0.00  0.00    +0.000 A 
ATOM      9  C   UNL     1      -2.354  10.251  16.868  0.00  0.00    +0.000 A 
ATOM     10  C   UNL     1      -1.152   9.959  17.523  0.00  0.00    +0.000 A 
ATOM     11  C   UNL     1      -0.885  10.473  18.801  0.00  0.00    +0.000 A 
ATOM     12  C   UNL     1      -1.831  11.332  19.381  0.00  0.00    +0.000 A 
ATOM     13  C   UNL     1      -3.037  11.616  18.730  0.00  0.00    +0.000 A 
ATOM     14 CL   UNL     1      -4.172  12.631  19.548  0.00  0.00    +0.000 Cl
ENDBRANCH   5  11
ENDBRANCH   1   5
BRANCH   2  15
ATOM     15  C   UNL     1       2.783   7.387  18.180  0.00  0.00    +0.000 C 
BRANCH  15  16
ATOM     16  N   UNL     1       2.989   5.987  18.480  0.00  0.00    +0.000 N 
ATOM     17  N   UNL     1       4.102   5.516  19.154  0.00  0.00    +0.000 NA
ATOM     18  C   UNL     1       3.962   4.225  19.109  0.00  0.00    +0.000 A 
ATOM     19  N   UNL     1       4.844   3.344  19.666  0.00  0.00    +0.000 NA
ATOM     20  C   UNL     1       4.550   2.092  19.526  0.00  0.00    +0.000 A 
ATOM     21  C   UNL     1       3.351   1.551  18.833  0.00  0.00    +0.000 A 
ATOM     22  C   UNL     1       2.532   2.475  18.315  0.00  0.00    +0.000 A 
ATOM     23  N   UNL     1       2.850   3.791  18.466  0.00  0.00    +0.000 N 
ATOM     24  C   UNL     1       2.196   4.917  18.032  0.00  0.00    +0.000 A 
ATOM     25  O   UNL     1       1.161   4.977  17.390  0.00  0.00    +0.000 OA
ENDBRANCH  15  16
ENDBRANCH   2  15
TORSDOF 4
ENDMDL
