MODEL 1
REMARK VINA RESULT:      -7.4      0.000      0.000
REMARK  Name = 
REMARK  9 active torsions:
REMARK  status: ('A' for Active; 'I' for Inactive)
REMARK    1  A    between atoms: C_1  and  O_2
REMARK    2  A    between atoms: O_2  and  C_3
REMARK    3  A    between atoms: C_7  and  N_8
REMARK    4  A    between atoms: N_11  and  C_12
REMARK    5  A    between atoms: C_12  and  C_13
REMARK    6  A    between atoms: C_13  and  N_14
REMARK    7  A    between atoms: N_14  and  S_15
REMARK    8  A    between atoms: S_15  and  C_18
REMARK    9  A    between atoms: C_21  and  C_22
REMARK                            x       y       z     vdW  Elec       q    Type
REMARK                         _______ _______ _______ _____ _____    ______ ____
ROOT
ATOM      1  N   UNL     1       2.501   6.382  20.525  0.00  0.00    +0.000 N 
ATOM      2  C   UNL     1       1.763   5.224  20.646  0.00  0.00    +0.000 C 
ATOM      3  O   UNL     1       0.694   4.979  20.099  0.00  0.00    +0.000 OA
ATOM      4  N   UNL     1       2.352   4.285  21.465  0.00  0.00    +0.000 N 
ATOM      5  H   UNL     1       3.408   6.399  20.964  0.00  0.00    +0.000 HD
ATOM      6  H   UNL     1       3.104   4.549  22.081  0.00  0.00    +0.000 HD
ENDROOT
BRANCH   1  11
ATOM      7  C   UNL     1       0.924   9.652  19.707  0.00  0.00    +0.000 A 
ATOM      8  C   UNL     1       1.300   9.819  18.373  0.00  0.00    +0.000 A 
ATOM      9  C   UNL     1       2.082   8.859  17.743  0.00  0.00    +0.000 A 
ATOM     10  C   UNL     1       2.487   7.725  18.445  0.00  0.00    +0.000 A 
ATOM     11  C   UNL     1       2.124   7.531  19.781  0.00  0.00    +0.000 A 
ATOM     12  C   UNL     1       1.339   8.511  20.410  0.00  0.00    +0.000 A 
BRANCH   7  14
ATOM     13  C   UNL     1       0.058  11.846  19.406  0.00  0.00    +0.000 C 
ATOM     14  O   UNL     1       0.149  10.669  20.195  0.00  0.00    +0.000 OA
ENDBRANCH   7  14
ENDBRANCH   1  11
BRANCH   4  15
ATOM     15  C   UNL     1       1.661   3.019  21.686  0.00  0.00    +0.000 C 
BRANCH  15  16
ATOM     16  C   UNL     1       1.903   2.018  20.547  0.00  0.00    +0.000 C 
BRANCH  16  17
ATOM     17  N   UNL     1       3.210   2.261  19.904  0.00  0.00    +0.000 NA
ATOM     18  H   UNL     1       3.947   1.586  20.114  0.00  0.00    +0.000 HD
BRANCH  17  19
ATOM     19  S   UNL     1       3.195   2.547  18.235  0.00  0.00    +0.000 S 
ATOM     20  O   UNL     1       3.869   1.418  17.640  0.00  0.00    +0.000 OA
ATOM     21  O   UNL     1       1.848   2.917  17.843  0.00  0.00    +0.000 OA
BRANCH  19  22
ATOM     22  C   UNL     1       4.243   3.967  18.054  0.00  0.00    +0.000 A 
ATOM     23  C   UNL     1       5.129   4.309  19.077  0.00  0.00    +0.000 A 
ATOM     24  C   UNL     1       6.043   5.350  18.883  0.00  0.00    +0.000 A 
ATOM     25  C   UNL     1       6.079   6.045  17.667  0.00  0.00    +0.000 A 
ATOM     26  C   UNL     1       7.089   7.132  17.430  0.00  0.00    +0.000 C 
ATOM     27  C   UNL     1       5.182   5.693  16.649  0.00  0.00    +0.000 A 
ATOM     28  C   UNL     1       4.270   4.653  16.836  0.00  0.00    +0.000 A 
ENDBRANCH  19  22
ENDBRANCH  17  19
ENDBRANCH  16  17
ENDBRANCH  15  16
ENDBRANCH   4  15
TORSDOF 7
ENDMDL
MODEL 2
REMARK VINA RESULT:      -7.0      0.639      1.028
REMARK  Name = 
REMARK  9 active torsions:
REMARK  status: ('A' for Active; 'I' for Inactive)
REMARK    1  A    between atoms: C_1  and  O_2
REMARK    2  A    between atoms: O_2  and  C_3
REMARK    3  A    between atoms: C_7  and  N_8
REMARK    4  A    between atoms: N_11  and  C_12
REMARK    5  A    between atoms: C_12  and  C_13
REMARK    6  A    between atoms: C_13  and  N_14
REMARK    7  A    between atoms: N_14  and  S_15
REMARK    8  A    between atoms: S_15  and  C_18
REMARK    9  A    between atoms: C_21  and  C_22
REMARK                            x       y       z     vdW  Elec       q    Type
REMARK                         _______ _______ _______ _____ _____    ______ ____
ROOT
ATOM      1  N   UNL     1       2.459   6.759  20.485  0.00  0.00    +0.000 N 
ATOM      2  C   UNL     1       1.818   5.559  20.714  0.00  0.00    +0.000 C 
ATOM      3  O   UNL     1       0.683   5.259  20.362  0.00  0.00    +0.000 OA
ATOM      4  N   UNL     1       2.595   4.647  21.394  0.00  0.00    +0.000 N 
ATOM      5  H   UNL     1       3.428   6.822  20.754  0.00  0.00    +0.000 HD
ATOM      6  H   UNL     1       3.431   4.947  21.870  0.00  0.00    +0.000 HD
ENDROOT
BRANCH   1  11
ATOM      7  C   UNL     1       0.448   9.850  19.991  0.00  0.00    +0.000 A 
ATOM      8  C   UNL     1       0.698  10.135  18.647  0.00  0.00    +0.000 A 
ATOM      9  C   UNL     1       1.537   9.314  17.904  0.00  0.00    +0.000 A 
ATOM     10  C   UNL     1       2.126   8.202  18.501  0.00  0.00    +0.000 A 
ATOM     11  C   UNL     1       1.892   7.892  19.844  0.00  0.00    +0.000 A 
ATOM     12  C   UNL     1       1.048   8.732  20.589  0.00  0.00    +0.000 A 
BRANCH   7  14
ATOM     13  C   UNL     1      -1.192  11.555  19.746  0.00  0.00    +0.000 C 
ATOM     14  O   UNL     1      -0.403  10.736  20.595  0.00  0.00    +0.000 OA
ENDBRANCH   7  14
ENDBRANCH   1  11
BRANCH   4  15
ATOM     15  C   UNL     1       2.025   3.342  21.710  0.00  0.00    +0.000 C 
BRANCH  15  16
ATOM     16  C   UNL     1       2.123   2.363  20.530  0.00  0.00    +0.000 C 
BRANCH  16  17
ATOM     17  N   UNL     1       3.379   2.568  19.782  0.00  0.00    +0.000 NA
ATOM     18  H   UNL     1       4.113   1.875  19.936  0.00  0.00    +0.000 HD
BRANCH  17  19
ATOM     19  S   UNL     1       3.236   2.846  18.117  0.00  0.00    +0.000 S 
ATOM     20  O   UNL     1       3.701   1.637  17.479  0.00  0.00    +0.000 OA
ATOM     21  O   UNL     1       1.915   3.381  17.851  0.00  0.00    +0.000 OA
BRANCH  19  22
ATOM     22  C   UNL     1       4.432   4.120  17.811  0.00  0.00    +0.000 A 
ATOM     23  C   UNL     1       4.019   5.347  17.287  0.00  0.00    +0.000 A 
ATOM     24  C   UNL     1       4.938   6.392  17.164  0.00  0.00    +0.000 A 
ATOM     25  C   UNL     1       6.268   6.220  17.569  0.00  0.00    +0.000 A 
ATOM     26  C   UNL     1       7.252   7.352  17.488  0.00  0.00    +0.000 C 
ATOM     27  C   UNL     1       6.671   4.983  18.091  0.00  0.00    +0.000 A 
ATOM     28  C   UNL     1       5.756   3.936  18.220  0.00  0.00    +0.000 A 
ENDBRANCH  19  22
ENDBRANCH  17  19
ENDBRANCH  16  17
ENDBRANCH  15  16
ENDBRANCH   4  15
TORSDOF 7
ENDMDL
MODEL 3
REMARK VINA RESULT:      -6.9      0.848      1.371
REMARK  Name = 
REMARK  9 active torsions:
REMARK  status: ('A' for Active; 'I' for Inactive)
REMARK    1  A    between atoms: C_1  and  O_2
REMARK    2  A    between atoms: O_2  and  C_3
REMARK    3  A    between atoms: C_7  and  N_8
REMARK    4  A    between atoms: N_11  and  C_12
REMARK    5  A    between atoms: C_12  and  C_13
REMARK    6  A    between atoms: C_13  and  N_14
REMARK    7  A    between atoms: N_14  and  S_15
REMARK    8  A    between atoms: S_15  and  C_18
REMARK    9  A    between atoms: C_21  and  C_22
REMARK                            x       y       z     vdW  Elec       q    Type
REMARK                         _______ _______ _______ _____ _____    ______ ____
ROOT
ATOM      1  N   UNL     1       2.635   6.453  20.360  0.00  0.00    +0.000 N 
ATOM      2  C   UNL     1       1.883   5.353  20.715  0.00  0.00    +0.000 C 
ATOM      3  O   UNL     1       0.709   5.149  20.430  0.00  0.00    +0.000 OA
ATOM      4  N   UNL     1       2.588   4.423  21.447  0.00  0.00    +0.000 N 
ATOM      5  H   UNL     1       3.616   6.434  20.590  0.00  0.00    +0.000 HD
ATOM      6  H   UNL     1       3.470   4.670  21.866  0.00  0.00    +0.000 HD
ENDROOT
BRANCH   1  11
ATOM      7  C   UNL     1       0.869   9.648  19.641  0.00  0.00    +0.000 A 
ATOM      8  C   UNL     1       1.156   9.829  18.287  0.00  0.00    +0.000 A 
ATOM      9  C   UNL     1       1.940   8.903  17.611  0.00  0.00    +0.000 A 
ATOM     10  C   UNL     1       2.437   7.789  18.286  0.00  0.00    +0.000 A 
ATOM     11  C   UNL     1       2.163   7.582  19.641  0.00  0.00    +0.000 A 
ATOM     12  C   UNL     1       1.375   8.528  20.317  0.00  0.00    +0.000 A 
BRANCH   7  14
ATOM     13  C   UNL     1       0.717  11.591  21.004  0.00  0.00    +0.000 C 
ATOM     14  O   UNL     1       0.080  10.631  20.175  0.00  0.00    +0.000 OA
ENDBRANCH   7  14
ENDBRANCH   1  11
BRANCH   4  15
ATOM     15  C   UNL     1       1.898   3.219  21.896  0.00  0.00    +0.000 C 
BRANCH  15  16
ATOM     16  C   UNL     1       1.845   2.138  20.805  0.00  0.00    +0.000 C 
BRANCH  16  17
ATOM     17  N   UNL     1       2.383   2.653  19.531  0.00  0.00    +0.000 NA
ATOM     18  H   UNL     1       2.300   3.660  19.382  0.00  0.00    +0.000 HD
BRANCH  17  19
ATOM     19  S   UNL     1       3.953   2.171  19.118  0.00  0.00    +0.000 S 
ATOM     20  O   UNL     1       4.621   1.905  20.370  0.00  0.00    +0.000 OA
ATOM     21  O   UNL     1       3.868   1.165  18.078  0.00  0.00    +0.000 OA
BRANCH  19  22
ATOM     22  C   UNL     1       4.663   3.641  18.423  0.00  0.00    +0.000 A 
ATOM     23  C   UNL     1       4.266   4.070  17.155  0.00  0.00    +0.000 A 
ATOM     24  C   UNL     1       4.729   5.292  16.660  0.00  0.00    +0.000 A 
ATOM     25  C   UNL     1       5.582   6.092  17.431  0.00  0.00    +0.000 A 
ATOM     26  C   UNL     1       6.046   7.430  16.930  0.00  0.00    +0.000 C 
ATOM     27  C   UNL     1       5.976   5.649  18.702  0.00  0.00    +0.000 A 
ATOM     28  C   UNL     1       5.514   4.431  19.202  0.00  0.00    +0.000 A 
ENDBRANCH  19  22
ENDBRANCH  17  19
ENDBRANCH  16  17
ENDBRANCH  15  16
ENDBRANCH   4  15
TORSDOF 7
ENDMDL
MODEL 4
REMARK VINA RESULT:      -6.8      4.917      6.905
REMARK  Name = 
REMARK  9 active torsions:
REMARK  status: ('A' for Active; 'I' for Inactive)
REMARK    1  A    between atoms: C_1  and  O_2
REMARK    2  A    between atoms: O_2  and  C_3
REMARK    3  A    between atoms: C_7  and  N_8
REMARK    4  A    between atoms: N_11  and  C_12
REMARK    5  A    between atoms: C_12  and  C_13
REMARK    6  A    between atoms: C_13  and  N_14
REMARK    7  A    between atoms: N_14  and  S_15
REMARK    8  A    between atoms: S_15  and  C_18
REMARK    9  A    between atoms: C_21  and  C_22
REMARK                            x       y       z     vdW  Elec       q    Type
REMARK                         _______ _______ _______ _____ _____    ______ ____
ROOT
ATOM      1  N   UNL     1       9.001   9.177  18.917  0.00  0.00    +0.000 N 
ATOM      2  C   UNL     1       8.345   8.174  18.236  0.00  0.00    +0.000 C 
ATOM      3  O   UNL     1       7.898   8.236  17.097  0.00  0.00    +0.000 OA
ATOM      4  N   UNL     1       8.230   7.008  18.961  0.00  0.00    +0.000 N 
ATOM      5  H   UNL     1       9.393   8.945  19.815  0.00  0.00    +0.000 HD
ATOM      6  H   UNL     1       8.395   7.010  19.955  0.00  0.00    +0.000 HD
ENDROOT
BRANCH   1  11
ATOM      7  C   UNL     1      10.812  12.293  17.991  0.00  0.00    +0.000 A 
ATOM      8  C   UNL     1       9.768  13.099  17.533  0.00  0.00    +0.000 A 
ATOM      9  C   UNL     1       8.466  12.614  17.520  0.00  0.00    +0.000 A 
ATOM     10  C   UNL     1       8.203  11.321  17.970  0.00  0.00    +0.000 A 
ATOM     11  C   UNL     1       9.229  10.493  18.435  0.00  0.00    +0.000 A 
ATOM     12  C   UNL     1      10.543  10.991  18.437  0.00  0.00    +0.000 A 
BRANCH   7  14
ATOM     13  C   UNL     1      12.053  14.311  17.782  0.00  0.00    +0.000 C 
ATOM     14  O   UNL     1      12.038  12.903  17.956  0.00  0.00    +0.000 OA
ENDBRANCH   7  14
ENDBRANCH   1  11
BRANCH   4  15
ATOM     15  C   UNL     1       7.542   5.873  18.356  0.00  0.00    +0.000 C 
BRANCH  15  16
ATOM     16  C   UNL     1       6.368   5.379  19.215  0.00  0.00    +0.000 C 
BRANCH  16  17
ATOM     17  N   UNL     1       5.971   4.012  18.822  0.00  0.00    +0.000 NA
ATOM     18  H   UNL     1       5.841   3.345  19.584  0.00  0.00    +0.000 HD
BRANCH  17  19
ATOM     19  S   UNL     1       4.664   3.879  17.754  0.00  0.00    +0.000 S 
ATOM     20  O   UNL     1       5.217   4.067  16.434  0.00  0.00    +0.000 OA
ATOM     21  O   UNL     1       3.910   2.687  18.094  0.00  0.00    +0.000 OA
BRANCH  19  22
ATOM     22  C   UNL     1       3.673   5.299  18.139  0.00  0.00    +0.000 A 
ATOM     23  C   UNL     1       2.846   5.283  19.264  0.00  0.00    +0.000 A 
ATOM     24  C   UNL     1       2.164   6.444  19.638  0.00  0.00    +0.000 A 
ATOM     25  C   UNL     1       2.310   7.624  18.898  0.00  0.00    +0.000 A 
ATOM     26  C   UNL     1       1.621   8.890  19.319  0.00  0.00    +0.000 C 
ATOM     27  C   UNL     1       3.142   7.626  17.768  0.00  0.00    +0.000 A 
ATOM     28  C   UNL     1       3.829   6.471  17.392  0.00  0.00    +0.000 A 
ENDBRANCH  19  22
ENDBRANCH  17  19
ENDBRANCH  16  17
ENDBRANCH  15  16
ENDBRANCH   4  15
TORSDOF 7
ENDMDL
MODEL 5
REMARK VINA RESULT:      -6.8      3.636      7.089
REMARK  Name = 
REMARK  9 active torsions:
REMARK  status: ('A' for Active; 'I' for Inactive)
REMARK    1  A    between atoms: C_1  and  O_2
REMARK    2  A    between atoms: O_2  and  C_3
REMARK    3  A    between atoms: C_7  and  N_8
REMARK    4  A    between atoms: N_11  and  C_12
REMARK    5  A    between atoms: C_12  and  C_13
REMARK    6  A    between atoms: C_13  and  N_14
REMARK    7  A    between atoms: N_14  and  S_15
REMARK    8  A    between atoms: S_15  and  C_18
REMARK    9  A    between atoms: C_21  and  C_22
REMARK                            x       y       z     vdW  Elec       q    Type
REMARK                         _______ _______ _______ _____ _____    ______ ____
ROOT
ATOM      1  N   UNL     1       6.267   5.633  15.170  0.00  0.00    +0.000 N 
ATOM      2  C   UNL     1       6.828   5.285  16.380  0.00  0.00    +0.000 C 
ATOM      3  O   UNL     1       7.672   4.418  16.571  0.00  0.00    +0.000 OA
ATOM      4  N   UNL     1       6.362   6.039  17.434  0.00  0.00    +0.000 N 
ATOM      5  H   UNL     1       5.653   6.432  15.159  0.00  0.00    +0.000 HD
ATOM      6  H   UNL     1       5.528   6.595  17.331  0.00  0.00    +0.000 HD
ENDROOT
BRANCH   1  11
ATOM      7  C   UNL     1       5.831   3.403  12.223  0.00  0.00    +0.000 A 
ATOM      8  C   UNL     1       6.983   3.683  11.486  0.00  0.00    +0.000 A 
ATOM      9  C   UNL     1       7.901   4.615  11.954  0.00  0.00    +0.000 A 
ATOM     10  C   UNL     1       7.672   5.267  13.165  0.00  0.00    +0.000 A 
ATOM     11  C   UNL     1       6.528   5.004  13.924  0.00  0.00    +0.000 A 
ATOM     12  C   UNL     1       5.603   4.065  13.439  0.00  0.00    +0.000 A 
BRANCH   7  14
ATOM     13  C   UNL     1       3.831   2.922  11.030  0.00  0.00    +0.000 C 
ATOM     14  O   UNL     1       5.022   2.460  11.648  0.00  0.00    +0.000 OA
ENDBRANCH   7  14
ENDBRANCH   1  11
BRANCH   4  15
ATOM     15  C   UNL     1       6.869   5.759  18.773  0.00  0.00    +0.000 C 
BRANCH  15  16
ATOM     16  C   UNL     1       5.882   4.928  19.607  0.00  0.00    +0.000 C 
BRANCH  16  17
ATOM     17  N   UNL     1       5.607   3.632  18.955  0.00  0.00    +0.000 NA
ATOM     18  H   UNL     1       5.838   2.798  19.497  0.00  0.00    +0.000 HD
BRANCH  17  19
ATOM     19  S   UNL     1       4.067   3.432  18.282  0.00  0.00    +0.000 S 
ATOM     20  O   UNL     1       4.216   3.717  16.874  0.00  0.00    +0.000 OA
ATOM     21  O   UNL     1       3.522   2.171  18.744  0.00  0.00    +0.000 OA
BRANCH  19  22
ATOM     22  C   UNL     1       3.128   4.751  19.009  0.00  0.00    +0.000 A 
ATOM     23  C   UNL     1       2.507   4.560  20.245  0.00  0.00    +0.000 A 
ATOM     24  C   UNL     1       1.875   5.635  20.876  0.00  0.00    +0.000 A 
ATOM     25  C   UNL     1       1.867   6.903  20.280  0.00  0.00    +0.000 A 
ATOM     26  C   UNL     1       1.234   8.077  20.972  0.00  0.00    +0.000 C 
ATOM     27  C   UNL     1       2.491   7.081  19.037  0.00  0.00    +0.000 A 
ATOM     28  C   UNL     1       3.127   6.011  18.404  0.00  0.00    +0.000 A 
ENDBRANCH  19  22
ENDBRANCH  17  19
ENDBRANCH  16  17
ENDBRANCH  15  16
ENDBRANCH   4  15
TORSDOF 7
ENDMDL
MODEL 6
REMARK VINA RESULT:      -6.7      3.483      7.915
REMARK  Name = 
REMARK  9 active torsions:
REMARK  status: ('A' for Active; 'I' for Inactive)
REMARK    1  A    between atoms: C_1  and  O_2
REMARK    2  A    between atoms: O_2  and  C_3
REMARK    3  A    between atoms: C_7  and  N_8
REMARK    4  A    between atoms: N_11  and  C_12
REMARK    5  A    between atoms: C_12  and  C_13
REMARK    6  A    between atoms: C_13  and  N_14
REMARK    7  A    between atoms: N_14  and  S_15
REMARK    8  A    between atoms: S_15  and  C_18
REMARK    9  A    between atoms: C_21  and  C_22
REMARK                            x       y       z     vdW  Elec       q    Type
REMARK                         _______ _______ _______ _____ _____    ______ ____
ROOT
ATOM      1  N   UNL     1       1.746   7.994  21.267  0.00  0.00    +0.000 N 
ATOM      2  C   UNL     1       0.546   8.403  21.810  0.00  0.00    +0.000 C 
ATOM      3  O   UNL     1      -0.559   7.929  21.577  0.00  0.00    +0.000 OA
ATOM      4  N   UNL     1       0.679   9.440  22.706  0.00  0.00    +0.000 N 
ATOM      5  H   UNL     1       2.585   8.421  21.628  0.00  0.00    +0.000 HD
ATOM      6  H   UNL     1       1.534   9.973  22.743  0.00  0.00    +0.000 HD
ENDROOT
BRANCH   1  11
ATOM      7  C   UNL     1       1.753   4.613  19.713  0.00  0.00    +0.000 A 
ATOM      8  C   UNL     1       2.236   4.893  18.433  0.00  0.00    +0.000 A 
ATOM      9  C   UNL     1       2.552   6.198  18.077  0.00  0.00    +0.000 A 
ATOM     10  C   UNL     1       2.389   7.228  19.002  0.00  0.00    +0.000 A 
ATOM     11  C   UNL     1       1.909   6.976  20.291  0.00  0.00    +0.000 A 
ATOM     12  C   UNL     1       1.587   5.654  20.638  0.00  0.00    +0.000 A 
BRANCH   7  14
ATOM     13  C   UNL     1       1.446   2.847  21.276  0.00  0.00    +0.000 C 
ATOM     14  O   UNL     1       1.493   3.286  19.927  0.00  0.00    +0.000 OA
ENDBRANCH   7  14
ENDBRANCH   1  11
BRANCH   4  15
ATOM     15  C   UNL     1      -0.521   9.975  23.340  0.00  0.00    +0.000 C 
BRANCH  15  16
ATOM     16  C   UNL     1      -1.174  11.086  22.505  0.00  0.00    +0.000 C 
BRANCH  16  17
ATOM     17  N   UNL     1      -0.374  12.326  22.565  0.00  0.00    +0.000 NA
ATOM     18  H   UNL     1       0.316  12.380  23.316  0.00  0.00    +0.000 HD
BRANCH  17  19
ATOM     19  S   UNL     1       0.354  12.831  21.122  0.00  0.00    +0.000 S 
ATOM     20  O   UNL     1      -0.003  14.222  20.971  0.00  0.00    +0.000 OA
ATOM     21  O   UNL     1       1.739  12.403  21.130  0.00  0.00    +0.000 OA
BRANCH  19  22
ATOM     22  C   UNL     1      -0.514  11.907  19.880  0.00  0.00    +0.000 A 
ATOM     23  C   UNL     1      -1.746  12.366  19.409  0.00  0.00    +0.000 A 
ATOM     24  C   UNL     1      -2.368  11.709  18.344  0.00  0.00    +0.000 A 
ATOM     25  C   UNL     1      -1.760  10.599  17.742  0.00  0.00    +0.000 A 
ATOM     26  C   UNL     1      -2.396   9.916  16.565  0.00  0.00    +0.000 C 
ATOM     27  C   UNL     1      -0.524  10.147  18.226  0.00  0.00    +0.000 A 
ATOM     28  C   UNL     1       0.103  10.801  19.288  0.00  0.00    +0.000 A 
ENDBRANCH  19  22
ENDBRANCH  17  19
ENDBRANCH  16  17
ENDBRANCH  15  16
ENDBRANCH   4  15
TORSDOF 7
ENDMDL
MODEL 7
REMARK VINA RESULT:      -6.7      4.396      7.998
REMARK  Name = 
REMARK  9 active torsions:
REMARK  status: ('A' for Active; 'I' for Inactive)
REMARK    1  A    between atoms: C_1  and  O_2
REMARK    2  A    between atoms: O_2  and  C_3
REMARK    3  A    between atoms: C_7  and  N_8
REMARK    4  A    between atoms: N_11  and  C_12
REMARK    5  A    between atoms: C_12  and  C_13
REMARK    6  A    between atoms: C_13  and  N_14
REMARK    7  A    between atoms: N_14  and  S_15
REMARK    8  A    between atoms: S_15  and  C_18
REMARK    9  A    between atoms: C_21  and  C_22
REMARK                            x       y       z     vdW  Elec       q    Type
REMARK                         _______ _______ _______ _____ _____    ______ ____
ROOT
ATOM      1  N   UNL     1       6.847   4.548  13.543  0.00  0.00    +0.000 N 
ATOM      2  C   UNL     1       6.626   4.525  14.904  0.00  0.00    +0.000 C 
ATOM      3  O   UNL     1       5.962   3.702  15.522  0.00  0.00    +0.000 OA
ATOM      4  N   UNL     1       7.259   5.548  15.575  0.00  0.00    +0.000 N 
ATOM      5  H   UNL     1       7.494   5.235  13.192  0.00  0.00    +0.000 HD
ATOM      6  H   UNL     1       7.622   6.340  15.069  0.00  0.00    +0.000 HD
ENDROOT
BRANCH   1  11
ATOM      7  C   UNL     1       4.388   2.992  11.224  0.00  0.00    +0.000 A 
ATOM      8  C   UNL     1       5.101   1.885  10.759  0.00  0.00    +0.000 A 
ATOM      9  C   UNL     1       6.398   1.656  11.201  0.00  0.00    +0.000 A 
ATOM     10  C   UNL     1       6.984   2.529  12.115  0.00  0.00    +0.000 A 
ATOM     11  C   UNL     1       6.292   3.644  12.599  0.00  0.00    +0.000 A 
ATOM     12  C   UNL     1       4.984   3.871  12.140  0.00  0.00    +0.000 A 
BRANCH   7  14
ATOM     13  C   UNL     1       2.893   4.100   9.742  0.00  0.00    +0.000 C 
ATOM     14  O   UNL     1       3.122   3.088  10.711  0.00  0.00    +0.000 OA
ENDBRANCH   7  14
ENDBRANCH   1  11
BRANCH   4  15
ATOM     15  C   UNL     1       7.093   5.643  17.021  0.00  0.00    +0.000 C 
BRANCH  15  16
ATOM     16  C   UNL     1       5.965   6.609  17.415  0.00  0.00    +0.000 C 
BRANCH  16  17
ATOM     17  N   UNL     1       4.645   6.040  17.075  0.00  0.00    +0.000 NA
ATOM     18  H   UNL     1       4.647   5.269  16.405  0.00  0.00    +0.000 HD
BRANCH  17  19
ATOM     19  S   UNL     1       3.637   5.632  18.372  0.00  0.00    +0.000 S 
ATOM     20  O   UNL     1       2.680   4.690  17.841  0.00  0.00    +0.000 OA
ATOM     21  O   UNL     1       4.467   5.303  19.515  0.00  0.00    +0.000 OA
BRANCH  19  22
ATOM     22  C   UNL     1       2.779   7.146  18.716  0.00  0.00    +0.000 A 
ATOM     23  C   UNL     1       2.604   8.090  17.702  0.00  0.00    +0.000 A 
ATOM     24  C   UNL     1       1.820   9.223  17.938  0.00  0.00    +0.000 A 
ATOM     25  C   UNL     1       1.205   9.414  19.182  0.00  0.00    +0.000 A 
ATOM     26  C   UNL     1       0.321  10.603  19.431  0.00  0.00    +0.000 C 
ATOM     27  C   UNL     1       1.391   8.460  20.193  0.00  0.00    +0.000 A 
ATOM     28  C   UNL     1       2.169   7.325  19.962  0.00  0.00    +0.000 A 
ENDBRANCH  19  22
ENDBRANCH  17  19
ENDBRANCH  16  17
ENDBRANCH  15  16
ENDBRANCH   4  15
TORSDOF 7
ENDMDL
MODEL 8
REMARK VINA RESULT:      -6.5      5.805      7.540
REMARK  Name = 
REMARK  9 active torsions:
REMARK  status: ('A' for Active; 'I' for Inactive)
REMARK    1  A    between atoms: C_1  and  O_2
REMARK    2  A    between atoms: O_2  and  C_3
REMARK    3  A    between atoms: C_7  and  N_8
REMARK    4  A    between atoms: N_11  and  C_12
REMARK    5  A    between atoms: C_12  and  C_13
REMARK    6  A    between atoms: C_13  and  N_14
REMARK    7  A    between atoms: N_14  and  S_15
REMARK    8  A    between atoms: S_15  and  C_18
REMARK    9  A    between atoms: C_21  and  C_22
REMARK                            x       y       z     vdW  Elec       q    Type
REMARK                         _______ _______ _______ _____ _____    ______ ____
ROOT
ATOM      1  N   UNL     1       9.474  10.297  20.036  0.00  0.00    +0.000 N 
ATOM      2  C   UNL     1       8.876   9.975  18.836  0.00  0.00    +0.000 C 
ATOM      3  O   UNL     1       8.597  10.750  17.929  0.00  0.00    +0.000 OA
ATOM      4  N   UNL     1       8.609   8.630  18.703  0.00  0.00    +0.000 N 
ATOM      5  H   UNL     1       9.726   9.534  20.644  0.00  0.00    +0.000 HD
ATOM      6  H   UNL     1       8.632   8.026  19.510  0.00  0.00    +0.000 HD
ENDROOT
BRANCH   1  11
ATOM      7  C   UNL     1       9.409  13.480  21.962  0.00  0.00    +0.000 A 
ATOM      8  C   UNL     1      10.431  14.203  21.344  0.00  0.00    +0.000 A 
ATOM      9  C   UNL     1      11.150  13.639  20.298  0.00  0.00    +0.000 A 
ATOM     10  C   UNL     1      10.846  12.351  19.862  0.00  0.00    +0.000 A 
ATOM     11  C   UNL     1       9.827  11.605  20.461  0.00  0.00    +0.000 A 
ATOM     12  C   UNL     1       9.110  12.182  21.523  0.00  0.00    +0.000 A 
BRANCH   7  14
ATOM     13  C   UNL     1       8.585  15.554  22.783  0.00  0.00    +0.000 C 
ATOM     14  O   UNL     1       8.781  14.161  22.971  0.00  0.00    +0.000 OA
ENDBRANCH   7  14
ENDBRANCH   1  11
BRANCH   4  15
ATOM     15  C   UNL     1       7.963   8.163  17.482  0.00  0.00    +0.000 C 
BRANCH  15  16
ATOM     16  C   UNL     1       7.228   6.829  17.686  0.00  0.00    +0.000 C 
BRANCH  16  17
ATOM     17  N   UNL     1       6.161   6.660  16.680  0.00  0.00    +0.000 NA
ATOM     18  H   UNL     1       6.225   7.254  15.852  0.00  0.00    +0.000 HD
BRANCH  17  19
ATOM     19  S   UNL     1       5.829   5.075  16.185  0.00  0.00    +0.000 S 
ATOM     20  O   UNL     1       5.492   5.165  14.784  0.00  0.00    +0.000 OA
ATOM     21  O   UNL     1       6.897   4.212  16.651  0.00  0.00    +0.000 OA
BRANCH  19  22
ATOM     22  C   UNL     1       4.349   4.669  17.076  0.00  0.00    +0.000 A 
ATOM     23  C   UNL     1       3.998   3.331  17.264  0.00  0.00    +0.000 A 
ATOM     24  C   UNL     1       2.904   3.009  18.072  0.00  0.00    +0.000 A 
ATOM     25  C   UNL     1       2.163   4.019  18.700  0.00  0.00    +0.000 A 
ATOM     26  C   UNL     1       1.016   3.682  19.610  0.00  0.00    +0.000 C 
ATOM     27  C   UNL     1       2.525   5.359  18.501  0.00  0.00    +0.000 A 
ATOM     28  C   UNL     1       3.618   5.686  17.698  0.00  0.00    +0.000 A 
ENDBRANCH  19  22
ENDBRANCH  17  19
ENDBRANCH  16  17
ENDBRANCH  15  16
ENDBRANCH   4  15
TORSDOF 7
ENDMDL
MODEL 9
REMARK VINA RESULT:      -6.4      5.151      7.028
REMARK  Name = 
REMARK  9 active torsions:
REMARK  status: ('A' for Active; 'I' for Inactive)
REMARK    1  A    between atoms: C_1  and  O_2
REMARK    2  A    between atoms: O_2  and  C_3
REMARK    3  A    between atoms: C_7  and  N_8
REMARK    4  A    between atoms: N_11  and  C_12
REMARK    5  A    between atoms: C_12  and  C_13
REMARK    6  A    between atoms: C_13  and  N_14
REMARK    7  A    between atoms: N_14  and  S_15
REMARK    8  A    between atoms: S_15  and  C_18
REMARK    9  A    between atoms: C_21  and  C_22
REMARK                            x       y       z     vdW  Elec       q    Type
REMARK                         _______ _______ _______ _____ _____    ______ ____
ROOT
ATOM      1  N   UNL     1       9.346   9.417  19.254  0.00  0.00    +0.000 N 
ATOM      2  C   UNL     1       8.413   8.968  18.343  0.00  0.00    +0.000 C 
ATOM      3  O   UNL     1       7.780   9.654  17.548  0.00  0.00    +0.000 OA
ATOM      4  N   UNL     1       8.236   7.602  18.371  0.00  0.00    +0.000 N 
ATOM      5  H   UNL     1       9.852   8.720  19.776  0.00  0.00    +0.000 HD
ATOM      6  H   UNL     1       8.580   7.062  19.149  0.00  0.00    +0.000 HD
ENDROOT
BRANCH   1  11
ATOM      7  C   UNL     1       9.641  12.722  20.936  0.00  0.00    +0.000 A 
ATOM      8  C   UNL     1      10.335  13.464  19.978  0.00  0.00    +0.000 A 
ATOM      9  C   UNL     1      10.716  12.873  18.780  0.00  0.00    +0.000 A 
ATOM     10  C   UNL     1      10.399  11.538  18.533  0.00  0.00    +0.000 A 
ATOM     11  C   UNL     1       9.703  10.773  19.474  0.00  0.00    +0.000 A 
ATOM     12  C   UNL     1       9.329  11.378  20.685  0.00  0.00    +0.000 A 
BRANCH   7  14
ATOM     13  C   UNL     1       9.820  14.760  22.149  0.00  0.00    +0.000 C 
ATOM     14  O   UNL     1       9.323  13.433  22.062  0.00  0.00    +0.000 OA
ENDBRANCH   7  14
ENDBRANCH   1  11
BRANCH   4  15
ATOM     15  C   UNL     1       7.264   7.004  17.463  0.00  0.00    +0.000 C 
BRANCH  15  16
ATOM     16  C   UNL     1       7.321   5.469  17.478  0.00  0.00    +0.000 C 
BRANCH  16  17
ATOM     17  N   UNL     1       5.988   4.893  17.213  0.00  0.00    +0.000 NA
ATOM     18  H   UNL     1       5.961   4.098  16.572  0.00  0.00    +0.000 HD
BRANCH  17  19
ATOM     19  S   UNL     1       5.034   4.532  18.564  0.00  0.00    +0.000 S 
ATOM     20  O   UNL     1       4.334   3.313  18.234  0.00  0.00    +0.000 OA
ATOM     21  O   UNL     1       5.860   4.631  19.752  0.00  0.00    +0.000 OA
BRANCH  19  22
ATOM     22  C   UNL     1       3.848   5.851  18.592  0.00  0.00    +0.000 A 
ATOM     23  C   UNL     1       3.001   5.999  19.693  0.00  0.00    +0.000 A 
ATOM     24  C   UNL     1       2.156   7.110  19.772  0.00  0.00    +0.000 A 
ATOM     25  C   UNL     1       2.159   8.078  18.760  0.00  0.00    +0.000 A 
ATOM     26  C   UNL     1       1.291   9.300  18.858  0.00  0.00    +0.000 C 
ATOM     27  C   UNL     1       3.012   7.916  17.658  0.00  0.00    +0.000 A 
ATOM     28  C   UNL     1       3.860   6.811  17.575  0.00  0.00    +0.000 A 
ENDBRANCH  19  22
ENDBRANCH  17  19
ENDBRANCH  16  17
ENDBRANCH  15  16
ENDBRANCH   4  15
TORSDOF 7
ENDMDL
