MODEL 1
REMARK VINA RESULT:      -8.9      0.000      0.000
REMARK  Name = 
REMARK  3 active torsions:
REMARK  status: ('A' for Active; 'I' for Inactive)
REMARK    1  A    between atoms: C_2  and  C_3
REMARK    2  A    between atoms: C_9  and  C_10
REMARK    3  A    between atoms: C_21  and  C_22
REMARK                            x       y       z     vdW  Elec       q    Type
REMARK                         _______ _______ _______ _____ _____    ______ ____
ROOT
ATOM      1  C   UNL     1       4.878   4.179  17.310  0.00  0.00    +0.000 A 
ATOM      2  C   UNL     1       5.831   5.057  17.922  0.00  0.00    +0.000 A 
ATOM      3  C   UNL     1       6.922   5.645  17.226  0.00  0.00    +0.000 A 
ATOM      4  C   UNL     1       6.986   5.296  15.861  0.00  0.00    +0.000 A 
ATOM      5  N   UNL     1       7.863   5.633  14.904  0.00  0.00    +0.000 NA
ATOM      6  O   UNL     1       7.452   4.996  13.741  0.00  0.00    +0.000 OA
ATOM      7  C   UNL     1       6.308   4.277  13.961  0.00  0.00    +0.000 A 
ATOM      8  C   UNL     1       5.987   4.436  15.285  0.00  0.00    +0.000 A 
ATOM      9  C   UNL     1       4.908   3.869  15.940  0.00  0.00    +0.000 A 
ENDROOT
BRANCH   1  11
ATOM     10  O   UNL     1       3.225   2.597  17.779  0.00  0.00    +0.000 OA
ATOM     11  C   UNL     1       3.727   3.669  18.107  0.00  0.00    +0.000 C 
ATOM     12  N   UNL     1       3.311   4.391  19.222  0.00  0.00    +0.000 N 
ATOM     13  C   UNL     1       2.349   3.834  20.155  0.00  0.00    +0.000 C 
ATOM     14  C   UNL     1       1.477   5.013  20.549  0.00  0.00    +0.000 C 
ATOM     15  C   UNL     1       2.445   6.195  20.528  0.00  0.00    +0.000 C 
ATOM     16  C   UNL     1       3.430   5.840  19.413  0.00  0.00    +0.000 C 
BRANCH  15  17
ATOM     17  C   UNL     1       1.780   7.499  20.302  0.00  0.00    +0.000 A 
ATOM     18  N   UNL     1       1.008   8.112  21.262  0.00  0.00    +0.000 NA
ATOM     19  C   UNL     1       0.649   9.210  20.650  0.00  0.00    +0.000 A 
ATOM     20  O   UNL     1       1.122   9.320  19.379  0.00  0.00    +0.000 OA
ATOM     21  N   UNL     1       1.882   8.170  19.144  0.00  0.00    +0.000 NA
ENDBRANCH  15  17
ENDBRANCH   1  11
BRANCH   7  22
ATOM     22  C   UNL     1       5.761   3.550  12.818  0.00  0.00    +0.000 A 
ATOM     23  C   UNL     1       6.462   2.478  12.249  0.00  0.00    +0.000 A 
ATOM     24  C   UNL     1       5.926   1.762  11.175  0.00  0.00    +0.000 A 
ATOM     25  C   UNL     1       4.678   2.100  10.659  0.00  0.00    +0.000 A 
ATOM     26  C   UNL     1       3.969   3.162  11.206  0.00  0.00    +0.000 A 
ATOM     27  C   UNL     1       4.514   3.889  12.267  0.00  0.00    +0.000 A 
ENDBRANCH   7  22
TORSDOF 3
ENDMDL
MODEL 2
REMARK VINA RESULT:      -8.7      0.374      1.178
REMARK  Name = 
REMARK  3 active torsions:
REMARK  status: ('A' for Active; 'I' for Inactive)
REMARK    1  A    between atoms: C_2  and  C_3
REMARK    2  A    between atoms: C_9  and  C_10
REMARK    3  A    between atoms: C_21  and  C_22
REMARK                            x       y       z     vdW  Elec       q    Type
REMARK                         _______ _______ _______ _____ _____    ______ ____
ROOT
ATOM      1  C   UNL     1       4.919   4.183  17.315  0.00  0.00    +0.000 A 
ATOM      2  C   UNL     1       5.871   5.076  17.905  0.00  0.00    +0.000 A 
ATOM      3  C   UNL     1       6.949   5.665  17.188  0.00  0.00    +0.000 A 
ATOM      4  C   UNL     1       6.999   5.301  15.827  0.00  0.00    +0.000 A 
ATOM      5  N   UNL     1       7.860   5.634  14.855  0.00  0.00    +0.000 NA
ATOM      6  O   UNL     1       7.440   4.981  13.704  0.00  0.00    +0.000 OA
ATOM      7  C   UNL     1       6.305   4.255  13.947  0.00  0.00    +0.000 A 
ATOM      8  C   UNL     1       6.000   4.426  15.273  0.00  0.00    +0.000 A 
ATOM      9  C   UNL     1       4.934   3.857  15.948  0.00  0.00    +0.000 A 
ENDROOT
BRANCH   1  11
ATOM     10  O   UNL     1       3.292   2.587  17.830  0.00  0.00    +0.000 OA
ATOM     11  C   UNL     1       3.782   3.673  18.132  0.00  0.00    +0.000 C 
ATOM     12  N   UNL     1       3.365   4.411  19.237  0.00  0.00    +0.000 N 
ATOM     13  C   UNL     1       2.420   3.859  20.189  0.00  0.00    +0.000 C 
ATOM     14  C   UNL     1       1.534   5.032  20.567  0.00  0.00    +0.000 C 
ATOM     15  C   UNL     1       2.485   6.228  20.514  0.00  0.00    +0.000 C 
ATOM     16  C   UNL     1       3.465   5.865  19.398  0.00  0.00    +0.000 C 
BRANCH  15  17
ATOM     17  C   UNL     1       1.800   7.517  20.268  0.00  0.00    +0.000 A 
ATOM     18  N   UNL     1       1.922   8.206  19.082  0.00  0.00    +0.000 NA
ATOM     19  C   UNL     1       1.157   9.244  19.301  0.00  0.00    +0.000 A 
ATOM     20  O   UNL     1       0.583   9.264  20.534  0.00  0.00    +0.000 OA
ATOM     21  N   UNL     1       1.015   8.104  21.185  0.00  0.00    +0.000 NA
ENDBRANCH  15  17
ENDBRANCH   1  11
BRANCH   7  22
ATOM     22  C   UNL     1       5.750   3.510  12.820  0.00  0.00    +0.000 A 
ATOM     23  C   UNL     1       4.521   3.875  12.254  0.00  0.00    +0.000 A 
ATOM     24  C   UNL     1       4.004   3.183  11.155  0.00  0.00    +0.000 A 
ATOM     25  C   UNL     1       4.712   2.121  10.599  0.00  0.00    +0.000 A 
ATOM     26  C   UNL     1       5.930   1.740  11.147  0.00  0.00    +0.000 A 
ATOM     27  C   UNL     1       6.437   2.420  12.256  0.00  0.00    +0.000 A 
ENDBRANCH   7  22
TORSDOF 3
ENDMDL
MODEL 3
REMARK VINA RESULT:      -7.9      5.170      8.362
REMARK  Name = 
REMARK  3 active torsions:
REMARK  status: ('A' for Active; 'I' for Inactive)
REMARK    1  A    between atoms: C_2  and  C_3
REMARK    2  A    between atoms: C_9  and  C_10
REMARK    3  A    between atoms: C_21  and  C_22
REMARK                            x       y       z     vdW  Elec       q    Type
REMARK                         _______ _______ _______ _____ _____    ______ ____
ROOT
ATOM      1  C   UNL     1       0.634  10.202  20.880  0.00  0.00    +0.000 A 
ATOM      2  C   UNL     1       0.723  11.170  19.828  0.00  0.00    +0.000 A 
ATOM      3  C   UNL     1       1.301  10.902  18.556  0.00  0.00    +0.000 A 
ATOM      4  C   UNL     1       1.778   9.583  18.410  0.00  0.00    +0.000 A 
ATOM      5  N   UNL     1       2.388   8.974  17.384  0.00  0.00    +0.000 NA
ATOM      6  O   UNL     1       2.650   7.671  17.787  0.00  0.00    +0.000 OA
ATOM      7  C   UNL     1       2.187   7.456  19.058  0.00  0.00    +0.000 A 
ATOM      8  C   UNL     1       1.637   8.637  19.486  0.00  0.00    +0.000 A 
ATOM      9  C   UNL     1       1.063   8.873  20.722  0.00  0.00    +0.000 A 
ENDROOT
BRANCH   1  11
ATOM     10  O   UNL     1       0.290   9.977  23.179  0.00  0.00    +0.000 OA
ATOM     11  C   UNL     1      -0.054  10.557  22.153  0.00  0.00    +0.000 C 
ATOM     12  N   UNL     1      -1.008  11.572  22.139  0.00  0.00    +0.000 N 
ATOM     13  C   UNL     1      -1.544  12.107  23.376  0.00  0.00    +0.000 C 
ATOM     14  C   UNL     1      -3.013  12.353  23.077  0.00  0.00    +0.000 C 
ATOM     15  C   UNL     1      -3.014  12.753  21.602  0.00  0.00    +0.000 C 
ATOM     16  C   UNL     1      -1.857  11.950  21.005  0.00  0.00    +0.000 C 
BRANCH  15  17
ATOM     17  C   UNL     1      -4.300  12.487  20.919  0.00  0.00    +0.000 A 
ATOM     18  N   UNL     1      -5.478  12.301  21.606  0.00  0.00    +0.000 NA
ATOM     19  C   UNL     1      -6.327  12.117  20.628  0.00  0.00    +0.000 A 
ATOM     20  O   UNL     1      -5.767  12.159  19.389  0.00  0.00    +0.000 OA
ATOM     21  N   UNL     1      -4.405  12.406  19.583  0.00  0.00    +0.000 NA
ENDBRANCH  15  17
ENDBRANCH   1  11
BRANCH   7  22
ATOM     22  C   UNL     1       2.398   6.122  19.614  0.00  0.00    +0.000 A 
ATOM     23  C   UNL     1       1.446   5.540  20.463  0.00  0.00    +0.000 A 
ATOM     24  C   UNL     1       1.631   4.252  20.971  0.00  0.00    +0.000 A 
ATOM     25  C   UNL     1       2.767   3.521  20.633  0.00  0.00    +0.000 A 
ATOM     26  C   UNL     1       3.725   4.081  19.797  0.00  0.00    +0.000 A 
ATOM     27  C   UNL     1       3.548   5.376  19.305  0.00  0.00    +0.000 A 
ENDBRANCH   7  22
TORSDOF 3
ENDMDL
MODEL 4
REMARK VINA RESULT:      -7.9      2.290      8.299
REMARK  Name = 
REMARK  3 active torsions:
REMARK  status: ('A' for Active; 'I' for Inactive)
REMARK    1  A    between atoms: C_2  and  C_3
REMARK    2  A    between atoms: C_9  and  C_10
REMARK    3  A    between atoms: C_21  and  C_22
REMARK                            x       y       z     vdW  Elec       q    Type
REMARK                         _______ _______ _______ _____ _____    ______ ____
ROOT
ATOM      1  C   UNL     1       5.412   5.405  17.353  0.00  0.00    +0.000 A 
ATOM      2  C   UNL     1       5.444   4.039  17.785  0.00  0.00    +0.000 A 
ATOM      3  C   UNL     1       4.529   3.487  18.723  0.00  0.00    +0.000 A 
ATOM      4  C   UNL     1       3.567   4.405  19.194  0.00  0.00    +0.000 A 
ATOM      5  N   UNL     1       2.571   4.263  20.079  0.00  0.00    +0.000 NA
ATOM      6  O   UNL     1       1.939   5.496  20.174  0.00  0.00    +0.000 OA
ATOM      7  C   UNL     1       2.525   6.405  19.335  0.00  0.00    +0.000 A 
ATOM      8  C   UNL     1       3.557   5.758  18.705  0.00  0.00    +0.000 A 
ATOM      9  C   UNL     1       4.426   6.309  17.780  0.00  0.00    +0.000 A 
ENDROOT
BRANCH   1  11
ATOM     10  O   UNL     1       6.847   6.998  16.426  0.00  0.00    +0.000 OA
ATOM     11  C   UNL     1       6.371   5.871  16.311  0.00  0.00    +0.000 C 
ATOM     12  N   UNL     1       6.734   4.994  15.294  0.00  0.00    +0.000 N 
ATOM     13  C   UNL     1       7.822   5.313  14.387  0.00  0.00    +0.000 C 
ATOM     14  C   UNL     1       7.352   4.800  13.037  0.00  0.00    +0.000 C 
ATOM     15  C   UNL     1       6.532   3.561  13.393  0.00  0.00    +0.000 C 
ATOM     16  C   UNL     1       5.914   3.909  14.747  0.00  0.00    +0.000 C 
BRANCH  15  17
ATOM     17  C   UNL     1       5.512   3.216  12.376  0.00  0.00    +0.000 A 
ATOM     18  N   UNL     1       4.430   4.025  12.111  0.00  0.00    +0.000 NA
ATOM     19  C   UNL     1       3.826   3.354  11.164  0.00  0.00    +0.000 A 
ATOM     20  O   UNL     1       4.438   2.186  10.831  0.00  0.00    +0.000 OA
ATOM     21  N   UNL     1       5.571   2.092  11.646  0.00  0.00    +0.000 NA
ENDBRANCH  15  17
ENDBRANCH   1  11
BRANCH   7  22
ATOM     22  C   UNL     1       1.961   7.753  19.334  0.00  0.00    +0.000 A 
ATOM     23  C   UNL     1       1.943   8.522  18.162  0.00  0.00    +0.000 A 
ATOM     24  C   UNL     1       1.376   9.799  18.152  0.00  0.00    +0.000 A 
ATOM     25  C   UNL     1       0.808  10.324  19.310  0.00  0.00    +0.000 A 
ATOM     26  C   UNL     1       0.819   9.580  20.483  0.00  0.00    +0.000 A 
ATOM     27  C   UNL     1       1.403   8.311  20.497  0.00  0.00    +0.000 A 
ENDBRANCH   7  22
TORSDOF 3
ENDMDL
MODEL 5
REMARK VINA RESULT:      -7.9      5.207      7.733
REMARK  Name = 
REMARK  3 active torsions:
REMARK  status: ('A' for Active; 'I' for Inactive)
REMARK    1  A    between atoms: C_2  and  C_3
REMARK    2  A    between atoms: C_9  and  C_10
REMARK    3  A    between atoms: C_21  and  C_22
REMARK                            x       y       z     vdW  Elec       q    Type
REMARK                         _______ _______ _______ _____ _____    ______ ____
ROOT
ATOM      1  C   UNL     1       1.127   9.516  19.862  0.00  0.00    +0.000 A 
ATOM      2  C   UNL     1       1.741  10.245  18.793  0.00  0.00    +0.000 A 
ATOM      3  C   UNL     1       2.554   9.643  17.793  0.00  0.00    +0.000 A 
ATOM      4  C   UNL     1       2.698   8.247  17.936  0.00  0.00    +0.000 A 
ATOM      5  N   UNL     1       3.386   7.353  17.212  0.00  0.00    +0.000 NA
ATOM      6  O   UNL     1       3.187   6.115  17.808  0.00  0.00    +0.000 OA
ATOM      7  C   UNL     1       2.358   6.228  18.892  0.00  0.00    +0.000 A 
ATOM      8  C   UNL     1       2.034   7.555  19.008  0.00  0.00    +0.000 A 
ATOM      9  C   UNL     1       1.227   8.119  19.980  0.00  0.00    +0.000 A 
ENDROOT
BRANCH   1  11
ATOM     10  O   UNL     1       0.335   9.956  22.016  0.00  0.00    +0.000 OA
ATOM     11  C   UNL     1       0.234  10.226  20.822  0.00  0.00    +0.000 C 
ATOM     12  N   UNL     1      -0.627  11.206  20.336  0.00  0.00    +0.000 N 
ATOM     13  C   UNL     1      -1.352  12.077  21.243  0.00  0.00    +0.000 C 
ATOM     14  C   UNL     1      -2.715  12.246  20.597  0.00  0.00    +0.000 C 
ATOM     15  C   UNL     1      -2.408  12.212  19.101  0.00  0.00    +0.000 C 
ATOM     16  C   UNL     1      -1.217  11.259  18.995  0.00  0.00    +0.000 C 
BRANCH  15  17
ATOM     17  C   UNL     1      -3.555  11.779  18.271  0.00  0.00    +0.000 A 
ATOM     18  N   UNL     1      -4.857  11.856  18.711  0.00  0.00    +0.000 NA
ATOM     19  C   UNL     1      -5.512  11.394  17.677  0.00  0.00    +0.000 A 
ATOM     20  O   UNL     1      -4.720  11.021  16.637  0.00  0.00    +0.000 OA
ATOM     21  N   UNL     1      -3.404  11.278  17.035  0.00  0.00    +0.000 NA
ENDBRANCH  15  17
ENDBRANCH   1  11
BRANCH   7  22
ATOM     22  C   UNL     1       2.062   4.997  19.620  0.00  0.00    +0.000 A 
ATOM     23  C   UNL     1       2.459   4.840  20.955  0.00  0.00    +0.000 A 
ATOM     24  C   UNL     1       2.150   3.675  21.663  0.00  0.00    +0.000 A 
ATOM     25  C   UNL     1       1.429   2.653  21.051  0.00  0.00    +0.000 A 
ATOM     26  C   UNL     1       1.029   2.787  19.727  0.00  0.00    +0.000 A 
ATOM     27  C   UNL     1       1.356   3.943  19.015  0.00  0.00    +0.000 A 
ENDBRANCH   7  22
TORSDOF 3
ENDMDL
MODEL 6
REMARK VINA RESULT:      -7.8      4.103      6.483
REMARK  Name = 
REMARK  3 active torsions:
REMARK  status: ('A' for Active; 'I' for Inactive)
REMARK    1  A    between atoms: C_2  and  C_3
REMARK    2  A    between atoms: C_9  and  C_10
REMARK    3  A    between atoms: C_21  and  C_22
REMARK                            x       y       z     vdW  Elec       q    Type
REMARK                         _______ _______ _______ _____ _____    ______ ____
ROOT
ATOM      1  C   UNL     1       1.545   7.180  20.585  0.00  0.00    +0.000 A 
ATOM      2  C   UNL     1       0.616   6.103  20.756  0.00  0.00    +0.000 A 
ATOM      3  C   UNL     1       0.863   4.772  20.322  0.00  0.00    +0.000 A 
ATOM      4  C   UNL     1       2.121   4.593  19.709  0.00  0.00    +0.000 A 
ATOM      5  N   UNL     1       2.693   3.508  19.169  0.00  0.00    +0.000 NA
ATOM      6  O   UNL     1       3.938   3.902  18.698  0.00  0.00    +0.000 OA
ATOM      7  C   UNL     1       4.156   5.229  18.959  0.00  0.00    +0.000 A 
ATOM      8  C   UNL     1       3.033   5.699  19.589  0.00  0.00    +0.000 A 
ATOM      9  C   UNL     1       2.819   6.996  20.021  0.00  0.00    +0.000 A 
ENDROOT
BRANCH   1  11
ATOM     10  O   UNL     1       1.305   8.687  22.354  0.00  0.00    +0.000 OA
ATOM     11  C   UNL     1       1.224   8.526  21.139  0.00  0.00    +0.000 C 
ATOM     12  N   UNL     1       0.912   9.556  20.256  0.00  0.00    +0.000 N 
ATOM     13  C   UNL     1       0.809  10.928  20.718  0.00  0.00    +0.000 C 
ATOM     14  C   UNL     1      -0.354  11.506  19.933  0.00  0.00    +0.000 C 
ATOM     15  C   UNL     1      -0.262  10.794  18.584  0.00  0.00    +0.000 C 
ATOM     16  C   UNL     1       0.287   9.412  18.938  0.00  0.00    +0.000 C 
BRANCH  15  17
ATOM     17  C   UNL     1      -1.554  10.723  17.864  0.00  0.00    +0.000 A 
ATOM     18  N   UNL     1      -1.818   9.767  16.909  0.00  0.00    +0.000 NA
ATOM     19  C   UNL     1      -3.043  10.068  16.565  0.00  0.00    +0.000 A 
ATOM     20  O   UNL     1      -3.556  11.146  17.219  0.00  0.00    +0.000 OA
ATOM     21  N   UNL     1      -2.556  11.587  18.091  0.00  0.00    +0.000 NA
ENDBRANCH  15  17
ENDBRANCH   1  11
BRANCH   7  22
ATOM     22  C   UNL     1       5.432   5.782  18.514  0.00  0.00    +0.000 A 
ATOM     23  C   UNL     1       5.501   6.605  17.381  0.00  0.00    +0.000 A 
ATOM     24  C   UNL     1       6.716   7.161  16.972  0.00  0.00    +0.000 A 
ATOM     25  C   UNL     1       7.880   6.910  17.693  0.00  0.00    +0.000 A 
ATOM     26  C   UNL     1       7.835   6.093  18.816  0.00  0.00    +0.000 A 
ATOM     27  C   UNL     1       6.624   5.524  19.213  0.00  0.00    +0.000 A 
ENDBRANCH   7  22
TORSDOF 3
ENDMDL
MODEL 7
REMARK VINA RESULT:      -7.8      3.551      9.263
REMARK  Name = 
REMARK  3 active torsions:
REMARK  status: ('A' for Active; 'I' for Inactive)
REMARK    1  A    between atoms: C_2  and  C_3
REMARK    2  A    between atoms: C_9  and  C_10
REMARK    3  A    between atoms: C_21  and  C_22
REMARK                            x       y       z     vdW  Elec       q    Type
REMARK                         _______ _______ _______ _____ _____    ______ ____
ROOT
ATOM      1  C   UNL     1       1.967   7.606  19.265  0.00  0.00    +0.000 A 
ATOM      2  C   UNL     1       2.664   7.986  18.073  0.00  0.00    +0.000 A 
ATOM      3  C   UNL     1       2.618   9.294  17.515  0.00  0.00    +0.000 A 
ATOM      4  C   UNL     1       1.827  10.202  18.248  0.00  0.00    +0.000 A 
ATOM      5  N   UNL     1       1.535  11.492  18.032  0.00  0.00    +0.000 NA
ATOM      6  O   UNL     1       0.700  11.894  19.065  0.00  0.00    +0.000 OA
ATOM      7  C   UNL     1       0.483  10.863  19.941  0.00  0.00    +0.000 A 
ATOM      8  C   UNL     1       1.171   9.780  19.457  0.00  0.00    +0.000 A 
ATOM      9  C   UNL     1       1.217   8.519  20.025  0.00  0.00    +0.000 A 
ENDROOT
BRANCH   1  11
ATOM     10  O   UNL     1       1.657   5.982  20.915  0.00  0.00    +0.000 OA
ATOM     11  C   UNL     1       2.134   6.229  19.810  0.00  0.00    +0.000 C 
ATOM     12  N   UNL     1       2.764   5.268  19.024  0.00  0.00    +0.000 N 
ATOM     13  C   UNL     1       2.758   3.869  19.408  0.00  0.00    +0.000 C 
ATOM     14  C   UNL     1       4.138   3.365  19.027  0.00  0.00    +0.000 C 
ATOM     15  C   UNL     1       4.477   4.169  17.773  0.00  0.00    +0.000 C 
ATOM     16  C   UNL     1       3.789   5.515  18.005  0.00  0.00    +0.000 C 
BRANCH  15  17
ATOM     17  C   UNL     1       5.932   4.311  17.537  0.00  0.00    +0.000 A 
ATOM     18  N   UNL     1       6.825   4.567  18.553  0.00  0.00    +0.000 NA
ATOM     19  C   UNL     1       7.961   4.594  17.905  0.00  0.00    +0.000 A 
ATOM     20  O   UNL     1       7.843   4.391  16.565  0.00  0.00    +0.000 OA
ATOM     21  N   UNL     1       6.480   4.201  16.317  0.00  0.00    +0.000 NA
ENDBRANCH  15  17
ENDBRANCH   1  11
BRANCH   7  22
ATOM     22  C   UNL     1      -0.384  11.145  21.082  0.00  0.00    +0.000 A 
ATOM     23  C   UNL     1      -1.332  12.176  21.024  0.00  0.00    +0.000 A 
ATOM     24  C   UNL     1      -2.184  12.426  22.104  0.00  0.00    +0.000 A 
ATOM     25  C   UNL     1      -2.108  11.646  23.254  0.00  0.00    +0.000 A 
ATOM     26  C   UNL     1      -1.172  10.622  23.333  0.00  0.00    +0.000 A 
ATOM     27  C   UNL     1      -0.309  10.384  22.261  0.00  0.00    +0.000 A 
ENDBRANCH   7  22
TORSDOF 3
ENDMDL
MODEL 8
REMARK VINA RESULT:      -7.8      4.775     10.340
REMARK  Name = 
REMARK  3 active torsions:
REMARK  status: ('A' for Active; 'I' for Inactive)
REMARK    1  A    between atoms: C_2  and  C_3
REMARK    2  A    between atoms: C_9  and  C_10
REMARK    3  A    between atoms: C_21  and  C_22
REMARK                            x       y       z     vdW  Elec       q    Type
REMARK                         _______ _______ _______ _____ _____    ______ ____
ROOT
ATOM      1  C   UNL     1       0.872   9.561  20.087  0.00  0.00    +0.000 A 
ATOM      2  C   UNL     1       0.333   8.766  21.150  0.00  0.00    +0.000 A 
ATOM      3  C   UNL     1      -0.300   9.312  22.300  0.00  0.00    +0.000 A 
ATOM      4  C   UNL     1      -0.364  10.720  22.305  0.00  0.00    +0.000 A 
ATOM      5  N   UNL     1      -0.862  11.578  23.207  0.00  0.00    +0.000 NA
ATOM      6  O   UNL     1      -0.649  12.855  22.707  0.00  0.00    +0.000 OA
ATOM      7  C   UNL     1      -0.038  12.800  21.483  0.00  0.00    +0.000 A 
ATOM      8  C   UNL     1       0.163  11.474  21.199  0.00  0.00    +0.000 A 
ATOM      9  C   UNL     1       0.766  10.962  20.064  0.00  0.00    +0.000 A 
ENDROOT
BRANCH   1  11
ATOM     10  O   UNL     1       1.231   9.387  17.785  0.00  0.00    +0.000 OA
ATOM     11  C   UNL     1       1.454   8.894  18.888  0.00  0.00    +0.000 C 
ATOM     12  N   UNL     1       2.274   7.784  19.071  0.00  0.00    +0.000 N 
ATOM     13  C   UNL     1       3.040   7.233  17.968  0.00  0.00    +0.000 C 
ATOM     14  C   UNL     1       2.975   5.731  18.175  0.00  0.00    +0.000 C 
ATOM     15  C   UNL     1       2.956   5.581  19.695  0.00  0.00    +0.000 C 
ATOM     16  C   UNL     1       2.201   6.821  20.175  0.00  0.00    +0.000 C 
BRANCH  15  17
ATOM     17  C   UNL     1       2.328   4.322  20.157  0.00  0.00    +0.000 A 
ATOM     18  N   UNL     1       2.216   3.997  21.490  0.00  0.00    +0.000 NA
ATOM     19  C   UNL     1       1.602   2.843  21.429  0.00  0.00    +0.000 A 
ATOM     20  O   UNL     1       1.338   2.419  20.164  0.00  0.00    +0.000 OA
ATOM     21  N   UNL     1       1.826   3.412  19.309  0.00  0.00    +0.000 NA
ENDBRANCH  15  17
ENDBRANCH   1  11
BRANCH   7  22
ATOM     22  C   UNL     1       0.250  14.078  20.837  0.00  0.00    +0.000 A 
ATOM     23  C   UNL     1      -0.416  14.454  19.662  0.00  0.00    +0.000 A 
ATOM     24  C   UNL     1      -0.164  15.690  19.060  0.00  0.00    +0.000 A 
ATOM     25  C   UNL     1       0.751  16.573  19.627  0.00  0.00    +0.000 A 
ATOM     26  C   UNL     1       1.425  16.218  20.789  0.00  0.00    +0.000 A 
ATOM     27  C   UNL     1       1.186  14.976  21.380  0.00  0.00    +0.000 A 
ENDBRANCH   7  22
TORSDOF 3
ENDMDL
MODEL 9
REMARK VINA RESULT:      -7.8      5.100      7.803
REMARK  Name = 
REMARK  3 active torsions:
REMARK  status: ('A' for Active; 'I' for Inactive)
REMARK    1  A    between atoms: C_2  and  C_3
REMARK    2  A    between atoms: C_9  and  C_10
REMARK    3  A    between atoms: C_21  and  C_22
REMARK                            x       y       z     vdW  Elec       q    Type
REMARK                         _______ _______ _______ _____ _____    ______ ____
ROOT
ATOM      1  C   UNL     1       1.102   9.495  20.541  0.00  0.00    +0.000 A 
ATOM      2  C   UNL     1       1.330  10.336  19.403  0.00  0.00    +0.000 A 
ATOM      3  C   UNL     1       1.925   9.881  18.194  0.00  0.00    +0.000 A 
ATOM      4  C   UNL     1       2.267   8.513  18.202  0.00  0.00    +0.000 A 
ATOM      5  N   UNL     1       2.849   7.743  17.272  0.00  0.00    +0.000 NA
ATOM      6  O   UNL     1       2.958   6.470  17.815  0.00  0.00    +0.000 OA
ATOM      7  C   UNL     1       2.428   6.435  19.077  0.00  0.00    +0.000 A 
ATOM      8  C   UNL     1       1.988   7.703  19.358  0.00  0.00    +0.000 A 
ATOM      9  C   UNL     1       1.395   8.121  20.537  0.00  0.00    +0.000 A 
ENDROOT
BRANCH   1  11
ATOM     10  O   UNL     1       0.623   9.522  22.827  0.00  0.00    +0.000 OA
ATOM     11  C   UNL     1       0.406  10.048  21.738  0.00  0.00    +0.000 C 
ATOM     12  N   UNL     1      -0.403  11.169  21.585  0.00  0.00    +0.000 N 
ATOM     13  C   UNL     1      -0.923  11.877  22.740  0.00  0.00    +0.000 C 
ATOM     14  C   UNL     1      -2.330  12.280  22.337  0.00  0.00    +0.000 C 
ATOM     15  C   UNL     1      -2.209  12.544  20.836  0.00  0.00    +0.000 C 
ATOM     16  C   UNL     1      -1.141  11.550  20.376  0.00  0.00    +0.000 C 
BRANCH  15  17
ATOM     17  C   UNL     1      -3.485  12.383  20.103  0.00  0.00    +0.000 A 
ATOM     18  N   UNL     1      -4.701  12.723  20.651  0.00  0.00    +0.000 NA
ATOM     19  C   UNL     1      -5.521  12.436  19.673  0.00  0.00    +0.000 A 
ATOM     20  O   UNL     1      -4.912  11.930  18.567  0.00  0.00    +0.000 OA
ATOM     21  N   UNL     1      -3.544  11.893  18.855  0.00  0.00    +0.000 NA
ENDBRANCH  15  17
ENDBRANCH   1  11
BRANCH   7  22
ATOM     22  C   UNL     1       2.478   5.152  19.772  0.00  0.00    +0.000 A 
ATOM     23  C   UNL     1       3.602   4.321  19.665  0.00  0.00    +0.000 A 
ATOM     24  C   UNL     1       3.664   3.107  20.355  0.00  0.00    +0.000 A 
ATOM     25  C   UNL     1       2.608   2.708  21.169  0.00  0.00    +0.000 A 
ATOM     26  C   UNL     1       1.482   3.514  21.285  0.00  0.00    +0.000 A 
ATOM     27  C   UNL     1       1.413   4.718  20.582  0.00  0.00    +0.000 A 
ENDBRANCH   7  22
TORSDOF 3
ENDMDL
