MODEL 1
REMARK VINA RESULT:      -7.1      0.000      0.000
REMARK  Name = 
REMARK  9 active torsions:
REMARK  status: ('A' for Active; 'I' for Inactive)
REMARK    1  A    between atoms: C_1  and  C_2
REMARK    2  A    between atoms: C_6  and  S_7
REMARK    3  A    between atoms: S_7  and  C_8
REMARK    4  A    between atoms: C_8  and  C_9
REMARK    5  A    between atoms: C_8  and  C_10
REMARK    6  A    between atoms: C_12  and  C_13
REMARK    7  A    between atoms: C_13  and  C_14
REMARK    8  A    between atoms: C_13  and  C_15
REMARK    9  A    between atoms: C_22  and  C_23
REMARK                            x       y       z     vdW  Elec       q    Type
REMARK                         _______ _______ _______ _____ _____    ______ ____
ROOT
ATOM      1  C   UNL     1       1.206  10.888  18.621  0.00  0.00    +0.000 C 
ATOM      2  C   UNL     1       1.780   9.505  18.635  0.00  0.00    +0.000 A 
ATOM      3  S   UNL     1       2.842   9.013  17.394  0.00  0.00    +0.000 S 
ATOM      4  C   UNL     1       3.046   7.469  18.078  0.00  0.00    +0.000 A 
ATOM      5  N   UNL     1       3.856   6.576  17.474  0.00  0.00    +0.000 NA
ATOM      6  C   UNL     1       3.934   5.416  18.126  0.00  0.00    +0.000 A 
ATOM      7  N   UNL     1       3.285   5.117  19.265  0.00  0.00    +0.000 NA
ATOM      8  C   UNL     1       2.478   6.029  19.844  0.00  0.00    +0.000 A 
ATOM      9  N   UNL     1       1.846   5.615  21.010  0.00  0.00    +0.000 N 
ATOM     10  C   UNL     1       2.321   7.296  19.248  0.00  0.00    +0.000 A 
ATOM     11  C   UNL     1       1.565   8.504  19.576  0.00  0.00    +0.000 A 
ATOM     12  C   UNL     1       0.665   8.719  20.757  0.00  0.00    +0.000 C 
ATOM     13  H   UNL     1       1.967   4.611  21.123  0.00  0.00    +0.000 HD
ATOM     14  H   UNL     1       0.893   5.930  21.109  0.00  0.00    +0.000 HD
ENDROOT
BRANCH   6  15
ATOM     15  S   UNL     1       4.919   4.090  17.436  0.00  0.00    +0.000 S 
BRANCH  15  16
ATOM     16  C   UNL     1       6.362   4.993  16.734  0.00  0.00    +0.000 C 
ATOM     17  C   UNL     1       7.661   4.542  17.400  0.00  0.00    +0.000 C 
BRANCH  16  18
ATOM     18  C   UNL     1       6.449   4.797  15.243  0.00  0.00    +0.000 A 
ATOM     19  N   UNL     1       5.855   3.937  14.431  0.00  0.00    +0.000 NA
ATOM     20  C   UNL     1       6.457   4.200  13.217  0.00  0.00    +0.000 A 
ATOM     21  N   UNL     1       7.384   5.166  13.261  0.00  0.00    +0.000 NA
ATOM     22  O   UNL     1       7.381   5.566  14.595  0.00  0.00    +0.000 OA
BRANCH  20  23
ATOM     23  C   UNL     1       6.156   3.472  11.938  0.00  0.00    +0.000 C 
ATOM     24  C   UNL     1       6.899   2.138  11.829  0.00  0.00    +0.000 C 
ATOM     25  C   UNL     1       4.657   3.259  11.721  0.00  0.00    +0.000 C 
ENDBRANCH  20  23
ENDBRANCH  16  18
ENDBRANCH  15  16
ENDBRANCH   6  15
TORSDOF 4
ENDMDL
MODEL 2
REMARK VINA RESULT:      -6.6      4.187      8.748
REMARK  Name = 
REMARK  9 active torsions:
REMARK  status: ('A' for Active; 'I' for Inactive)
REMARK    1  A    between atoms: C_1  and  C_2
REMARK    2  A    between atoms: C_6  and  S_7
REMARK    3  A    between atoms: S_7  and  C_8
REMARK    4  A    between atoms: C_8  and  C_9
REMARK    5  A    between atoms: C_8  and  C_10
REMARK    6  A    between atoms: C_12  and  C_13
REMARK    7  A    between atoms: C_13  and  C_14
REMARK    8  A    between atoms: C_13  and  C_15
REMARK    9  A    between atoms: C_22  and  C_23
REMARK                            x       y       z     vdW  Elec       q    Type
REMARK                         _______ _______ _______ _____ _____    ______ ____
ROOT
ATOM      1  C   UNL     1       2.815   2.875  21.220  0.00  0.00    +0.000 C 
ATOM      2  C   UNL     1       2.828   4.130  20.402  0.00  0.00    +0.000 A 
ATOM      3  S   UNL     1       1.794   5.423  20.813  0.00  0.00    +0.000 S 
ATOM      4  C   UNL     1       2.369   6.388  19.537  0.00  0.00    +0.000 A 
ATOM      5  N   UNL     1       1.870   7.629  19.363  0.00  0.00    +0.000 NA
ATOM      6  C   UNL     1       2.423   8.276  18.337  0.00  0.00    +0.000 A 
ATOM      7  N   UNL     1       3.374   7.783  17.525  0.00  0.00    +0.000 NA
ATOM      8  C   UNL     1       3.851   6.537  17.720  0.00  0.00    +0.000 A 
ATOM      9  N   UNL     1       4.823   6.120  16.818  0.00  0.00    +0.000 N 
ATOM     10  C   UNL     1       3.346   5.757  18.780  0.00  0.00    +0.000 A 
ATOM     11  C   UNL     1       3.615   4.414  19.291  0.00  0.00    +0.000 A 
ATOM     12  C   UNL     1       4.600   3.418  18.753  0.00  0.00    +0.000 C 
ATOM     13  H   UNL     1       4.872   6.778  16.044  0.00  0.00    +0.000 HD
ATOM     14  H   UNL     1       4.750   5.154  16.536  0.00  0.00    +0.000 HD
ENDROOT
BRANCH   6  15
ATOM     15  S   UNL     1       1.838   9.917  17.923  0.00  0.00    +0.000 S 
BRANCH  15  16
ATOM     16  C   UNL     1       0.554  10.216  19.208  0.00  0.00    +0.000 C 
ATOM     17  C   UNL     1       0.910  11.433  20.059  0.00  0.00    +0.000 C 
BRANCH  16  18
ATOM     18  C   UNL     1      -0.804  10.400  18.581  0.00  0.00    +0.000 A 
ATOM     19  N   UNL     1      -1.900  11.004  19.013  0.00  0.00    +0.000 NA
ATOM     20  C   UNL     1      -2.820  10.704  18.028  0.00  0.00    +0.000 A 
ATOM     21  N   UNL     1      -2.334   9.949  17.034  0.00  0.00    +0.000 NA
ATOM     22  O   UNL     1      -1.004   9.746  17.393  0.00  0.00    +0.000 OA
BRANCH  20  23
ATOM     23  C   UNL     1      -4.257  11.138  18.041  0.00  0.00    +0.000 C 
ATOM     24  C   UNL     1      -4.558  12.152  19.148  0.00  0.00    +0.000 C 
ATOM     25  C   UNL     1      -4.720  11.683  16.689  0.00  0.00    +0.000 C 
ENDBRANCH  20  23
ENDBRANCH  16  18
ENDBRANCH  15  16
ENDBRANCH   6  15
TORSDOF 4
ENDMDL
MODEL 3
REMARK VINA RESULT:      -6.6      4.251      8.555
REMARK  Name = 
REMARK  9 active torsions:
REMARK  status: ('A' for Active; 'I' for Inactive)
REMARK    1  A    between atoms: C_1  and  C_2
REMARK    2  A    between atoms: C_6  and  S_7
REMARK    3  A    between atoms: S_7  and  C_8
REMARK    4  A    between atoms: C_8  and  C_9
REMARK    5  A    between atoms: C_8  and  C_10
REMARK    6  A    between atoms: C_12  and  C_13
REMARK    7  A    between atoms: C_13  and  C_14
REMARK    8  A    between atoms: C_13  and  C_15
REMARK    9  A    between atoms: C_22  and  C_23
REMARK                            x       y       z     vdW  Elec       q    Type
REMARK                         _______ _______ _______ _____ _____    ______ ____
ROOT
ATOM      1  C   UNL     1       6.694   4.198  17.230  0.00  0.00    +0.000 C 
ATOM      2  C   UNL     1       5.611   5.165  17.597  0.00  0.00    +0.000 A 
ATOM      3  S   UNL     1       5.396   6.587  16.680  0.00  0.00    +0.000 S 
ATOM      4  C   UNL     1       4.082   7.094  17.635  0.00  0.00    +0.000 A 
ATOM      5  N   UNL     1       3.455   8.252  17.343  0.00  0.00    +0.000 NA
ATOM      6  C   UNL     1       2.437   8.515  18.162  0.00  0.00    +0.000 A 
ATOM      7  N   UNL     1       2.042   7.743  19.190  0.00  0.00    +0.000 NA
ATOM      8  C   UNL     1       2.691   6.592  19.460  0.00  0.00    +0.000 A 
ATOM      9  N   UNL     1       2.212   5.876  20.550  0.00  0.00    +0.000 N 
ATOM     10  C   UNL     1       3.784   6.205  18.658  0.00  0.00    +0.000 A 
ATOM     11  C   UNL     1       4.696   5.062  18.638  0.00  0.00    +0.000 A 
ATOM     12  C   UNL     1       4.700   3.889  19.574  0.00  0.00    +0.000 C 
ATOM     13  H   UNL     1       1.556   6.452  21.072  0.00  0.00    +0.000 HD
ATOM     14  H   UNL     1       2.925   5.444  21.118  0.00  0.00    +0.000 HD
ENDROOT
BRANCH   6  15
ATOM     15  S   UNL     1       1.526  10.043  17.960  0.00  0.00    +0.000 S 
BRANCH  15  16
ATOM     16  C   UNL     1       0.257   9.927  19.288  0.00  0.00    +0.000 C 
ATOM     17  C   UNL     1       0.638  10.802  20.481  0.00  0.00    +0.000 C 
BRANCH  16  18
ATOM     18  C   UNL     1      -1.103  10.318  18.771  0.00  0.00    +0.000 A 
ATOM     19  N   UNL     1      -1.776   9.948  17.694  0.00  0.00    +0.000 NA
ATOM     20  C   UNL     1      -2.890  10.762  17.737  0.00  0.00    +0.000 A 
ATOM     21  N   UNL     1      -2.916  11.602  18.780  0.00  0.00    +0.000 NA
ATOM     22  O   UNL     1      -1.740  11.313  19.467  0.00  0.00    +0.000 OA
BRANCH  20  23
ATOM     23  C   UNL     1      -3.988  10.764  16.712  0.00  0.00    +0.000 C 
ATOM     24  C   UNL     1      -5.047  11.835  16.984  0.00  0.00    +0.000 C 
ATOM     25  C   UNL     1      -3.460  10.896  15.283  0.00  0.00    +0.000 C 
ENDBRANCH  20  23
ENDBRANCH  16  18
ENDBRANCH  15  16
ENDBRANCH   6  15
TORSDOF 4
ENDMDL
MODEL 4
REMARK VINA RESULT:      -6.5      3.481      4.605
REMARK  Name = 
REMARK  9 active torsions:
REMARK  status: ('A' for Active; 'I' for Inactive)
REMARK    1  A    between atoms: C_1  and  C_2
REMARK    2  A    between atoms: C_6  and  S_7
REMARK    3  A    between atoms: S_7  and  C_8
REMARK    4  A    between atoms: C_8  and  C_9
REMARK    5  A    between atoms: C_8  and  C_10
REMARK    6  A    between atoms: C_12  and  C_13
REMARK    7  A    between atoms: C_13  and  C_14
REMARK    8  A    between atoms: C_13  and  C_15
REMARK    9  A    between atoms: C_22  and  C_23
REMARK                            x       y       z     vdW  Elec       q    Type
REMARK                         _______ _______ _______ _____ _____    ______ ____
ROOT
ATOM      1  C   UNL     1       0.033  11.245  20.118  0.00  0.00    +0.000 C 
ATOM      2  C   UNL     1       0.853  10.063  19.701  0.00  0.00    +0.000 A 
ATOM      3  S   UNL     1       1.678  10.085  18.208  0.00  0.00    +0.000 S 
ATOM      4  C   UNL     1       2.327   8.533  18.459  0.00  0.00    +0.000 A 
ATOM      5  N   UNL     1       3.136   7.992  17.525  0.00  0.00    +0.000 NA
ATOM      6  C   UNL     1       3.584   6.782  17.860  0.00  0.00    +0.000 A 
ATOM      7  N   UNL     1       3.283   6.125  18.993  0.00  0.00    +0.000 NA
ATOM      8  C   UNL     1       2.468   6.690  19.907  0.00  0.00    +0.000 A 
ATOM      9  N   UNL     1       2.212   5.921  21.036  0.00  0.00    +0.000 N 
ATOM     10  C   UNL     1       1.936   7.972  19.666  0.00  0.00    +0.000 A 
ATOM     11  C   UNL     1       1.056   8.879  20.401  0.00  0.00    +0.000 A 
ATOM     12  C   UNL     1       0.425   8.643  21.742  0.00  0.00    +0.000 C 
ATOM     13  H   UNL     1       2.547   4.973  20.885  0.00  0.00    +0.000 HD
ATOM     14  H   UNL     1       1.263   5.975  21.377  0.00  0.00    +0.000 HD
ENDROOT
BRANCH   6  15
ATOM     15  S   UNL     1       4.623   5.887  16.709  0.00  0.00    +0.000 S 
BRANCH  15  16
ATOM     16  C   UNL     1       5.602   4.797  17.825  0.00  0.00    +0.000 C 
ATOM     17  C   UNL     1       6.419   5.625  18.814  0.00  0.00    +0.000 C 
BRANCH  16  18
ATOM     18  C   UNL     1       4.705   3.839  18.566  0.00  0.00    +0.000 A 
ATOM     19  N   UNL     1       3.425   3.538  18.421  0.00  0.00    +0.000 NA
ATOM     20  C   UNL     1       3.188   2.694  19.487  0.00  0.00    +0.000 A 
ATOM     21  N   UNL     1       4.257   2.479  20.265  0.00  0.00    +0.000 NA
ATOM     22  O   UNL     1       5.262   3.231  19.661  0.00  0.00    +0.000 OA
BRANCH  20  23
ATOM     23  C   UNL     1       1.859   2.071  19.805  0.00  0.00    +0.000 C 
ATOM     24  C   UNL     1       1.351   2.445  21.200  0.00  0.00    +0.000 C 
ATOM     25  C   UNL     1       0.793   2.387  18.755  0.00  0.00    +0.000 C 
ENDBRANCH  20  23
ENDBRANCH  16  18
ENDBRANCH  15  16
ENDBRANCH   6  15
TORSDOF 4
ENDMDL
MODEL 5
REMARK VINA RESULT:      -6.4      2.555      3.669
REMARK  Name = 
REMARK  9 active torsions:
REMARK  status: ('A' for Active; 'I' for Inactive)
REMARK    1  A    between atoms: C_1  and  C_2
REMARK    2  A    between atoms: C_6  and  S_7
REMARK    3  A    between atoms: S_7  and  C_8
REMARK    4  A    between atoms: C_8  and  C_9
REMARK    5  A    between atoms: C_8  and  C_10
REMARK    6  A    between atoms: C_12  and  C_13
REMARK    7  A    between atoms: C_13  and  C_14
REMARK    8  A    between atoms: C_13  and  C_15
REMARK    9  A    between atoms: C_22  and  C_23
REMARK                            x       y       z     vdW  Elec       q    Type
REMARK                         _______ _______ _______ _____ _____    ______ ____
ROOT
ATOM      1  C   UNL     1       1.069   2.422  22.226  0.00  0.00    +0.000 C 
ATOM      2  C   UNL     1       2.048   3.068  21.294  0.00  0.00    +0.000 A 
ATOM      3  S   UNL     1       3.543   2.312  20.974  0.00  0.00    +0.000 S 
ATOM      4  C   UNL     1       4.026   3.550  19.912  0.00  0.00    +0.000 A 
ATOM      5  N   UNL     1       5.227   3.472  19.302  0.00  0.00    +0.000 NA
ATOM      6  C   UNL     1       5.467   4.500  18.487  0.00  0.00    +0.000 A 
ATOM      7  N   UNL     1       4.635   5.533  18.270  0.00  0.00    +0.000 NA
ATOM      8  C   UNL     1       3.442   5.586  18.897  0.00  0.00    +0.000 A 
ATOM      9  N   UNL     1       2.665   6.702  18.611  0.00  0.00    +0.000 N 
ATOM     10  C   UNL     1       3.075   4.551  19.780  0.00  0.00    +0.000 A 
ATOM     11  C   UNL     1       1.902   4.267  20.606  0.00  0.00    +0.000 A 
ATOM     12  C   UNL     1       0.662   5.101  20.738  0.00  0.00    +0.000 C 
ATOM     13  H   UNL     1       3.224   7.386  18.107  0.00  0.00    +0.000 HD
ATOM     14  H   UNL     1       2.162   7.079  19.401  0.00  0.00    +0.000 HD
ENDROOT
BRANCH   6  15
ATOM     15  S   UNL     1       7.041   4.593  17.639  0.00  0.00    +0.000 S 
BRANCH  15  16
ATOM     16  C   UNL     1       6.699   5.812  16.302  0.00  0.00    +0.000 C 
ATOM     17  C   UNL     1       7.747   6.923  16.299  0.00  0.00    +0.000 C 
BRANCH  16  18
ATOM     18  C   UNL     1       6.652   5.138  14.956  0.00  0.00    +0.000 A 
ATOM     19  N   UNL     1       5.897   4.159  14.486  0.00  0.00    +0.000 NA
ATOM     20  C   UNL     1       6.439   3.929  13.238  0.00  0.00    +0.000 A 
ATOM     21  N   UNL     1       7.482   4.715  12.938  0.00  0.00    +0.000 NA
ATOM     22  O   UNL     1       7.626   5.516  14.068  0.00  0.00    +0.000 OA
BRANCH  20  23
ATOM     23  C   UNL     1       5.957   2.881  12.276  0.00  0.00    +0.000 C 
ATOM     24  C   UNL     1       4.678   3.296  11.543  0.00  0.00    +0.000 C 
ATOM     25  C   UNL     1       7.030   2.467  11.268  0.00  0.00    +0.000 C 
ENDBRANCH  20  23
ENDBRANCH  16  18
ENDBRANCH  15  16
ENDBRANCH   6  15
TORSDOF 4
ENDMDL
MODEL 6
REMARK VINA RESULT:      -6.4      4.057      8.479
REMARK  Name = 
REMARK  9 active torsions:
REMARK  status: ('A' for Active; 'I' for Inactive)
REMARK    1  A    between atoms: C_1  and  C_2
REMARK    2  A    between atoms: C_6  and  S_7
REMARK    3  A    between atoms: S_7  and  C_8
REMARK    4  A    between atoms: C_8  and  C_9
REMARK    5  A    between atoms: C_8  and  C_10
REMARK    6  A    between atoms: C_12  and  C_13
REMARK    7  A    between atoms: C_13  and  C_14
REMARK    8  A    between atoms: C_13  and  C_15
REMARK    9  A    between atoms: C_22  and  C_23
REMARK                            x       y       z     vdW  Elec       q    Type
REMARK                         _______ _______ _______ _____ _____    ______ ____
ROOT
ATOM      1  C   UNL     1       3.532   2.047  18.258  0.00  0.00    +0.000 C 
ATOM      2  C   UNL     1       3.485   3.527  18.039  0.00  0.00    +0.000 A 
ATOM      3  S   UNL     1       2.259   4.457  18.775  0.00  0.00    +0.000 S 
ATOM      4  C   UNL     1       2.855   5.906  18.112  0.00  0.00    +0.000 A 
ATOM      5  N   UNL     1       2.231   7.070  18.386  0.00  0.00    +0.000 NA
ATOM      6  C   UNL     1       2.815   8.123  17.815  0.00  0.00    +0.000 A 
ATOM      7  N   UNL     1       3.907   8.080  17.032  0.00  0.00    +0.000 NA
ATOM      8  C   UNL     1       4.508   6.901  16.772  0.00  0.00    +0.000 A 
ATOM      9  N   UNL     1       5.621   6.967  15.942  0.00  0.00    +0.000 N 
ATOM     10  C   UNL     1       3.983   5.716  17.327  0.00  0.00    +0.000 A 
ATOM     11  C   UNL     1       4.354   4.303  17.279  0.00  0.00    +0.000 A 
ATOM     12  C   UNL     1       5.509   3.692  16.542  0.00  0.00    +0.000 C 
ATOM     13  H   UNL     1       5.677   7.891  15.523  0.00  0.00    +0.000 HD
ATOM     14  H   UNL     1       5.700   6.207  15.282  0.00  0.00    +0.000 HD
ENDROOT
BRANCH   6  15
ATOM     15  S   UNL     1       2.084   9.744  18.021  0.00  0.00    +0.000 S 
BRANCH  15  16
ATOM     16  C   UNL     1       0.692   9.407  19.178  0.00  0.00    +0.000 C 
ATOM     17  C   UNL     1       0.970  10.010  20.553  0.00  0.00    +0.000 C 
BRANCH  16  18
ATOM     18  C   UNL     1      -0.606   9.941  18.630  0.00  0.00    +0.000 A 
ATOM     19  N   UNL     1      -1.391   9.518  17.653  0.00  0.00    +0.000 NA
ATOM     20  C   UNL     1      -2.343  10.514  17.574  0.00  0.00    +0.000 A 
ATOM     21  N   UNL     1      -2.166  11.514  18.448  0.00  0.00    +0.000 NA
ATOM     22  O   UNL     1      -1.022  11.140  19.149  0.00  0.00    +0.000 OA
BRANCH  20  23
ATOM     23  C   UNL     1      -3.479  10.536  16.592  0.00  0.00    +0.000 C 
ATOM     24  C   UNL     1      -4.501  11.635  16.895  0.00  0.00    +0.000 C 
ATOM     25  C   UNL     1      -3.002  10.646  15.143  0.00  0.00    +0.000 C 
ENDBRANCH  20  23
ENDBRANCH  16  18
ENDBRANCH  15  16
ENDBRANCH   6  15
TORSDOF 4
ENDMDL
MODEL 7
REMARK VINA RESULT:      -6.4      2.038      3.032
REMARK  Name = 
REMARK  9 active torsions:
REMARK  status: ('A' for Active; 'I' for Inactive)
REMARK    1  A    between atoms: C_1  and  C_2
REMARK    2  A    between atoms: C_6  and  S_7
REMARK    3  A    between atoms: S_7  and  C_8
REMARK    4  A    between atoms: C_8  and  C_9
REMARK    5  A    between atoms: C_8  and  C_10
REMARK    6  A    between atoms: C_12  and  C_13
REMARK    7  A    between atoms: C_13  and  C_14
REMARK    8  A    between atoms: C_13  and  C_15
REMARK    9  A    between atoms: C_22  and  C_23
REMARK                            x       y       z     vdW  Elec       q    Type
REMARK                         _______ _______ _______ _____ _____    ______ ____
ROOT
ATOM      1  C   UNL     1      -0.622  10.569  22.484  0.00  0.00    +0.000 C 
ATOM      2  C   UNL     1       0.174   9.757  21.508  0.00  0.00    +0.000 A 
ATOM      3  S   UNL     1       0.621   8.158  21.898  0.00  0.00    +0.000 S 
ATOM      4  C   UNL     1       1.411   7.936  20.408  0.00  0.00    +0.000 A 
ATOM      5  N   UNL     1       1.998   6.752  20.136  0.00  0.00    +0.000 NA
ATOM      6  C   UNL     1       2.563   6.715  18.929  0.00  0.00    +0.000 A 
ATOM      7  N   UNL     1       2.581   7.726  18.044  0.00  0.00    +0.000 NA
ATOM      8  C   UNL     1       1.989   8.900  18.346  0.00  0.00    +0.000 A 
ATOM      9  N   UNL     1       2.076   9.883  17.367  0.00  0.00    +0.000 N 
ATOM     10  C   UNL     1       1.353   9.057  19.593  0.00  0.00    +0.000 A 
ATOM     11  C   UNL     1       0.622  10.141  20.249  0.00  0.00    +0.000 A 
ATOM     12  C   UNL     1       0.341  11.508  19.700  0.00  0.00    +0.000 C 
ATOM     13  H   UNL     1       2.742   9.594  16.655  0.00  0.00    +0.000 HD
ATOM     14  H   UNL     1       2.225  10.817  17.719  0.00  0.00    +0.000 HD
ENDROOT
BRANCH   6  15
ATOM     15  S   UNL     1       3.442   5.239  18.423  0.00  0.00    +0.000 S 
BRANCH  15  16
ATOM     16  C   UNL     1       5.105   5.899  17.986  0.00  0.00    +0.000 C 
ATOM     17  C   UNL     1       6.108   5.626  19.105  0.00  0.00    +0.000 C 
BRANCH  16  18
ATOM     18  C   UNL     1       5.597   5.306  16.692  0.00  0.00    +0.000 A 
ATOM     19  N   UNL     1       5.927   5.862  15.537  0.00  0.00    +0.000 NA
ATOM     20  C   UNL     1       6.169   4.768  14.731  0.00  0.00    +0.000 A 
ATOM     21  N   UNL     1       5.997   3.587  15.341  0.00  0.00    +0.000 NA
ATOM     22  O   UNL     1       5.621   3.936  16.636  0.00  0.00    +0.000 OA
BRANCH  20  23
ATOM     23  C   UNL     1       6.564   4.842  13.284  0.00  0.00    +0.000 C 
ATOM     24  C   UNL     1       7.999   5.338  13.089  0.00  0.00    +0.000 C 
ATOM     25  C   UNL     1       6.360   3.517  12.549  0.00  0.00    +0.000 C 
ENDBRANCH  20  23
ENDBRANCH  16  18
ENDBRANCH  15  16
ENDBRANCH   6  15
TORSDOF 4
ENDMDL
MODEL 8
REMARK VINA RESULT:      -6.4      4.008      8.505
REMARK  Name = 
REMARK  9 active torsions:
REMARK  status: ('A' for Active; 'I' for Inactive)
REMARK    1  A    between atoms: C_1  and  C_2
REMARK    2  A    between atoms: C_6  and  S_7
REMARK    3  A    between atoms: S_7  and  C_8
REMARK    4  A    between atoms: C_8  and  C_9
REMARK    5  A    between atoms: C_8  and  C_10
REMARK    6  A    between atoms: C_12  and  C_13
REMARK    7  A    between atoms: C_13  and  C_14
REMARK    8  A    between atoms: C_13  and  C_15
REMARK    9  A    between atoms: C_22  and  C_23
REMARK                            x       y       z     vdW  Elec       q    Type
REMARK                         _______ _______ _______ _____ _____    ______ ____
ROOT
ATOM      1  C   UNL     1       5.609   4.221  16.754  0.00  0.00    +0.000 C 
ATOM      2  C   UNL     1       4.644   4.880  17.691  0.00  0.00    +0.000 A 
ATOM      3  S   UNL     1       4.236   6.522  17.474  0.00  0.00    +0.000 S 
ATOM      4  C   UNL     1       3.176   6.513  18.804  0.00  0.00    +0.000 A 
ATOM      5  N   UNL     1       2.507   7.638  19.130  0.00  0.00    +0.000 NA
ATOM      6  C   UNL     1       1.702   7.481  20.180  0.00  0.00    +0.000 A 
ATOM      7  N   UNL     1       1.545   6.344  20.880  0.00  0.00    +0.000 NA
ATOM      8  C   UNL     1       2.230   5.235  20.533  0.00  0.00    +0.000 A 
ATOM      9  N   UNL     1       2.004   4.119  21.329  0.00  0.00    +0.000 N 
ATOM     10  C   UNL     1       3.110   5.278  19.433  0.00  0.00    +0.000 A 
ATOM     11  C   UNL     1       3.986   4.310  18.775  0.00  0.00    +0.000 A 
ATOM     12  C   UNL     1       4.194   2.872  19.150  0.00  0.00    +0.000 C 
ATOM     13  H   UNL     1       1.487   4.394  22.160  0.00  0.00    +0.000 HD
ATOM     14  H   UNL     1       2.824   3.562  21.517  0.00  0.00    +0.000 HD
ENDROOT
BRANCH   6  15
ATOM     15  S   UNL     1       0.779   8.889  20.791  0.00  0.00    +0.000 S 
BRANCH  15  16
ATOM     16  C   UNL     1       0.722   9.994  19.319  0.00  0.00    +0.000 C 
ATOM     17  C   UNL     1      -0.701  10.103  18.777  0.00  0.00    +0.000 C 
BRANCH  16  18
ATOM     18  C   UNL     1       1.259  11.362  19.650  0.00  0.00    +0.000 A 
ATOM     19  N   UNL     1       1.752  12.324  18.887  0.00  0.00    +0.000 NA
ATOM     20  C   UNL     1       2.178  13.256  19.811  0.00  0.00    +0.000 A 
ATOM     21  N   UNL     1       1.971  12.901  21.086  0.00  0.00    +0.000 NA
ATOM     22  O   UNL     1       1.363  11.652  20.986  0.00  0.00    +0.000 OA
BRANCH  20  23
ATOM     23  C   UNL     1       2.848  14.556  19.468  0.00  0.00    +0.000 C 
ATOM     24  C   UNL     1       3.320  14.610  18.012  0.00  0.00    +0.000 C 
ATOM     25  C   UNL     1       1.974  15.770  19.783  0.00  0.00    +0.000 C 
ENDBRANCH  20  23
ENDBRANCH  16  18
ENDBRANCH  15  16
ENDBRANCH   6  15
TORSDOF 4
ENDMDL
MODEL 9
REMARK VINA RESULT:      -6.3      2.122      3.102
REMARK  Name = 
REMARK  9 active torsions:
REMARK  status: ('A' for Active; 'I' for Inactive)
REMARK    1  A    between atoms: C_1  and  C_2
REMARK    2  A    between atoms: C_6  and  S_7
REMARK    3  A    between atoms: S_7  and  C_8
REMARK    4  A    between atoms: C_8  and  C_9
REMARK    5  A    between atoms: C_8  and  C_10
REMARK    6  A    between atoms: C_12  and  C_13
REMARK    7  A    between atoms: C_13  and  C_14
REMARK    8  A    between atoms: C_13  and  C_15
REMARK    9  A    between atoms: C_22  and  C_23
REMARK                            x       y       z     vdW  Elec       q    Type
REMARK                         _______ _______ _______ _____ _____    ______ ____
ROOT
ATOM      1  C   UNL     1      -0.784  10.376  22.593  0.00  0.00    +0.000 C 
ATOM      2  C   UNL     1       0.091   9.712  21.574  0.00  0.00    +0.000 A 
ATOM      3  S   UNL     1       0.730   8.161  21.884  0.00  0.00    +0.000 S 
ATOM      4  C   UNL     1       1.523   8.105  20.381  0.00  0.00    +0.000 A 
ATOM      5  N   UNL     1       2.243   7.014  20.048  0.00  0.00    +0.000 NA
ATOM      6  C   UNL     1       2.794   7.100  18.838  0.00  0.00    +0.000 A 
ATOM      7  N   UNL     1       2.681   8.148  18.002  0.00  0.00    +0.000 NA
ATOM      8  C   UNL     1       1.958   9.227  18.364  0.00  0.00    +0.000 A 
ATOM      9  N   UNL     1       1.916  10.258  17.433  0.00  0.00    +0.000 N 
ATOM     10  C   UNL     1       1.322   9.249  19.621  0.00  0.00    +0.000 A 
ATOM     11  C   UNL     1       0.475  10.205  20.333  0.00  0.00    +0.000 A 
ATOM     12  C   UNL     1       0.027  11.554  19.851  0.00  0.00    +0.000 C 
ATOM     13  H   UNL     1       2.603  10.085  16.703  0.00  0.00    +0.000 HD
ATOM     14  H   UNL     1       1.957  11.185  17.828  0.00  0.00    +0.000 HD
ENDROOT
BRANCH   6  15
ATOM     15  S   UNL     1       3.836   5.766  18.256  0.00  0.00    +0.000 S 
BRANCH  15  16
ATOM     16  C   UNL     1       4.899   6.608  17.011  0.00  0.00    +0.000 C 
ATOM     17  C   UNL     1       6.079   7.304  17.686  0.00  0.00    +0.000 C 
BRANCH  16  18
ATOM     18  C   UNL     1       5.396   5.631  15.976  0.00  0.00    +0.000 A 
ATOM     19  N   UNL     1       6.336   5.730  15.051  0.00  0.00    +0.000 NA
ATOM     20  C   UNL     1       6.205   4.544  14.357  0.00  0.00    +0.000 A 
ATOM     21  N   UNL     1       5.232   3.744  14.814  0.00  0.00    +0.000 NA
ATOM     22  O   UNL     1       4.696   4.456  15.884  0.00  0.00    +0.000 OA
BRANCH  20  23
ATOM     23  C   UNL     1       7.035   4.153  13.168  0.00  0.00    +0.000 C 
ATOM     24  C   UNL     1       6.253   3.317  12.151  0.00  0.00    +0.000 C 
ATOM     25  C   UNL     1       7.678   5.356  12.477  0.00  0.00    +0.000 C 
ENDBRANCH  20  23
ENDBRANCH  16  18
ENDBRANCH  15  16
ENDBRANCH   6  15
TORSDOF 4
ENDMDL
