MODEL 1
REMARK VINA RESULT:      -9.1      0.000      0.000
REMARK  Name = 
REMARK  6 active torsions:
REMARK  status: ('A' for Active; 'I' for Inactive)
REMARK    1  A    between atoms: C_2  and  C_3
REMARK    2  A    between atoms: C_6  and  N_7
REMARK    3  A    between atoms: N_7  and  S_8
REMARK    4  A    between atoms: S_8  and  C_11
REMARK    5  A    between atoms: C_15  and  N_16
REMARK    6  A    between atoms: C_26  and  C_28
REMARK                            x       y       z     vdW  Elec       q    Type
REMARK                         _______ _______ _______ _____ _____    ______ ____
ROOT
ATOM      1  C   UNL     1       0.733   9.635  19.147  0.00  0.00    +0.000 A 
ATOM      2  C   UNL     1       0.801   9.060  20.423  0.00  0.00    +0.000 A 
ATOM      3  C   UNL     1       1.525   7.883  20.633  0.00  0.00    +0.000 A 
ATOM      4  C   UNL     1       2.278   7.343  19.595  0.00  0.00    +0.000 A 
ATOM      5  C   UNL     1       2.287   7.958  18.341  0.00  0.00    +0.000 A 
ATOM      6  C   UNL     1       1.511   9.101  18.115  0.00  0.00    +0.000 A 
ENDROOT
BRANCH   1   8
ATOM      7  O   UNL     1      -1.362  10.608  18.830  0.00  0.00    +0.000 OA
ATOM      8  C   UNL     1      -0.147  10.802  18.847  0.00  0.00    +0.000 C 
ATOM      9  N   UNL     1       0.425  12.062  18.651  0.00  0.00    +0.000 N 
ATOM     10  C   UNL     1      -0.441  13.215  18.306  0.00  0.00    +0.000 C 
ATOM     11  C   UNL     1      -0.156  14.459  19.184  0.00  0.00    +0.000 C 
ATOM     12  N   UNL     1       1.284  14.700  19.323  0.00  0.00    +0.000 N 
ATOM     13  C   UNL     1       1.840  15.947  19.042  0.00  0.00    +0.000 C 
ATOM     14  O   UNL     1       1.117  16.922  18.849  0.00  0.00    +0.000 OA
ATOM     15  C   UNL     1       2.021  13.537  19.800  0.00  0.00    +0.000 C 
ATOM     16  C   UNL     1       1.849  12.394  18.814  0.00  0.00    +0.000 C 
BRANCH  13  17
ATOM     17  C   UNL     1       3.295  16.072  19.012  0.00  0.00    +0.000 A 
ATOM     18  C   UNL     1       4.156  16.803  19.815  0.00  0.00    +0.000 A 
ATOM     19  C   UNL     1       5.472  16.539  19.361  0.00  0.00    +0.000 A 
ATOM     20  C   UNL     1       5.340  15.707  18.276  0.00  0.00    +0.000 A 
ATOM     21  O   UNL     1       4.030  15.446  18.036  0.00  0.00    +0.000 OA
ENDBRANCH  13  17
ENDBRANCH   1   8
BRANCH   4  22
ATOM     22  N   UNL     1       3.072   6.187  19.814  0.00  0.00    +0.000 N 
ATOM     23  H   UNL     1       3.269   5.916  20.777  0.00  0.00    +0.000 HD
BRANCH  22  24
ATOM     24  S   UNL     1       2.912   4.855  18.792  0.00  0.00    +0.000 S 
ATOM     25  O   UNL     1       3.098   3.678  19.612  0.00  0.00    +0.000 OA
ATOM     26  O   UNL     1       1.731   5.026  17.973  0.00  0.00    +0.000 OA
BRANCH  24  27
ATOM     27  C   UNL     1       4.350   5.015  17.768  0.00  0.00    +0.000 A 
ATOM     28  C   UNL     1       4.536   4.109  16.716  0.00  0.00    +0.000 A 
ATOM     29  C   UNL     1       5.737   4.115  16.008  0.00  0.00    +0.000 A 
ATOM     30  C   UNL     1       6.740   5.030  16.340  0.00  0.00    +0.000 A 
ATOM     31  C   UNL     1       6.524   5.959  17.372  0.00  0.00    +0.000 A 
ATOM     32  C   UNL     1       5.323   5.965  18.087  0.00  0.00    +0.000 A 
BRANCH  31  33
ATOM     33  N   UNL     1       7.588   6.906  17.732  0.00  0.00    +0.000 N 
ATOM     34  O   UNL     1       8.219   6.690  18.775  0.00  0.00    +0.000 OA
ATOM     35  O   UNL     1       7.779   7.871  16.977  0.00  0.00    +0.000 OA
ENDBRANCH  31  33
ENDBRANCH  24  27
ENDBRANCH  22  24
ENDBRANCH   4  22
TORSDOF 6
ENDMDL
MODEL 2
REMARK VINA RESULT:      -9.1      0.440      1.083
REMARK  Name = 
REMARK  6 active torsions:
REMARK  status: ('A' for Active; 'I' for Inactive)
REMARK    1  A    between atoms: C_2  and  C_3
REMARK    2  A    between atoms: C_6  and  N_7
REMARK    3  A    between atoms: N_7  and  S_8
REMARK    4  A    between atoms: S_8  and  C_11
REMARK    5  A    between atoms: C_15  and  N_16
REMARK    6  A    between atoms: C_26  and  C_28
REMARK                            x       y       z     vdW  Elec       q    Type
REMARK                         _______ _______ _______ _____ _____    ______ ____
ROOT
ATOM      1  C   UNL     1       0.728   9.654  19.083  0.00  0.00    +0.000 A 
ATOM      2  C   UNL     1       1.438   9.023  18.052  0.00  0.00    +0.000 A 
ATOM      3  C   UNL     1       2.263   7.929  18.325  0.00  0.00    +0.000 A 
ATOM      4  C   UNL     1       2.292   7.389  19.607  0.00  0.00    +0.000 A 
ATOM      5  C   UNL     1       1.520   7.958  20.624  0.00  0.00    +0.000 A 
ATOM      6  C   UNL     1       0.742   9.092  20.364  0.00  0.00    +0.000 A 
ENDROOT
BRANCH   1   8
ATOM      7  O   UNL     1      -1.269  10.848  18.955  0.00  0.00    +0.000 OA
ATOM      8  C   UNL     1      -0.044  10.911  18.863  0.00  0.00    +0.000 C 
ATOM      9  N   UNL     1       0.640  12.104  18.617  0.00  0.00    +0.000 N 
ATOM     10  C   UNL     1      -0.123  13.346  18.350  0.00  0.00    +0.000 C 
ATOM     11  C   UNL     1       0.371  14.544  19.198  0.00  0.00    +0.000 C 
ATOM     12  N   UNL     1       1.835  14.628  19.208  0.00  0.00    +0.000 N 
ATOM     13  C   UNL     1       2.495  15.811  18.878  0.00  0.00    +0.000 C 
ATOM     14  O   UNL     1       1.867  16.859  18.750  0.00  0.00    +0.000 OA
ATOM     15  C   UNL     1       2.483  13.389  19.618  0.00  0.00    +0.000 C 
ATOM     16  C   UNL     1       2.101  12.279  18.651  0.00  0.00    +0.000 C 
BRANCH  13  17
ATOM     17  C   UNL     1       3.947  15.779  18.718  0.00  0.00    +0.000 A 
ATOM     18  C   UNL     1       4.944  16.482  19.375  0.00  0.00    +0.000 A 
ATOM     19  C   UNL     1       6.182  16.043  18.842  0.00  0.00    +0.000 A 
ATOM     20  C   UNL     1       5.872  15.138  17.856  0.00  0.00    +0.000 A 
ATOM     21  O   UNL     1       4.526  14.997  17.749  0.00  0.00    +0.000 OA
ENDBRANCH  13  17
ENDBRANCH   1   8
BRANCH   4  22
ATOM     22  N   UNL     1       3.073   6.237  19.881  0.00  0.00    +0.000 N 
ATOM     23  H   UNL     1       3.303   6.033  20.853  0.00  0.00    +0.000 HD
BRANCH  22  24
ATOM     24  S   UNL     1       2.850   4.837  18.966  0.00  0.00    +0.000 S 
ATOM     25  O   UNL     1       3.076   3.720  19.856  0.00  0.00    +0.000 OA
ATOM     26  O   UNL     1       1.626   4.960  18.204  0.00  0.00    +0.000 OA
BRANCH  24  27
ATOM     27  C   UNL     1       4.230   4.913  17.856  0.00  0.00    +0.000 A 
ATOM     28  C   UNL     1       4.315   3.976  16.817  0.00  0.00    +0.000 A 
ATOM     29  C   UNL     1       5.470   3.915  16.040  0.00  0.00    +0.000 A 
ATOM     30  C   UNL     1       6.528   4.794  16.289  0.00  0.00    +0.000 A 
ATOM     31  C   UNL     1       6.413   5.755  17.307  0.00  0.00    +0.000 A 
ATOM     32  C   UNL     1       5.258   5.828  18.092  0.00  0.00    +0.000 A 
BRANCH  31  33
ATOM     33  N   UNL     1       7.533   6.665  17.580  0.00  0.00    +0.000 N 
ATOM     34  O   UNL     1       7.911   7.401  16.659  0.00  0.00    +0.000 OA
ATOM     35  O   UNL     1       8.040   6.631  18.711  0.00  0.00    +0.000 OA
ENDBRANCH  31  33
ENDBRANCH  24  27
ENDBRANCH  22  24
ENDBRANCH   4  22
TORSDOF 6
ENDMDL
MODEL 3
REMARK VINA RESULT:      -9.0      1.315      1.600
REMARK  Name = 
REMARK  6 active torsions:
REMARK  status: ('A' for Active; 'I' for Inactive)
REMARK    1  A    between atoms: C_2  and  C_3
REMARK    2  A    between atoms: C_6  and  N_7
REMARK    3  A    between atoms: N_7  and  S_8
REMARK    4  A    between atoms: S_8  and  C_11
REMARK    5  A    between atoms: C_15  and  N_16
REMARK    6  A    between atoms: C_26  and  C_28
REMARK                            x       y       z     vdW  Elec       q    Type
REMARK                         _______ _______ _______ _____ _____    ______ ____
ROOT
ATOM      1  C   UNL     1       0.755   9.493  19.254  0.00  0.00    +0.000 A 
ATOM      2  C   UNL     1       0.775   8.933  20.539  0.00  0.00    +0.000 A 
ATOM      3  C   UNL     1       1.502   7.768  20.794  0.00  0.00    +0.000 A 
ATOM      4  C   UNL     1       2.305   7.224  19.795  0.00  0.00    +0.000 A 
ATOM      5  C   UNL     1       2.360   7.825  18.536  0.00  0.00    +0.000 A 
ATOM      6  C   UNL     1       1.582   8.956  18.263  0.00  0.00    +0.000 A 
ENDROOT
BRANCH   1   8
ATOM      7  O   UNL     1      -1.339  10.449  18.888  0.00  0.00    +0.000 OA
ATOM      8  C   UNL     1      -0.125  10.646  18.903  0.00  0.00    +0.000 C 
ATOM      9  N   UNL     1       0.447  11.897  18.660  0.00  0.00    +0.000 N 
ATOM     10  C   UNL     1      -0.418  13.034  18.264  0.00  0.00    +0.000 C 
ATOM     11  C   UNL     1      -0.139  14.313  19.093  0.00  0.00    +0.000 C 
ATOM     12  N   UNL     1       1.299  14.561  19.230  0.00  0.00    +0.000 N 
ATOM     13  C   UNL     1       1.856  15.796  18.902  0.00  0.00    +0.000 C 
ATOM     14  O   UNL     1       1.133  16.762  18.666  0.00  0.00    +0.000 OA
ATOM     15  C   UNL     1       2.036  13.419  19.757  0.00  0.00    +0.000 C 
ATOM     16  C   UNL     1       1.870  12.237  18.817  0.00  0.00    +0.000 C 
BRANCH  13  17
ATOM     17  C   UNL     1       3.311  15.922  18.875  0.00  0.00    +0.000 A 
ATOM     18  C   UNL     1       4.171  16.646  19.685  0.00  0.00    +0.000 A 
ATOM     19  C   UNL     1       5.488  16.386  19.230  0.00  0.00    +0.000 A 
ATOM     20  C   UNL     1       5.357  15.563  18.138  0.00  0.00    +0.000 A 
ATOM     21  O   UNL     1       4.048  15.304  17.894  0.00  0.00    +0.000 OA
ENDBRANCH  13  17
ENDBRANCH   1   8
BRANCH   4  22
ATOM     22  N   UNL     1       3.102   6.080  20.062  0.00  0.00    +0.000 N 
ATOM     23  H   UNL     1       3.171   5.757  21.027  0.00  0.00    +0.000 HD
BRANCH  22  24
ATOM     24  S   UNL     1       3.137   4.807  18.955  0.00  0.00    +0.000 S 
ATOM     25  O   UNL     1       3.001   3.588  19.721  0.00  0.00    +0.000 OA
ATOM     26  O   UNL     1       2.248   5.112  17.856  0.00  0.00    +0.000 OA
BRANCH  24  27
ATOM     27  C   UNL     1       4.812   4.882  18.379  0.00  0.00    +0.000 A 
ATOM     28  C   UNL     1       5.813   5.311  19.260  0.00  0.00    +0.000 A 
ATOM     29  C   UNL     1       7.102   5.535  18.779  0.00  0.00    +0.000 A 
ATOM     30  C   UNL     1       7.393   5.316  17.429  0.00  0.00    +0.000 A 
ATOM     31  C   UNL     1       6.389   4.847  16.566  0.00  0.00    +0.000 A 
ATOM     32  C   UNL     1       5.093   4.616  17.036  0.00  0.00    +0.000 A 
BRANCH  31  33
ATOM     33  N   UNL     1       6.693   4.636  15.144  0.00  0.00    +0.000 N 
ATOM     34  O   UNL     1       7.630   5.280  14.656  0.00  0.00    +0.000 OA
ATOM     35  O   UNL     1       5.983   3.835  14.517  0.00  0.00    +0.000 OA
ENDBRANCH  31  33
ENDBRANCH  24  27
ENDBRANCH  22  24
ENDBRANCH   4  22
TORSDOF 6
ENDMDL
MODEL 4
REMARK VINA RESULT:      -8.9      1.356      1.825
REMARK  Name = 
REMARK  6 active torsions:
REMARK  status: ('A' for Active; 'I' for Inactive)
REMARK    1  A    between atoms: C_2  and  C_3
REMARK    2  A    between atoms: C_6  and  N_7
REMARK    3  A    between atoms: N_7  and  S_8
REMARK    4  A    between atoms: S_8  and  C_11
REMARK    5  A    between atoms: C_15  and  N_16
REMARK    6  A    between atoms: C_26  and  C_28
REMARK                            x       y       z     vdW  Elec       q    Type
REMARK                         _______ _______ _______ _____ _____    ______ ____
ROOT
ATOM      1  C   UNL     1       0.762   9.657  19.058  0.00  0.00    +0.000 A 
ATOM      2  C   UNL     1       1.525   9.025  18.066  0.00  0.00    +0.000 A 
ATOM      3  C   UNL     1       2.337   7.933  18.383  0.00  0.00    +0.000 A 
ATOM      4  C   UNL     1       2.301   7.397  19.667  0.00  0.00    +0.000 A 
ATOM      5  C   UNL     1       1.478   7.967  20.642  0.00  0.00    +0.000 A 
ATOM      6  C   UNL     1       0.712   9.099  20.340  0.00  0.00    +0.000 A 
ENDROOT
BRANCH   1   8
ATOM      7  O   UNL     1      -1.228  10.848  18.833  0.00  0.00    +0.000 OA
ATOM      8  C   UNL     1       0.000  10.912  18.796  0.00  0.00    +0.000 C 
ATOM      9  N   UNL     1       0.694  12.104  18.575  0.00  0.00    +0.000 N 
ATOM     10  C   UNL     1      -0.058  13.344  18.266  0.00  0.00    +0.000 C 
ATOM     11  C   UNL     1       0.397  14.548  19.129  0.00  0.00    +0.000 C 
ATOM     12  N   UNL     1       1.858  14.633  19.205  0.00  0.00    +0.000 N 
ATOM     13  C   UNL     1       2.532  15.814  18.899  0.00  0.00    +0.000 C 
ATOM     14  O   UNL     1       1.909  16.862  18.736  0.00  0.00    +0.000 OA
ATOM     15  C   UNL     1       2.488  13.397  19.651  0.00  0.00    +0.000 C 
ATOM     16  C   UNL     1       2.151  12.281  18.674  0.00  0.00    +0.000 C 
BRANCH  13  17
ATOM     17  C   UNL     1       3.989  15.783  18.805  0.00  0.00    +0.000 A 
ATOM     18  C   UNL     1       4.959  16.370  19.603  0.00  0.00    +0.000 A 
ATOM     19  C   UNL     1       6.218  15.992  19.072  0.00  0.00    +0.000 A 
ATOM     20  C   UNL     1       5.949  15.243  17.953  0.00  0.00    +0.000 A 
ATOM     21  O   UNL     1       4.609  15.139  17.763  0.00  0.00    +0.000 OA
ENDBRANCH  13  17
ENDBRANCH   1   8
BRANCH   4  22
ATOM     22  N   UNL     1       3.070   6.247  19.983  0.00  0.00    +0.000 N 
ATOM     23  H   UNL     1       3.137   5.968  20.962  0.00  0.00    +0.000 HD
BRANCH  22  24
ATOM     24  S   UNL     1       3.065   4.923  18.938  0.00  0.00    +0.000 S 
ATOM     25  O   UNL     1       2.913   3.744  19.762  0.00  0.00    +0.000 OA
ATOM     26  O   UNL     1       2.168   5.194  17.836  0.00  0.00    +0.000 OA
BRANCH  24  27
ATOM     27  C   UNL     1       4.733   4.934  18.339  0.00  0.00    +0.000 A 
ATOM     28  C   UNL     1       5.770   5.243  19.229  0.00  0.00    +0.000 A 
ATOM     29  C   UNL     1       7.065   5.419  18.742  0.00  0.00    +0.000 A 
ATOM     30  C   UNL     1       7.323   5.274  17.376  0.00  0.00    +0.000 A 
ATOM     31  C   UNL     1       6.282   4.925  16.501  0.00  0.00    +0.000 A 
ATOM     32  C   UNL     1       4.980   4.742  16.977  0.00  0.00    +0.000 A 
BRANCH  31  33
ATOM     33  N   UNL     1       6.553   4.792  15.063  0.00  0.00    +0.000 N 
ATOM     34  O   UNL     1       5.758   4.124  14.389  0.00  0.00    +0.000 OA
ATOM     35  O   UNL     1       7.567   5.347  14.615  0.00  0.00    +0.000 OA
ENDBRANCH  31  33
ENDBRANCH  24  27
ENDBRANCH  22  24
ENDBRANCH   4  22
TORSDOF 6
ENDMDL
MODEL 5
REMARK VINA RESULT:      -8.9      3.740      4.952
REMARK  Name = 
REMARK  6 active torsions:
REMARK  status: ('A' for Active; 'I' for Inactive)
REMARK    1  A    between atoms: C_2  and  C_3
REMARK    2  A    between atoms: C_6  and  N_7
REMARK    3  A    between atoms: N_7  and  S_8
REMARK    4  A    between atoms: S_8  and  C_11
REMARK    5  A    between atoms: C_15  and  N_16
REMARK    6  A    between atoms: C_26  and  C_28
REMARK                            x       y       z     vdW  Elec       q    Type
REMARK                         _______ _______ _______ _____ _____    ______ ____
ROOT
ATOM      1  C   UNL     1       1.614   7.680  20.683  0.00  0.00    +0.000 A 
ATOM      2  C   UNL     1       1.368   6.361  21.088  0.00  0.00    +0.000 A 
ATOM      3  C   UNL     1       1.619   5.294  20.222  0.00  0.00    +0.000 A 
ATOM      4  C   UNL     1       2.226   5.532  18.993  0.00  0.00    +0.000 A 
ATOM      5  C   UNL     1       2.555   6.836  18.615  0.00  0.00    +0.000 A 
ATOM      6  C   UNL     1       2.245   7.910  19.457  0.00  0.00    +0.000 A 
ENDROOT
BRANCH   1   8
ATOM      7  O   UNL     1       1.963   9.161  22.449  0.00  0.00    +0.000 OA
ATOM      8  C   UNL     1       1.222   8.854  21.516  0.00  0.00    +0.000 C 
ATOM      9  N   UNL     1       0.076   9.581  21.183  0.00  0.00    +0.000 N 
ATOM     10  C   UNL     1      -0.344  10.719  22.036  0.00  0.00    +0.000 C 
ATOM     11  C   UNL     1      -0.656  11.996  21.215  0.00  0.00    +0.000 C 
ATOM     12  N   UNL     1      -1.465  11.690  20.032  0.00  0.00    +0.000 N 
ATOM     13  C   UNL     1      -2.649  12.377  19.767  0.00  0.00    +0.000 C 
ATOM     14  O   UNL     1      -2.947  13.377  20.416  0.00  0.00    +0.000 OA
ATOM     15  C   UNL     1      -0.889  10.650  19.190  0.00  0.00    +0.000 C 
ATOM     16  C   UNL     1      -0.763   9.366  19.993  0.00  0.00    +0.000 C 
BRANCH  13  17
ATOM     17  C   UNL     1      -3.506  11.899  18.685  0.00  0.00    +0.000 A 
ATOM     18  C   UNL     1      -4.840  11.522  18.688  0.00  0.00    +0.000 A 
ATOM     19  C   UNL     1      -5.174  11.167  17.357  0.00  0.00    +0.000 A 
ATOM     20  C   UNL     1      -4.017  11.296  16.627  0.00  0.00    +0.000 A 
ATOM     21  O   UNL     1      -2.998  11.704  17.424  0.00  0.00    +0.000 OA
ENDBRANCH  13  17
ENDBRANCH   1   8
BRANCH   4  22
ATOM     22  N   UNL     1       2.549   4.450  18.133  0.00  0.00    +0.000 N 
ATOM     23  H   UNL     1       2.464   4.594  17.127  0.00  0.00    +0.000 HD
BRANCH  22  24
ATOM     24  S   UNL     1       3.823   3.418  18.528  0.00  0.00    +0.000 S 
ATOM     25  O   UNL     1       3.920   3.412  19.972  0.00  0.00    +0.000 OA
ATOM     26  O   UNL     1       3.689   2.190  17.775  0.00  0.00    +0.000 OA
BRANCH  24  27
ATOM     27  C   UNL     1       5.219   4.321  17.912  0.00  0.00    +0.000 A 
ATOM     28  C   UNL     1       5.841   5.258  18.747  0.00  0.00    +0.000 A 
ATOM     29  C   UNL     1       6.829   6.093  18.228  0.00  0.00    +0.000 A 
ATOM     30  C   UNL     1       7.203   5.981  16.885  0.00  0.00    +0.000 A 
ATOM     31  C   UNL     1       6.600   5.010  16.070  0.00  0.00    +0.000 A 
ATOM     32  C   UNL     1       5.609   4.165  16.580  0.00  0.00    +0.000 A 
BRANCH  31  33
ATOM     33  N   UNL     1       6.981   4.909  14.655  0.00  0.00    +0.000 N 
ATOM     34  O   UNL     1       7.948   5.580  14.272  0.00  0.00    +0.000 OA
ATOM     35  O   UNL     1       6.304   4.165  13.928  0.00  0.00    +0.000 OA
ENDBRANCH  31  33
ENDBRANCH  24  27
ENDBRANCH  22  24
ENDBRANCH   4  22
TORSDOF 6
ENDMDL
MODEL 6
REMARK VINA RESULT:      -8.8      1.096      1.284
REMARK  Name = 
REMARK  6 active torsions:
REMARK  status: ('A' for Active; 'I' for Inactive)
REMARK    1  A    between atoms: C_2  and  C_3
REMARK    2  A    between atoms: C_6  and  N_7
REMARK    3  A    between atoms: N_7  and  S_8
REMARK    4  A    between atoms: S_8  and  C_11
REMARK    5  A    between atoms: C_15  and  N_16
REMARK    6  A    between atoms: C_26  and  C_28
REMARK                            x       y       z     vdW  Elec       q    Type
REMARK                         _______ _______ _______ _____ _____    ______ ____
ROOT
ATOM      1  C   UNL     1       0.597   9.674  19.297  0.00  0.00    +0.000 A 
ATOM      2  C   UNL     1       0.645   9.204  20.616  0.00  0.00    +0.000 A 
ATOM      3  C   UNL     1       1.374   8.055  20.933  0.00  0.00    +0.000 A 
ATOM      4  C   UNL     1       2.151   7.439  19.956  0.00  0.00    +0.000 A 
ATOM      5  C   UNL     1       2.177   7.952  18.657  0.00  0.00    +0.000 A 
ATOM      6  C   UNL     1       1.398   9.066  18.325  0.00  0.00    +0.000 A 
ENDROOT
BRANCH   1   8
ATOM      7  O   UNL     1      -1.495  10.588  18.826  0.00  0.00    +0.000 OA
ATOM      8  C   UNL     1      -0.286  10.806  18.888  0.00  0.00    +0.000 C 
ATOM      9  N   UNL     1       0.275  12.062  18.645  0.00  0.00    +0.000 N 
ATOM     10  C   UNL     1      -0.591  13.177  18.192  0.00  0.00    +0.000 C 
ATOM     11  C   UNL     1      -0.367  14.475  19.008  0.00  0.00    +0.000 C 
ATOM     12  N   UNL     1       1.060  14.750  19.200  0.00  0.00    +0.000 N 
ATOM     13  C   UNL     1       1.609  15.988  18.871  0.00  0.00    +0.000 C 
ATOM     14  O   UNL     1       0.882  16.937  18.588  0.00  0.00    +0.000 OA
ATOM     15  C   UNL     1       1.792  13.631  19.778  0.00  0.00    +0.000 C 
ATOM     16  C   UNL     1       1.684  12.429  18.854  0.00  0.00    +0.000 C 
BRANCH  13  17
ATOM     17  C   UNL     1       3.062  16.138  18.902  0.00  0.00    +0.000 A 
ATOM     18  C   UNL     1       4.027  15.789  17.970  0.00  0.00    +0.000 A 
ATOM     19  C   UNL     1       5.280  16.185  18.501  0.00  0.00    +0.000 A 
ATOM     20  C   UNL     1       5.019  16.703  19.746  0.00  0.00    +0.000 A 
ATOM     21  O   UNL     1       3.689  16.648  20.012  0.00  0.00    +0.000 OA
ENDBRANCH  13  17
ENDBRANCH   1   8
BRANCH   4  22
ATOM     22  N   UNL     1       2.948   6.312  20.281  0.00  0.00    +0.000 N 
ATOM     23  H   UNL     1       3.323   6.246  21.227  0.00  0.00    +0.000 HD
BRANCH  22  24
ATOM     24  S   UNL     1       2.566   4.800  19.636  0.00  0.00    +0.000 S 
ATOM     25  O   UNL     1       2.854   3.825  20.665  0.00  0.00    +0.000 OA
ATOM     26  O   UNL     1       1.267   4.871  19.004  0.00  0.00    +0.000 OA
BRANCH  24  27
ATOM     27  C   UNL     1       3.807   4.623  18.382  0.00  0.00    +0.000 A 
ATOM     28  C   UNL     1       3.421   4.205  17.102  0.00  0.00    +0.000 A 
ATOM     29  C   UNL     1       4.397   3.901  16.154  0.00  0.00    +0.000 A 
ATOM     30  C   UNL     1       5.750   4.028  16.480  0.00  0.00    +0.000 A 
ATOM     31  C   UNL     1       6.122   4.487  17.754  0.00  0.00    +0.000 A 
ATOM     32  C   UNL     1       5.153   4.798  18.712  0.00  0.00    +0.000 A 
BRANCH  31  33
ATOM     33  N   UNL     1       7.546   4.601  18.100  0.00  0.00    +0.000 N 
ATOM     34  O   UNL     1       8.372   4.233  17.255  0.00  0.00    +0.000 OA
ATOM     35  O   UNL     1       7.832   5.048  19.221  0.00  0.00    +0.000 OA
ENDBRANCH  31  33
ENDBRANCH  24  27
ENDBRANCH  22  24
ENDBRANCH   4  22
TORSDOF 6
ENDMDL
MODEL 7
REMARK VINA RESULT:      -8.8      3.728      5.005
REMARK  Name = 
REMARK  6 active torsions:
REMARK  status: ('A' for Active; 'I' for Inactive)
REMARK    1  A    between atoms: C_2  and  C_3
REMARK    2  A    between atoms: C_6  and  N_7
REMARK    3  A    between atoms: N_7  and  S_8
REMARK    4  A    between atoms: S_8  and  C_11
REMARK    5  A    between atoms: C_15  and  N_16
REMARK    6  A    between atoms: C_26  and  C_28
REMARK                            x       y       z     vdW  Elec       q    Type
REMARK                         _______ _______ _______ _____ _____    ______ ____
ROOT
ATOM      1  C   UNL     1       1.589   7.603  20.488  0.00  0.00    +0.000 A 
ATOM      2  C   UNL     1       2.225   7.754  19.248  0.00  0.00    +0.000 A 
ATOM      3  C   UNL     1       2.644   6.635  18.524  0.00  0.00    +0.000 A 
ATOM      4  C   UNL     1       2.324   5.359  18.981  0.00  0.00    +0.000 A 
ATOM      5  C   UNL     1       1.614   5.200  20.172  0.00  0.00    +0.000 A 
ATOM      6  C   UNL     1       1.249   6.320  20.928  0.00  0.00    +0.000 A 
ENDROOT
BRANCH   1   8
ATOM      7  O   UNL     1       2.047   9.037  22.267  0.00  0.00    +0.000 OA
ATOM      8  C   UNL     1       1.260   8.768  21.360  0.00  0.00    +0.000 C 
ATOM      9  N   UNL     1       0.121   9.529  21.090  0.00  0.00    +0.000 N 
ATOM     10  C   UNL     1      -0.236  10.658  21.982  0.00  0.00    +0.000 C 
ATOM     11  C   UNL     1      -0.548  11.960  21.202  0.00  0.00    +0.000 C 
ATOM     12  N   UNL     1      -1.413  11.700  20.047  0.00  0.00    +0.000 N 
ATOM     13  C   UNL     1      -2.588  12.421  19.846  0.00  0.00    +0.000 C 
ATOM     14  O   UNL     1      -2.835  13.414  20.527  0.00  0.00    +0.000 OA
ATOM     15  C   UNL     1      -0.898  10.664  19.161  0.00  0.00    +0.000 C 
ATOM     16  C   UNL     1      -0.771   9.360  19.932  0.00  0.00    +0.000 C 
BRANCH  13  17
ATOM     17  C   UNL     1      -3.501  11.988  18.791  0.00  0.00    +0.000 A 
ATOM     18  C   UNL     1      -4.861  11.717  18.825  0.00  0.00    +0.000 A 
ATOM     19  C   UNL     1      -5.246  11.359  17.509  0.00  0.00    +0.000 A 
ATOM     20  C   UNL     1      -4.097  11.378  16.758  0.00  0.00    +0.000 A 
ATOM     21  O   UNL     1      -3.034  11.722  17.527  0.00  0.00    +0.000 OA
ENDBRANCH  13  17
ENDBRANCH   1   8
BRANCH   4  22
ATOM     22  N   UNL     1       2.685   4.217  18.220  0.00  0.00    +0.000 N 
ATOM     23  H   UNL     1       2.581   4.263  17.207  0.00  0.00    +0.000 HD
BRANCH  22  24
ATOM     24  S   UNL     1       4.009   3.282  18.689  0.00  0.00    +0.000 S 
ATOM     25  O   UNL     1       4.095   3.378  20.130  0.00  0.00    +0.000 OA
ATOM     26  O   UNL     1       3.944   2.001  18.019  0.00  0.00    +0.000 OA
BRANCH  24  27
ATOM     27  C   UNL     1       5.359   4.215  18.019  0.00  0.00    +0.000 A 
ATOM     28  C   UNL     1       5.996   5.163  18.830  0.00  0.00    +0.000 A 
ATOM     29  C   UNL     1       6.945   6.019  18.272  0.00  0.00    +0.000 A 
ATOM     30  C   UNL     1       7.266   5.917  16.916  0.00  0.00    +0.000 A 
ATOM     31  C   UNL     1       6.650   4.934  16.123  0.00  0.00    +0.000 A 
ATOM     32  C   UNL     1       5.699   4.068  16.671  0.00  0.00    +0.000 A 
BRANCH  31  33
ATOM     33  N   UNL     1       6.976   4.842  14.694  0.00  0.00    +0.000 N 
ATOM     34  O   UNL     1       6.353   4.015  14.016  0.00  0.00    +0.000 OA
ATOM     35  O   UNL     1       7.863   5.590  14.256  0.00  0.00    +0.000 OA
ENDBRANCH  31  33
ENDBRANCH  24  27
ENDBRANCH  22  24
ENDBRANCH   4  22
TORSDOF 6
ENDMDL
MODEL 8
REMARK VINA RESULT:      -8.7      3.518      4.804
REMARK  Name = 
REMARK  6 active torsions:
REMARK  status: ('A' for Active; 'I' for Inactive)
REMARK    1  A    between atoms: C_2  and  C_3
REMARK    2  A    between atoms: C_6  and  N_7
REMARK    3  A    between atoms: N_7  and  S_8
REMARK    4  A    between atoms: S_8  and  C_11
REMARK    5  A    between atoms: C_15  and  N_16
REMARK    6  A    between atoms: C_26  and  C_28
REMARK                            x       y       z     vdW  Elec       q    Type
REMARK                         _______ _______ _______ _____ _____    ______ ____
ROOT
ATOM      1  C   UNL     1       1.617   7.402  20.593  0.00  0.00    +0.000 A 
ATOM      2  C   UNL     1       1.286   6.123  21.060  0.00  0.00    +0.000 A 
ATOM      3  C   UNL     1       1.430   5.006  20.233  0.00  0.00    +0.000 A 
ATOM      4  C   UNL     1       2.014   5.149  18.977  0.00  0.00    +0.000 A 
ATOM      5  C   UNL     1       2.426   6.408  18.536  0.00  0.00    +0.000 A 
ATOM      6  C   UNL     1       2.224   7.536  19.340  0.00  0.00    +0.000 A 
ENDROOT
BRANCH   1   8
ATOM      7  O   UNL     1       2.144   8.936  22.267  0.00  0.00    +0.000 OA
ATOM      8  C   UNL     1       1.339   8.635  21.386  0.00  0.00    +0.000 C 
ATOM      9  N   UNL     1       0.225   9.417  21.074  0.00  0.00    +0.000 N 
ATOM     10  C   UNL     1      -0.082  10.616  21.891  0.00  0.00    +0.000 C 
ATOM     11  C   UNL     1      -0.356  11.872  21.026  0.00  0.00    +0.000 C 
ATOM     12  N   UNL     1      -1.242  11.566  19.899  0.00  0.00    +0.000 N 
ATOM     13  C   UNL     1      -2.393  12.314  19.658  0.00  0.00    +0.000 C 
ATOM     14  O   UNL     1      -2.597  13.359  20.272  0.00  0.00    +0.000 OA
ATOM     15  C   UNL     1      -0.773  10.454  19.081  0.00  0.00    +0.000 C 
ATOM     16  C   UNL     1      -0.685   9.202  19.938  0.00  0.00    +0.000 C 
BRANCH  13  17
ATOM     17  C   UNL     1      -3.332  11.843  18.643  0.00  0.00    +0.000 A 
ATOM     18  C   UNL     1      -3.131  11.503  17.314  0.00  0.00    +0.000 A 
ATOM     19  C   UNL     1      -4.384  11.086  16.798  0.00  0.00    +0.000 A 
ATOM     20  C   UNL     1      -5.288  11.245  17.820  0.00  0.00    +0.000 A 
ATOM     21  O   UNL     1      -4.671  11.733  18.926  0.00  0.00    +0.000 OA
ENDBRANCH  13  17
ENDBRANCH   1   8
BRANCH   4  22
ATOM     22  N   UNL     1       2.228   4.012  18.155  0.00  0.00    +0.000 N 
ATOM     23  H   UNL     1       2.046   4.102  17.155  0.00  0.00    +0.000 HD
BRANCH  22  24
ATOM     24  S   UNL     1       3.515   2.972  18.483  0.00  0.00    +0.000 S 
ATOM     25  O   UNL     1       3.646   2.915  19.922  0.00  0.00    +0.000 OA
ATOM     26  O   UNL     1       3.366   1.772  17.690  0.00  0.00    +0.000 OA
BRANCH  24  27
ATOM     27  C   UNL     1       4.892   3.903  17.866  0.00  0.00    +0.000 A 
ATOM     28  C   UNL     1       5.215   3.814  16.506  0.00  0.00    +0.000 A 
ATOM     29  C   UNL     1       6.388   4.403  16.038  0.00  0.00    +0.000 A 
ATOM     30  C   UNL     1       7.226   5.090  16.921  0.00  0.00    +0.000 A 
ATOM     31  C   UNL     1       6.870   5.206  18.275  0.00  0.00    +0.000 A 
ATOM     32  C   UNL     1       5.694   4.621  18.756  0.00  0.00    +0.000 A 
BRANCH  31  33
ATOM     33  N   UNL     1       7.762   5.911  19.204  0.00  0.00    +0.000 N 
ATOM     34  O   UNL     1       7.896   5.439  20.341  0.00  0.00    +0.000 OA
ATOM     35  O   UNL     1       8.317   6.944  18.798  0.00  0.00    +0.000 OA
ENDBRANCH  31  33
ENDBRANCH  24  27
ENDBRANCH  22  24
ENDBRANCH   4  22
TORSDOF 6
ENDMDL
MODEL 9
REMARK VINA RESULT:      -8.6      1.061      1.105
REMARK  Name = 
REMARK  6 active torsions:
REMARK  status: ('A' for Active; 'I' for Inactive)
REMARK    1  A    between atoms: C_2  and  C_3
REMARK    2  A    between atoms: C_6  and  N_7
REMARK    3  A    between atoms: N_7  and  S_8
REMARK    4  A    between atoms: S_8  and  C_11
REMARK    5  A    between atoms: C_15  and  N_16
REMARK    6  A    between atoms: C_26  and  C_28
REMARK                            x       y       z     vdW  Elec       q    Type
REMARK                         _______ _______ _______ _____ _____    ______ ____
ROOT
ATOM      1  C   UNL     1       0.538   9.833  19.473  0.00  0.00    +0.000 A 
ATOM      2  C   UNL     1       0.476   9.291  20.764  0.00  0.00    +0.000 A 
ATOM      3  C   UNL     1       1.137   8.098  21.066  0.00  0.00    +0.000 A 
ATOM      4  C   UNL     1       1.958   7.504  20.111  0.00  0.00    +0.000 A 
ATOM      5  C   UNL     1       2.096   8.084  18.848  0.00  0.00    +0.000 A 
ATOM      6  C   UNL     1       1.383   9.245  18.526  0.00  0.00    +0.000 A 
ENDROOT
BRANCH   1   8
ATOM      7  O   UNL     1      -1.495  10.901  19.080  0.00  0.00    +0.000 OA
ATOM      8  C   UNL     1      -0.271  11.019  19.069  0.00  0.00    +0.000 C 
ATOM      9  N   UNL     1       0.376  12.216  18.750  0.00  0.00    +0.000 N 
ATOM     10  C   UNL     1      -0.421  13.383  18.301  0.00  0.00    +0.000 C 
ATOM     11  C   UNL     1      -0.047  14.685  19.054  0.00  0.00    +0.000 C 
ATOM     12  N   UNL     1       1.406  14.846  19.160  0.00  0.00    +0.000 N 
ATOM     13  C   UNL     1       2.035  16.023  18.756  0.00  0.00    +0.000 C 
ATOM     14  O   UNL     1       1.372  17.019  18.476  0.00  0.00    +0.000 OA
ATOM     15  C   UNL     1       2.076  13.690  19.741  0.00  0.00    +0.000 C 
ATOM     16  C   UNL     1       1.820  12.471  18.870  0.00  0.00    +0.000 C 
BRANCH  13  17
ATOM     17  C   UNL     1       3.495  16.052  18.705  0.00  0.00    +0.000 A 
ATOM     18  C   UNL     1       4.413  16.746  19.478  0.00  0.00    +0.000 A 
ATOM     19  C   UNL     1       5.703  16.385  19.013  0.00  0.00    +0.000 A 
ATOM     20  C   UNL     1       5.501  15.536  17.952  0.00  0.00    +0.000 A 
ATOM     21  O   UNL     1       4.174  15.355  17.736  0.00  0.00    +0.000 OA
ENDBRANCH  13  17
ENDBRANCH   1   8
BRANCH   4  22
ATOM     22  N   UNL     1       2.689   6.329  20.427  0.00  0.00    +0.000 N 
ATOM     23  H   UNL     1       2.673   5.999  21.392  0.00  0.00    +0.000 HD
BRANCH  22  24
ATOM     24  S   UNL     1       2.759   5.062  19.315  0.00  0.00    +0.000 S 
ATOM     25  O   UNL     1       3.059   3.865  20.070  0.00  0.00    +0.000 OA
ATOM     26  O   UNL     1       1.609   5.136  18.441  0.00  0.00    +0.000 OA
BRANCH  24  27
ATOM     27  C   UNL     1       4.213   5.479  18.390  0.00  0.00    +0.000 A 
ATOM     28  C   UNL     1       4.067   6.092  17.139  0.00  0.00    +0.000 A 
ATOM     29  C   UNL     1       5.186   6.275  16.328  0.00  0.00    +0.000 A 
ATOM     30  C   UNL     1       6.445   5.860  16.771  0.00  0.00    +0.000 A 
ATOM     31  C   UNL     1       6.583   5.282  18.044  0.00  0.00    +0.000 A 
ATOM     32  C   UNL     1       5.469   5.097  18.868  0.00  0.00    +0.000 A 
BRANCH  31  33
ATOM     33  N   UNL     1       7.904   4.829  18.498  0.00  0.00    +0.000 N 
ATOM     34  O   UNL     1       8.312   5.252  19.588  0.00  0.00    +0.000 OA
ATOM     35  O   UNL     1       8.536   4.061  17.758  0.00  0.00    +0.000 OA
ENDBRANCH  31  33
ENDBRANCH  24  27
ENDBRANCH  22  24
ENDBRANCH   4  22
TORSDOF 6
ENDMDL
