MODEL 1
REMARK VINA RESULT:      -7.8      0.000      0.000
REMARK  Name = 
REMARK  10 active torsions:
REMARK  status: ('A' for Active; 'I' for Inactive)
REMARK    1  A    between atoms: C_1  and  C_2
REMARK    2  A    between atoms: C_2  and  C_22
REMARK    3  A    between atoms: N_3  and  N_4
REMARK    4  A    between atoms: N_4  and  C_5
REMARK    5  A    between atoms: C_5  and  N_7
REMARK    6  A    between atoms: N_7  and  C_8
REMARK    7  A    between atoms: N_7  and  C_15
REMARK    8  A    between atoms: C_8  and  C_9
REMARK    9  A    between atoms: C_15  and  C_16
REMARK   10  A    between atoms: C_25  and  N_26
REMARK                            x       y       z     vdW  Elec       q    Type
REMARK                         _______ _______ _______ _____ _____    ______ ____
ROOT
ATOM      1  C   UNL     1       2.095   7.712  18.826  0.00  0.00    +0.000 C 
ATOM      2  S   UNL     1       1.732   8.103  20.428  0.00  0.00    +0.000 S 
ENDROOT
BRANCH   1   3
ATOM      3  N   UNL     1       1.928   8.648  17.785  0.00  0.00    +0.000 N 
ATOM      4  H   UNL     1       1.906   8.321  16.832  0.00  0.00    +0.000 HD
BRANCH   3   7
ATOM      5  C   UNL     1       1.874  12.207  18.715  0.00  0.00    +0.000 C 
ATOM      6  C   UNL     1       1.234  10.855  18.392  0.00  0.00    +0.000 C 
ATOM      7  N   UNL     1       2.109   9.959  18.054  0.00  0.00    +0.000 NA
BRANCH   6   8
ATOM      8  C   UNL     1      -0.250  10.824  18.564  0.00  0.00    +0.000 A 
ATOM      9  C   UNL     1      -1.001  10.068  17.629  0.00  0.00    +0.000 A 
ATOM     10  C   UNL     1      -2.368  10.286  17.441  0.00  0.00    +0.000 A 
ATOM     11  C   UNL     1      -3.013  11.236  18.226  0.00  0.00    +0.000 A 
ATOM     12  C   UNL     1      -2.319  11.879  19.274  0.00  0.00    +0.000 A 
ATOM     13  C   UNL     1      -0.937  11.676  19.431  0.00  0.00    +0.000 A 
BRANCH  11  14
ATOM     14  N   UNL     1      -4.383  11.647  17.889  0.00  0.00    +0.000 N 
ATOM     15  O   UNL     1      -5.137  11.942  18.824  0.00  0.00    +0.000 OA
ATOM     16  O   UNL     1      -4.708  11.641  16.694  0.00  0.00    +0.000 OA
ENDBRANCH  11  14
ENDBRANCH   6   8
ENDBRANCH   3   7
ENDBRANCH   1   3
BRANCH   1  17
ATOM     17  N   UNL     1       2.592   6.461  18.428  0.00  0.00    +0.000 N 
BRANCH  17  18
ATOM     18  C   UNL     1       1.719   5.403  17.898  0.00  0.00    +0.000 C 
BRANCH  18  19
ATOM     19  C   UNL     1       1.616   4.225  18.837  0.00  0.00    +0.000 A 
ATOM     20  C   UNL     1       1.264   4.415  20.187  0.00  0.00    +0.000 A 
ATOM     21  C   UNL     1       1.334   3.351  21.089  0.00  0.00    +0.000 A 
ATOM     22  C   UNL     1       1.732   2.088  20.652  0.00  0.00    +0.000 A 
ATOM     23  C   UNL     1       2.014   1.875  19.307  0.00  0.00    +0.000 A 
ATOM     24  C   UNL     1       1.938   2.930  18.405  0.00  0.00    +0.000 A 
ENDBRANCH  18  19
ENDBRANCH  17  18
BRANCH  17  25
ATOM     25  C   UNL     1       4.038   6.124  18.509  0.00  0.00    +0.000 C 
BRANCH  25  26
ATOM     26  C   UNL     1       4.718   5.594  17.269  0.00  0.00    +0.000 A 
ATOM     27  C   UNL     1       4.993   6.385  16.149  0.00  0.00    +0.000 A 
ATOM     28  C   UNL     1       5.583   5.822  15.011  0.00  0.00    +0.000 A 
ATOM     29  C   UNL     1       5.921   4.470  14.989  0.00  0.00    +0.000 A 
ATOM     30  C   UNL     1       5.716   3.686  16.120  0.00  0.00    +0.000 A 
ATOM     31  C   UNL     1       5.131   4.249  17.255  0.00  0.00    +0.000 A 
ENDBRANCH  25  26
ENDBRANCH  17  25
ENDBRANCH   1  17
TORSDOF 9
ENDMDL
MODEL 2
REMARK VINA RESULT:      -7.7      0.989      1.464
REMARK  Name = 
REMARK  10 active torsions:
REMARK  status: ('A' for Active; 'I' for Inactive)
REMARK    1  A    between atoms: C_1  and  C_2
REMARK    2  A    between atoms: C_2  and  C_22
REMARK    3  A    between atoms: N_3  and  N_4
REMARK    4  A    between atoms: N_4  and  C_5
REMARK    5  A    between atoms: C_5  and  N_7
REMARK    6  A    between atoms: N_7  and  C_8
REMARK    7  A    between atoms: N_7  and  C_15
REMARK    8  A    between atoms: C_8  and  C_9
REMARK    9  A    between atoms: C_15  and  C_16
REMARK   10  A    between atoms: C_25  and  N_26
REMARK                            x       y       z     vdW  Elec       q    Type
REMARK                         _______ _______ _______ _____ _____    ______ ____
ROOT
ATOM      1  C   UNL     1       2.267   7.612  19.080  0.00  0.00    +0.000 C 
ATOM      2  S   UNL     1       1.605   7.589  20.633  0.00  0.00    +0.000 S 
ENDROOT
BRANCH   1   3
ATOM      3  N   UNL     1       1.771   8.475  18.082  0.00  0.00    +0.000 N 
ATOM      4  H   UNL     1       1.481   8.087  17.199  0.00  0.00    +0.000 HD
BRANCH   3   7
ATOM      5  C   UNL     1       1.794  12.115  18.620  0.00  0.00    +0.000 C 
ATOM      6  C   UNL     1       1.124  10.750  18.439  0.00  0.00    +0.000 C 
ATOM      7  N   UNL     1       1.981   9.803  18.209  0.00  0.00    +0.000 NA
BRANCH   6   8
ATOM      8  C   UNL     1      -0.361  10.771  18.599  0.00  0.00    +0.000 A 
ATOM      9  C   UNL     1      -1.131  10.061  17.643  0.00  0.00    +0.000 A 
ATOM     10  C   UNL     1      -2.487  10.334  17.448  0.00  0.00    +0.000 A 
ATOM     11  C   UNL     1      -3.104  11.292  18.246  0.00  0.00    +0.000 A 
ATOM     12  C   UNL     1      -2.395  11.890  19.311  0.00  0.00    +0.000 A 
ATOM     13  C   UNL     1      -1.023  11.633  19.476  0.00  0.00    +0.000 A 
BRANCH  11  14
ATOM     14  N   UNL     1      -4.454  11.760  17.905  0.00  0.00    +0.000 N 
ATOM     15  O   UNL     1      -4.815  11.655  16.727  0.00  0.00    +0.000 OA
ATOM     16  O   UNL     1      -5.134  12.262  18.810  0.00  0.00    +0.000 OA
ENDBRANCH  11  14
ENDBRANCH   6   8
ENDBRANCH   3   7
ENDBRANCH   1   3
BRANCH   1  17
ATOM     17  N   UNL     1       3.344   6.801  18.684  0.00  0.00    +0.000 N 
BRANCH  17  18
ATOM     18  C   UNL     1       3.779   5.637  19.470  0.00  0.00    +0.000 C 
BRANCH  18  19
ATOM     19  C   UNL     1       3.150   4.354  18.984  0.00  0.00    +0.000 A 
ATOM     20  C   UNL     1       1.770   4.293  18.711  0.00  0.00    +0.000 A 
ATOM     21  C   UNL     1       1.162   3.068  18.426  0.00  0.00    +0.000 A 
ATOM     22  C   UNL     1       1.924   1.900  18.388  0.00  0.00    +0.000 A 
ATOM     23  C   UNL     1       3.299   1.961  18.588  0.00  0.00    +0.000 A 
ATOM     24  C   UNL     1       3.908   3.180  18.864  0.00  0.00    +0.000 A 
ENDBRANCH  18  19
ENDBRANCH  17  18
BRANCH  17  25
ATOM     25  C   UNL     1       4.111   7.063  17.438  0.00  0.00    +0.000 C 
BRANCH  25  26
ATOM     26  C   UNL     1       5.205   6.094  17.057  0.00  0.00    +0.000 A 
ATOM     27  C   UNL     1       6.427   6.013  17.733  0.00  0.00    +0.000 A 
ATOM     28  C   UNL     1       7.419   5.125  17.300  0.00  0.00    +0.000 A 
ATOM     29  C   UNL     1       7.193   4.298  16.201  0.00  0.00    +0.000 A 
ATOM     30  C   UNL     1       5.958   4.319  15.560  0.00  0.00    +0.000 A 
ATOM     31  C   UNL     1       4.968   5.202  15.995  0.00  0.00    +0.000 A 
ENDBRANCH  25  26
ENDBRANCH  17  25
ENDBRANCH   1  17
TORSDOF 9
ENDMDL
MODEL 3
REMARK VINA RESULT:      -7.7      0.927      1.397
REMARK  Name = 
REMARK  10 active torsions:
REMARK  status: ('A' for Active; 'I' for Inactive)
REMARK    1  A    between atoms: C_1  and  C_2
REMARK    2  A    between atoms: C_2  and  C_22
REMARK    3  A    between atoms: N_3  and  N_4
REMARK    4  A    between atoms: N_4  and  C_5
REMARK    5  A    between atoms: C_5  and  N_7
REMARK    6  A    between atoms: N_7  and  C_8
REMARK    7  A    between atoms: N_7  and  C_15
REMARK    8  A    between atoms: C_8  and  C_9
REMARK    9  A    between atoms: C_15  and  C_16
REMARK   10  A    between atoms: C_25  and  N_26
REMARK                            x       y       z     vdW  Elec       q    Type
REMARK                         _______ _______ _______ _____ _____    ______ ____
ROOT
ATOM      1  C   UNL     1       2.132   7.844  19.047  0.00  0.00    +0.000 C 
ATOM      2  S   UNL     1       1.528   8.202  20.582  0.00  0.00    +0.000 S 
ENDROOT
BRANCH   1   3
ATOM      3  N   UNL     1       1.919   8.707  17.953  0.00  0.00    +0.000 N 
ATOM      4  H   UNL     1       1.885   8.321  17.023  0.00  0.00    +0.000 HD
BRANCH   3   7
ATOM      5  C   UNL     1       1.787  12.319  18.643  0.00  0.00    +0.000 C 
ATOM      6  C   UNL     1       1.176  10.936  18.407  0.00  0.00    +0.000 C 
ATOM      7  N   UNL     1       2.072  10.037  18.135  0.00  0.00    +0.000 NA
BRANCH   6   8
ATOM      8  C   UNL     1      -0.308  10.885  18.571  0.00  0.00    +0.000 A 
ATOM      9  C   UNL     1      -1.039  10.077  17.664  0.00  0.00    +0.000 A 
ATOM     10  C   UNL     1      -2.409  10.264  17.458  0.00  0.00    +0.000 A 
ATOM     11  C   UNL     1      -3.076  11.234  18.198  0.00  0.00    +0.000 A 
ATOM     12  C   UNL     1      -2.400  11.934  19.222  0.00  0.00    +0.000 A 
ATOM     13  C   UNL     1      -1.016  11.762  19.396  0.00  0.00    +0.000 A 
BRANCH  11  14
ATOM     14  N   UNL     1      -4.450  11.606  17.835  0.00  0.00    +0.000 N 
ATOM     15  O   UNL     1      -4.744  11.604  16.634  0.00  0.00    +0.000 OA
ATOM     16  O   UNL     1      -5.218  11.932  18.749  0.00  0.00    +0.000 OA
ENDBRANCH  11  14
ENDBRANCH   6   8
ENDBRANCH   3   7
ENDBRANCH   1   3
BRANCH   1  17
ATOM     17  N   UNL     1       2.886   6.694  18.759  0.00  0.00    +0.000 N 
BRANCH  17  18
ATOM     18  C   UNL     1       3.397   5.807  19.814  0.00  0.00    +0.000 C 
BRANCH  18  19
ATOM     19  C   UNL     1       2.732   4.451  19.791  0.00  0.00    +0.000 A 
ATOM     20  C   UNL     1       3.459   3.304  19.420  0.00  0.00    +0.000 A 
ATOM     21  C   UNL     1       2.804   2.084  19.236  0.00  0.00    +0.000 A 
ATOM     22  C   UNL     1       1.427   1.991  19.440  0.00  0.00    +0.000 A 
ATOM     23  C   UNL     1       0.713   3.103  19.874  0.00  0.00    +0.000 A 
ATOM     24  C   UNL     1       1.363   4.316  20.065  0.00  0.00    +0.000 A 
ENDBRANCH  18  19
ENDBRANCH  17  18
BRANCH  17  25
ATOM     25  C   UNL     1       3.211   6.294  17.365  0.00  0.00    +0.000 C 
BRANCH  25  26
ATOM     26  C   UNL     1       4.628   5.873  17.056  0.00  0.00    +0.000 A 
ATOM     27  C   UNL     1       5.744   6.657  17.366  0.00  0.00    +0.000 A 
ATOM     28  C   UNL     1       7.030   6.231  17.009  0.00  0.00    +0.000 A 
ATOM     29  C   UNL     1       7.214   5.012  16.359  0.00  0.00    +0.000 A 
ATOM     30  C   UNL     1       6.120   4.191  16.105  0.00  0.00    +0.000 A 
ATOM     31  C   UNL     1       4.839   4.614  16.463  0.00  0.00    +0.000 A 
ENDBRANCH  25  26
ENDBRANCH  17  25
ENDBRANCH   1  17
TORSDOF 9
ENDMDL
MODEL 4
REMARK VINA RESULT:      -7.7      1.342      1.705
REMARK  Name = 
REMARK  10 active torsions:
REMARK  status: ('A' for Active; 'I' for Inactive)
REMARK    1  A    between atoms: C_1  and  C_2
REMARK    2  A    between atoms: C_2  and  C_22
REMARK    3  A    between atoms: N_3  and  N_4
REMARK    4  A    between atoms: N_4  and  C_5
REMARK    5  A    between atoms: C_5  and  N_7
REMARK    6  A    between atoms: N_7  and  C_8
REMARK    7  A    between atoms: N_7  and  C_15
REMARK    8  A    between atoms: C_8  and  C_9
REMARK    9  A    between atoms: C_15  and  C_16
REMARK   10  A    between atoms: C_25  and  N_26
REMARK                            x       y       z     vdW  Elec       q    Type
REMARK                         _______ _______ _______ _____ _____    ______ ____
ROOT
ATOM      1  C   UNL     1       2.218   7.797  18.948  0.00  0.00    +0.000 C 
ATOM      2  S   UNL     1       1.651   7.947  20.531  0.00  0.00    +0.000 S 
ENDROOT
BRANCH   1   3
ATOM      3  N   UNL     1       1.756   8.641  17.919  0.00  0.00    +0.000 N 
ATOM      4  H   UNL     1       1.382   8.230  17.078  0.00  0.00    +0.000 HD
BRANCH   3   7
ATOM      5  C   UNL     1       2.240  12.264  18.344  0.00  0.00    +0.000 C 
ATOM      6  C   UNL     1       1.440  10.961  18.412  0.00  0.00    +0.000 C 
ATOM      7  N   UNL     1       2.102   9.947  17.945  0.00  0.00    +0.000 NA
BRANCH   6   8
ATOM      8  C   UNL     1       0.087  11.104  19.029  0.00  0.00    +0.000 A 
ATOM      9  C   UNL     1      -1.037  11.026  18.168  0.00  0.00    +0.000 A 
ATOM     10  C   UNL     1      -2.282  11.536  18.542  0.00  0.00    +0.000 A 
ATOM     11  C   UNL     1      -2.430  12.091  19.809  0.00  0.00    +0.000 A 
ATOM     12  C   UNL     1      -1.369  12.029  20.739  0.00  0.00    +0.000 A 
ATOM     13  C   UNL     1      -0.112  11.544  20.340  0.00  0.00    +0.000 A 
BRANCH  11  14
ATOM     14  N   UNL     1      -3.652  12.840  20.135  0.00  0.00    +0.000 N 
ATOM     15  O   UNL     1      -3.526  13.879  20.793  0.00  0.00    +0.000 OA
ATOM     16  O   UNL     1      -4.733  12.367  19.760  0.00  0.00    +0.000 OA
ENDBRANCH  11  14
ENDBRANCH   6   8
ENDBRANCH   3   7
ENDBRANCH   1   3
BRANCH   1  17
ATOM     17  N   UNL     1       3.180   6.851  18.556  0.00  0.00    +0.000 N 
BRANCH  17  18
ATOM     18  C   UNL     1       3.517   5.685  19.385  0.00  0.00    +0.000 C 
BRANCH  18  19
ATOM     19  C   UNL     1       2.587   4.521  19.137  0.00  0.00    +0.000 A 
ATOM     20  C   UNL     1       1.463   4.316  19.959  0.00  0.00    +0.000 A 
ATOM     21  C   UNL     1       0.703   3.151  19.835  0.00  0.00    +0.000 A 
ATOM     22  C   UNL     1       1.041   2.194  18.878  0.00  0.00    +0.000 A 
ATOM     23  C   UNL     1       2.108   2.420  18.016  0.00  0.00    +0.000 A 
ATOM     24  C   UNL     1       2.861   3.582  18.132  0.00  0.00    +0.000 A 
ENDBRANCH  18  19
ENDBRANCH  17  18
BRANCH  17  25
ATOM     25  C   UNL     1       3.917   6.964  17.270  0.00  0.00    +0.000 C 
BRANCH  25  26
ATOM     26  C   UNL     1       5.168   6.137  17.090  0.00  0.00    +0.000 A 
ATOM     27  C   UNL     1       5.288   5.132  16.123  0.00  0.00    +0.000 A 
ATOM     28  C   UNL     1       6.458   4.368  16.038  0.00  0.00    +0.000 A 
ATOM     29  C   UNL     1       7.524   4.611  16.903  0.00  0.00    +0.000 A 
ATOM     30  C   UNL     1       7.443   5.651  17.825  0.00  0.00    +0.000 A 
ATOM     31  C   UNL     1       6.279   6.415  17.907  0.00  0.00    +0.000 A 
ENDBRANCH  25  26
ENDBRANCH  17  25
ENDBRANCH   1  17
TORSDOF 9
ENDMDL
MODEL 5
REMARK VINA RESULT:      -7.7      1.372      1.957
REMARK  Name = 
REMARK  10 active torsions:
REMARK  status: ('A' for Active; 'I' for Inactive)
REMARK    1  A    between atoms: C_1  and  C_2
REMARK    2  A    between atoms: C_2  and  C_22
REMARK    3  A    between atoms: N_3  and  N_4
REMARK    4  A    between atoms: N_4  and  C_5
REMARK    5  A    between atoms: C_5  and  N_7
REMARK    6  A    between atoms: N_7  and  C_8
REMARK    7  A    between atoms: N_7  and  C_15
REMARK    8  A    between atoms: C_8  and  C_9
REMARK    9  A    between atoms: C_15  and  C_16
REMARK   10  A    between atoms: C_25  and  N_26
REMARK                            x       y       z     vdW  Elec       q    Type
REMARK                         _______ _______ _______ _____ _____    ______ ____
ROOT
ATOM      1  C   UNL     1       2.105   7.546  19.403  0.00  0.00    +0.000 C 
ATOM      2  S   UNL     1       1.477   8.102  20.869  0.00  0.00    +0.000 S 
ENDROOT
BRANCH   1   3
ATOM      3  N   UNL     1       1.929   8.270  18.207  0.00  0.00    +0.000 N 
ATOM      4  H   UNL     1       1.880   7.770  17.334  0.00  0.00    +0.000 HD
BRANCH   3   7
ATOM      5  C   UNL     1       1.950  11.943  18.429  0.00  0.00    +0.000 C 
ATOM      6  C   UNL     1       1.281  10.568  18.369  0.00  0.00    +0.000 C 
ATOM      7  N   UNL     1       2.138   9.605  18.218  0.00  0.00    +0.000 NA
BRANCH   6   8
ATOM      8  C   UNL     1      -0.203  10.601  18.532  0.00  0.00    +0.000 A 
ATOM      9  C   UNL     1      -0.982   9.902  17.575  0.00  0.00    +0.000 A 
ATOM     10  C   UNL     1      -2.336  10.187  17.384  0.00  0.00    +0.000 A 
ATOM     11  C   UNL     1      -2.942  11.147  18.187  0.00  0.00    +0.000 A 
ATOM     12  C   UNL     1      -2.227  11.735  19.253  0.00  0.00    +0.000 A 
ATOM     13  C   UNL     1      -0.856  11.465  19.414  0.00  0.00    +0.000 A 
BRANCH  11  14
ATOM     14  N   UNL     1      -4.290  11.629  17.851  0.00  0.00    +0.000 N 
ATOM     15  O   UNL     1      -4.884  12.301  18.702  0.00  0.00    +0.000 OA
ATOM     16  O   UNL     1      -4.759  11.305  16.752  0.00  0.00    +0.000 OA
ENDBRANCH  11  14
ENDBRANCH   6   8
ENDBRANCH   3   7
ENDBRANCH   1   3
BRANCH   1  17
ATOM     17  N   UNL     1       2.843   6.358  19.277  0.00  0.00    +0.000 N 
BRANCH  17  18
ATOM     18  C   UNL     1       2.854   5.327  20.325  0.00  0.00    +0.000 C 
BRANCH  18  19
ATOM     19  C   UNL     1       2.424   3.977  19.802  0.00  0.00    +0.000 A 
ATOM     20  C   UNL     1       3.380   2.990  19.496  0.00  0.00    +0.000 A 
ATOM     21  C   UNL     1       2.994   1.811  18.856  0.00  0.00    +0.000 A 
ATOM     22  C   UNL     1       1.654   1.593  18.537  0.00  0.00    +0.000 A 
ATOM     23  C   UNL     1       0.693   2.532  18.898  0.00  0.00    +0.000 A 
ATOM     24  C   UNL     1       1.073   3.703  19.542  0.00  0.00    +0.000 A 
ENDBRANCH  18  19
ENDBRANCH  17  18
BRANCH  17  25
ATOM     25  C   UNL     1       3.657   6.060  18.069  0.00  0.00    +0.000 C 
BRANCH  25  26
ATOM     26  C   UNL     1       5.158   6.190  18.171  0.00  0.00    +0.000 A 
ATOM     27  C   UNL     1       5.928   5.470  19.092  0.00  0.00    +0.000 A 
ATOM     28  C   UNL     1       7.312   5.671  19.168  0.00  0.00    +0.000 A 
ATOM     29  C   UNL     1       7.941   6.576  18.316  0.00  0.00    +0.000 A 
ATOM     30  C   UNL     1       7.198   7.249  17.350  0.00  0.00    +0.000 A 
ATOM     31  C   UNL     1       5.819   7.046  17.272  0.00  0.00    +0.000 A 
ENDBRANCH  25  26
ENDBRANCH  17  25
ENDBRANCH   1  17
TORSDOF 9
ENDMDL
MODEL 6
REMARK VINA RESULT:      -7.7      2.380      5.518
REMARK  Name = 
REMARK  10 active torsions:
REMARK  status: ('A' for Active; 'I' for Inactive)
REMARK    1  A    between atoms: C_1  and  C_2
REMARK    2  A    between atoms: C_2  and  C_22
REMARK    3  A    between atoms: N_3  and  N_4
REMARK    4  A    between atoms: N_4  and  C_5
REMARK    5  A    between atoms: C_5  and  N_7
REMARK    6  A    between atoms: N_7  and  C_8
REMARK    7  A    between atoms: N_7  and  C_15
REMARK    8  A    between atoms: C_8  and  C_9
REMARK    9  A    between atoms: C_15  and  C_16
REMARK   10  A    between atoms: C_25  and  N_26
REMARK                            x       y       z     vdW  Elec       q    Type
REMARK                         _______ _______ _______ _____ _____    ______ ____
ROOT
ATOM      1  C   UNL     1       5.430   6.045  17.263  0.00  0.00    +0.000 C 
ATOM      2  S   UNL     1       6.957   6.661  17.640  0.00  0.00    +0.000 S 
ENDROOT
BRANCH   1   3
ATOM      3  N   UNL     1       4.252   6.702  17.671  0.00  0.00    +0.000 N 
ATOM      4  H   UNL     1       4.045   7.615  17.299  0.00  0.00    +0.000 HD
BRANCH   3   7
ATOM      5  C   UNL     1       2.101   5.897  20.546  0.00  0.00    +0.000 C 
ATOM      6  C   UNL     1       2.644   6.805  19.440  0.00  0.00    +0.000 C 
ATOM      7  N   UNL     1       3.597   6.245  18.761  0.00  0.00    +0.000 NA
BRANCH   6   8
ATOM      8  C   UNL     1       1.951   8.124  19.335  0.00  0.00    +0.000 A 
ATOM      9  C   UNL     1       1.262   8.593  20.483  0.00  0.00    +0.000 A 
ATOM     10  C   UNL     1       0.270   9.572  20.391  0.00  0.00    +0.000 A 
ATOM     11  C   UNL     1      -0.013  10.131  19.149  0.00  0.00    +0.000 A 
ATOM     12  C   UNL     1       0.774   9.797  18.025  0.00  0.00    +0.000 A 
ATOM     13  C   UNL     1       1.747   8.786  18.123  0.00  0.00    +0.000 A 
BRANCH  11  14
ATOM     14  N   UNL     1      -1.201  10.981  18.989  0.00  0.00    +0.000 N 
ATOM     15  O   UNL     1      -1.504  11.722  19.931  0.00  0.00    +0.000 OA
ATOM     16  O   UNL     1      -1.844  10.878  17.936  0.00  0.00    +0.000 OA
ENDBRANCH  11  14
ENDBRANCH   6   8
ENDBRANCH   3   7
ENDBRANCH   1   3
BRANCH   1  17
ATOM     17  N   UNL     1       5.230   4.870  16.521  0.00  0.00    +0.000 N 
BRANCH  17  18
ATOM     18  C   UNL     1       6.349   4.057  16.021  0.00  0.00    +0.000 C 
BRANCH  18  19
ATOM     19  C   UNL     1       6.585   4.259  14.544  0.00  0.00    +0.000 A 
ATOM     20  C   UNL     1       5.951   3.431  13.598  0.00  0.00    +0.000 A 
ATOM     21  C   UNL     1       6.300   3.508  12.248  0.00  0.00    +0.000 A 
ATOM     22  C   UNL     1       7.262   4.426  11.825  0.00  0.00    +0.000 A 
ATOM     23  C   UNL     1       7.842   5.296  12.742  0.00  0.00    +0.000 A 
ATOM     24  C   UNL     1       7.492   5.226  14.085  0.00  0.00    +0.000 A 
ENDBRANCH  18  19
ENDBRANCH  17  18
BRANCH  17  25
ATOM     25  C   UNL     1       3.870   4.365  16.197  0.00  0.00    +0.000 C 
BRANCH  25  26
ATOM     26  C   UNL     1       3.159   3.518  17.226  0.00  0.00    +0.000 A 
ATOM     27  C   UNL     1       1.808   3.680  17.550  0.00  0.00    +0.000 A 
ATOM     28  C   UNL     1       1.219   2.894  18.548  0.00  0.00    +0.000 A 
ATOM     29  C   UNL     1       1.968   1.927  19.216  0.00  0.00    +0.000 A 
ATOM     30  C   UNL     1       3.295   1.708  18.857  0.00  0.00    +0.000 A 
ATOM     31  C   UNL     1       3.880   2.490  17.860  0.00  0.00    +0.000 A 
ENDBRANCH  25  26
ENDBRANCH  17  25
ENDBRANCH   1  17
TORSDOF 9
ENDMDL
MODEL 7
REMARK VINA RESULT:      -7.6      1.376      1.895
REMARK  Name = 
REMARK  10 active torsions:
REMARK  status: ('A' for Active; 'I' for Inactive)
REMARK    1  A    between atoms: C_1  and  C_2
REMARK    2  A    between atoms: C_2  and  C_22
REMARK    3  A    between atoms: N_3  and  N_4
REMARK    4  A    between atoms: N_4  and  C_5
REMARK    5  A    between atoms: C_5  and  N_7
REMARK    6  A    between atoms: N_7  and  C_8
REMARK    7  A    between atoms: N_7  and  C_15
REMARK    8  A    between atoms: C_8  and  C_9
REMARK    9  A    between atoms: C_15  and  C_16
REMARK   10  A    between atoms: C_25  and  N_26
REMARK                            x       y       z     vdW  Elec       q    Type
REMARK                         _______ _______ _______ _____ _____    ______ ____
ROOT
ATOM      1  C   UNL     1       2.215   7.794  18.957  0.00  0.00    +0.000 C 
ATOM      2  S   UNL     1       1.569   7.918  20.512  0.00  0.00    +0.000 S 
ENDROOT
BRANCH   1   3
ATOM      3  N   UNL     1       1.749   8.604  17.901  0.00  0.00    +0.000 N 
ATOM      4  H   UNL     1       1.358   8.165  17.082  0.00  0.00    +0.000 HD
BRANCH   3   7
ATOM      5  C   UNL     1       2.302  12.229  18.194  0.00  0.00    +0.000 C 
ATOM      6  C   UNL     1       1.490  10.941  18.343  0.00  0.00    +0.000 C 
ATOM      7  N   UNL     1       2.113   9.904  17.870  0.00  0.00    +0.000 NA
BRANCH   6   8
ATOM      8  C   UNL     1       0.176  11.121  19.029  0.00  0.00    +0.000 A 
ATOM      9  C   UNL     1      -0.994  11.047  18.230  0.00  0.00    +0.000 A 
ATOM     10  C   UNL     1      -2.208  11.588  18.659  0.00  0.00    +0.000 A 
ATOM     11  C   UNL     1      -2.279  12.170  19.921  0.00  0.00    +0.000 A 
ATOM     12  C   UNL     1      -1.171  12.105  20.794  0.00  0.00    +0.000 A 
ATOM     13  C   UNL     1       0.055  11.589  20.339  0.00  0.00    +0.000 A 
BRANCH  11  14
ATOM     14  N   UNL     1      -3.468  12.947  20.296  0.00  0.00    +0.000 N 
ATOM     15  O   UNL     1      -3.298  13.936  21.019  0.00  0.00    +0.000 OA
ATOM     16  O   UNL     1      -4.568  12.546  19.894  0.00  0.00    +0.000 OA
ENDBRANCH  11  14
ENDBRANCH   6   8
ENDBRANCH   3   7
ENDBRANCH   1   3
BRANCH   1  17
ATOM     17  N   UNL     1       3.247   6.906  18.615  0.00  0.00    +0.000 N 
BRANCH  17  18
ATOM     18  C   UNL     1       3.672   5.816  19.507  0.00  0.00    +0.000 C 
BRANCH  18  19
ATOM     19  C   UNL     1       2.696   4.665  19.505  0.00  0.00    +0.000 A 
ATOM     20  C   UNL     1       2.272   4.088  18.292  0.00  0.00    +0.000 A 
ATOM     21  C   UNL     1       1.246   3.141  18.284  0.00  0.00    +0.000 A 
ATOM     22  C   UNL     1       0.650   2.743  19.481  0.00  0.00    +0.000 A 
ATOM     23  C   UNL     1       1.110   3.256  20.689  0.00  0.00    +0.000 A 
ATOM     24  C   UNL     1       2.136   4.193  20.701  0.00  0.00    +0.000 A 
ENDBRANCH  18  19
ENDBRANCH  17  18
BRANCH  17  25
ATOM     25  C   UNL     1       3.976   7.004  17.323  0.00  0.00    +0.000 C 
BRANCH  25  26
ATOM     26  C   UNL     1       5.177   6.113  17.111  0.00  0.00    +0.000 A 
ATOM     27  C   UNL     1       6.374   6.261  17.820  0.00  0.00    +0.000 A 
ATOM     28  C   UNL     1       7.468   5.432  17.544  0.00  0.00    +0.000 A 
ATOM     29  C   UNL     1       7.371   4.437  16.573  0.00  0.00    +0.000 A 
ATOM     30  C   UNL     1       6.166   4.235  15.907  0.00  0.00    +0.000 A 
ATOM     31  C   UNL     1       5.074   5.059  16.186  0.00  0.00    +0.000 A 
ENDBRANCH  25  26
ENDBRANCH  17  25
ENDBRANCH   1  17
TORSDOF 9
ENDMDL
MODEL 8
REMARK VINA RESULT:      -7.6      1.113      3.544
REMARK  Name = 
REMARK  10 active torsions:
REMARK  status: ('A' for Active; 'I' for Inactive)
REMARK    1  A    between atoms: C_1  and  C_2
REMARK    2  A    between atoms: C_2  and  C_22
REMARK    3  A    between atoms: N_3  and  N_4
REMARK    4  A    between atoms: N_4  and  C_5
REMARK    5  A    between atoms: C_5  and  N_7
REMARK    6  A    between atoms: N_7  and  C_8
REMARK    7  A    between atoms: N_7  and  C_15
REMARK    8  A    between atoms: C_8  and  C_9
REMARK    9  A    between atoms: C_15  and  C_16
REMARK   10  A    between atoms: C_25  and  N_26
REMARK                            x       y       z     vdW  Elec       q    Type
REMARK                         _______ _______ _______ _____ _____    ______ ____
ROOT
ATOM      1  C   UNL     1       2.363   7.789  18.954  0.00  0.00    +0.000 C 
ATOM      2  S   UNL     1       1.720   7.754  20.515  0.00  0.00    +0.000 S 
ENDROOT
BRANCH   1   3
ATOM      3  N   UNL     1       2.005   8.794  18.033  0.00  0.00    +0.000 N 
ATOM      4  H   UNL     1       1.900   8.553  17.061  0.00  0.00    +0.000 HD
BRANCH   3   7
ATOM      5  C   UNL     1       1.728  12.281  19.174  0.00  0.00    +0.000 C 
ATOM      6  C   UNL     1       1.175  10.943  18.679  0.00  0.00    +0.000 C 
ATOM      7  N   UNL     1       2.112  10.087  18.409  0.00  0.00    +0.000 NA
BRANCH   6   8
ATOM      8  C   UNL     1      -0.317  10.874  18.641  0.00  0.00    +0.000 A 
ATOM      9  C   UNL     1      -0.907   9.993  17.699  0.00  0.00    +0.000 A 
ATOM     10  C   UNL     1      -2.236  10.137  17.295  0.00  0.00    +0.000 A 
ATOM     11  C   UNL     1      -3.010  11.140  17.868  0.00  0.00    +0.000 A 
ATOM     12  C   UNL     1      -2.490  11.921  18.925  0.00  0.00    +0.000 A 
ATOM     13  C   UNL     1      -1.142  11.788  19.299  0.00  0.00    +0.000 A 
BRANCH  11  14
ATOM     14  N   UNL     1      -4.325  11.460  17.295  0.00  0.00    +0.000 N 
ATOM     15  O   UNL     1      -5.092  12.148  17.977  0.00  0.00    +0.000 OA
ATOM     16  O   UNL     1      -4.595  10.993  16.181  0.00  0.00    +0.000 OA
ENDBRANCH  11  14
ENDBRANCH   6   8
ENDBRANCH   3   7
ENDBRANCH   1   3
BRANCH   1  17
ATOM     17  N   UNL     1       3.291   6.848  18.477  0.00  0.00    +0.000 N 
BRANCH  17  18
ATOM     18  C   UNL     1       3.922   6.970  17.154  0.00  0.00    +0.000 C 
BRANCH  18  19
ATOM     19  C   UNL     1       5.229   6.220  17.075  0.00  0.00    +0.000 A 
ATOM     20  C   UNL     1       5.353   5.083  16.255  0.00  0.00    +0.000 A 
ATOM     21  C   UNL     1       6.505   4.295  16.312  0.00  0.00    +0.000 A 
ATOM     22  C   UNL     1       7.551   4.645  17.167  0.00  0.00    +0.000 A 
ATOM     23  C   UNL     1       7.466   5.805  17.929  0.00  0.00    +0.000 A 
ATOM     24  C   UNL     1       6.324   6.595  17.869  0.00  0.00    +0.000 A 
ENDBRANCH  18  19
ENDBRANCH  17  18
BRANCH  17  25
ATOM     25  C   UNL     1       3.703   5.669  19.283  0.00  0.00    +0.000 C 
BRANCH  25  26
ATOM     26  C   UNL     1       3.035   4.344  19.000  0.00  0.00    +0.000 A 
ATOM     27  C   UNL     1       1.661   4.212  18.773  0.00  0.00    +0.000 A 
ATOM     28  C   UNL     1       1.096   2.948  18.564  0.00  0.00    +0.000 A 
ATOM     29  C   UNL     1       1.899   1.809  18.560  0.00  0.00    +0.000 A 
ATOM     30  C   UNL     1       3.276   1.932  18.718  0.00  0.00    +0.000 A 
ATOM     31  C   UNL     1       3.839   3.192  18.923  0.00  0.00    +0.000 A 
ENDBRANCH  25  26
ENDBRANCH  17  25
ENDBRANCH   1  17
TORSDOF 9
ENDMDL
MODEL 9
REMARK VINA RESULT:      -7.6      2.413      5.488
REMARK  Name = 
REMARK  10 active torsions:
REMARK  status: ('A' for Active; 'I' for Inactive)
REMARK    1  A    between atoms: C_1  and  C_2
REMARK    2  A    between atoms: C_2  and  C_22
REMARK    3  A    between atoms: N_3  and  N_4
REMARK    4  A    between atoms: N_4  and  C_5
REMARK    5  A    between atoms: C_5  and  N_7
REMARK    6  A    between atoms: N_7  and  C_8
REMARK    7  A    between atoms: N_7  and  C_15
REMARK    8  A    between atoms: C_8  and  C_9
REMARK    9  A    between atoms: C_15  and  C_16
REMARK   10  A    between atoms: C_25  and  N_26
REMARK                            x       y       z     vdW  Elec       q    Type
REMARK                         _______ _______ _______ _____ _____    ______ ____
ROOT
ATOM      1  C   UNL     1       5.585   5.682  17.733  0.00  0.00    +0.000 C 
ATOM      2  S   UNL     1       7.178   5.637  18.291  0.00  0.00    +0.000 S 
ENDROOT
BRANCH   1   3
ATOM      3  N   UNL     1       4.642   6.580  18.273  0.00  0.00    +0.000 N 
ATOM      4  H   UNL     1       4.817   7.570  18.211  0.00  0.00    +0.000 HD
BRANCH   3   7
ATOM      5  C   UNL     1       1.770   5.750  20.418  0.00  0.00    +0.000 C 
ATOM      6  C   UNL     1       2.629   6.684  19.561  0.00  0.00    +0.000 C 
ATOM      7  N   UNL     1       3.701   6.103  19.117  0.00  0.00    +0.000 NA
BRANCH   6   8
ATOM      8  C   UNL     1       2.051   8.049  19.375  0.00  0.00    +0.000 A 
ATOM      9  C   UNL     1       1.258   8.572  20.428  0.00  0.00    +0.000 A 
ATOM     10  C   UNL     1       0.358   9.619  20.215  0.00  0.00    +0.000 A 
ATOM     11  C   UNL     1       0.276  10.190  18.950  0.00  0.00    +0.000 A 
ATOM     12  C   UNL     1       1.173   9.795  17.933  0.00  0.00    +0.000 A 
ATOM     13  C   UNL     1       2.051   8.718  18.150  0.00  0.00    +0.000 A 
BRANCH  11  14
ATOM     14  N   UNL     1      -0.818  11.123  18.644  0.00  0.00    +0.000 N 
ATOM     15  O   UNL     1      -0.512  12.239  18.210  0.00  0.00    +0.000 OA
ATOM     16  O   UNL     1      -1.975  10.746  18.871  0.00  0.00    +0.000 OA
ENDBRANCH  11  14
ENDBRANCH   6   8
ENDBRANCH   3   7
ENDBRANCH   1   3
BRANCH   1  17
ATOM     17  N   UNL     1       5.101   4.857  16.705  0.00  0.00    +0.000 N 
BRANCH  17  18
ATOM     18  C   UNL     1       4.795   5.374  15.363  0.00  0.00    +0.000 C 
BRANCH  18  19
ATOM     19  C   UNL     1       5.684   4.768  14.303  0.00  0.00    +0.000 A 
ATOM     20  C   UNL     1       7.018   5.197  14.158  0.00  0.00    +0.000 A 
ATOM     21  C   UNL     1       7.783   4.760  13.074  0.00  0.00    +0.000 A 
ATOM     22  C   UNL     1       7.238   3.877  12.142  0.00  0.00    +0.000 A 
ATOM     23  C   UNL     1       5.945   3.395  12.316  0.00  0.00    +0.000 A 
ATOM     24  C   UNL     1       5.184   3.822  13.397  0.00  0.00    +0.000 A 
ENDBRANCH  18  19
ENDBRANCH  17  18
BRANCH  17  25
ATOM     25  C   UNL     1       4.870   3.402  16.905  0.00  0.00    +0.000 C 
BRANCH  25  26
ATOM     26  C   UNL     1       3.785   2.977  17.866  0.00  0.00    +0.000 A 
ATOM     27  C   UNL     1       2.437   2.877  17.504  0.00  0.00    +0.000 A 
ATOM     28  C   UNL     1       1.472   2.524  18.455  0.00  0.00    +0.000 A 
ATOM     29  C   UNL     1       1.846   2.248  19.769  0.00  0.00    +0.000 A 
ATOM     30  C   UNL     1       3.190   2.278  20.127  0.00  0.00    +0.000 A 
ATOM     31  C   UNL     1       4.152   2.627  19.178  0.00  0.00    +0.000 A 
ENDBRANCH  25  26
ENDBRANCH  17  25
ENDBRANCH   1  17
TORSDOF 9
ENDMDL
