MODEL 1
REMARK VINA RESULT:      -8.4      0.000      0.000
REMARK  Name = 
REMARK  4 active torsions:
REMARK  status: ('A' for Active; 'I' for Inactive)
REMARK    1  A    between atoms: N_1  and  C_2
REMARK    2  A    between atoms: N_5  and  C_6
REMARK    3  A    between atoms: C_6  and  C_7
REMARK    4  A    between atoms: C_17  and  C_18
REMARK                            x       y       z     vdW  Elec       q    Type
REMARK                         _______ _______ _______ _____ _____    ______ ____
ROOT
ATOM      1  C   UNL     1       7.279   5.004  18.666  0.00  0.00    +0.000 A 
ATOM      2  N   UNL     1       6.422   5.312  19.714  0.00  0.00    +0.000 NA
ATOM      3  C   UNL     1       5.155   5.437  19.444  0.00  0.00    +0.000 A 
ATOM      4  N   UNL     1       4.565   5.316  18.203  0.00  0.00    +0.000 N 
ATOM      5  C   UNL     1       5.405   5.070  17.149  0.00  0.00    +0.000 A 
ATOM      6  N   UNL     1       5.213   4.975  15.869  0.00  0.00    +0.000 NA
ATOM      7  C   UNL     1       6.463   4.665  15.353  0.00  0.00    +0.000 A 
ATOM      8  N   UNL     1       7.453   4.610  16.207  0.00  0.00    +0.000 NA
ATOM      9  C   UNL     1       6.835   4.876  17.397  0.00  0.00    +0.000 A 
ENDROOT
BRANCH   7  10
ATOM     10  C   UNL     1       6.600   4.339  13.924  0.00  0.00    +0.000 A 
ATOM     11  C   UNL     1       5.716   3.407  13.363  0.00  0.00    +0.000 A 
ATOM     12  C   UNL     1       5.785   3.108  12.001  0.00  0.00    +0.000 A 
ATOM     13  C   UNL     1       6.743   3.729  11.197  0.00  0.00    +0.000 A 
ATOM     14  C   UNL     1       7.627   4.652  11.756  0.00  0.00    +0.000 A 
ATOM     15  C   UNL     1       7.551   4.957  13.115  0.00  0.00    +0.000 A 
ATOM     16  F   UNL     1       8.437   5.832  13.612  0.00  0.00    +0.000 F 
ENDBRANCH   7  10
BRANCH   1  17
ATOM     17  N   UNL     1       8.631   4.870  18.935  0.00  0.00    +0.000 N 
ATOM     18  H   UNL     1       9.168   5.142  18.118  0.00  0.00    +0.000 HD
ATOM     19  H   UNL     1       8.845   3.933  19.272  0.00  0.00    +0.000 HD
ENDBRANCH   1  17
BRANCH   4  20
ATOM     20  C   UNL     1       3.144   5.582  17.977  0.00  0.00    +0.000 C 
BRANCH  20  21
ATOM     21  C   UNL     1       2.218   4.608  18.687  0.00  0.00    +0.000 A 
ATOM     22  C   UNL     1       1.999   3.306  18.191  0.00  0.00    +0.000 A 
ATOM     23 CL   UNL     1       2.817   2.686  16.798  0.00  0.00    +0.000 Cl
ATOM     24  C   UNL     1       1.141   2.406  18.841  0.00  0.00    +0.000 A 
ATOM     25  C   UNL     1       0.479   2.777  20.004  0.00  0.00    +0.000 A 
ATOM     26  C   UNL     1       0.694   4.044  20.528  0.00  0.00    +0.000 A 
ATOM     27  C   UNL     1       1.562   4.942  19.891  0.00  0.00    +0.000 A 
ATOM     28 CL   UNL     1       1.837   6.417  20.746  0.00  0.00    +0.000 Cl
ENDBRANCH  20  21
ENDBRANCH   4  20
TORSDOF 4
ENDMDL
MODEL 2
REMARK VINA RESULT:      -8.4      0.122      1.800
REMARK  Name = 
REMARK  4 active torsions:
REMARK  status: ('A' for Active; 'I' for Inactive)
REMARK    1  A    between atoms: N_1  and  C_2
REMARK    2  A    between atoms: N_5  and  C_6
REMARK    3  A    between atoms: C_6  and  C_7
REMARK    4  A    between atoms: C_17  and  C_18
REMARK                            x       y       z     vdW  Elec       q    Type
REMARK                         _______ _______ _______ _____ _____    ______ ____
ROOT
ATOM      1  C   UNL     1       7.383   5.000  18.648  0.00  0.00    +0.000 A 
ATOM      2  N   UNL     1       6.559   5.329  19.716  0.00  0.00    +0.000 NA
ATOM      3  C   UNL     1       5.289   5.483  19.476  0.00  0.00    +0.000 A 
ATOM      4  N   UNL     1       4.666   5.374  18.249  0.00  0.00    +0.000 N 
ATOM      5  C   UNL     1       5.476   5.108  17.176  0.00  0.00    +0.000 A 
ATOM      6  N   UNL     1       5.250   5.017  15.902  0.00  0.00    +0.000 NA
ATOM      7  C   UNL     1       6.480   4.679  15.356  0.00  0.00    +0.000 A 
ATOM      8  N   UNL     1       7.489   4.601  16.186  0.00  0.00    +0.000 NA
ATOM      9  C   UNL     1       6.906   4.882  17.390  0.00  0.00    +0.000 A 
ENDROOT
BRANCH   7  10
ATOM     10  C   UNL     1       6.576   4.349  13.924  0.00  0.00    +0.000 A 
ATOM     11  C   UNL     1       5.649   3.447  13.382  0.00  0.00    +0.000 A 
ATOM     12  C   UNL     1       5.679   3.146  12.019  0.00  0.00    +0.000 A 
ATOM     13  C   UNL     1       6.639   3.735  11.195  0.00  0.00    +0.000 A 
ATOM     14  C   UNL     1       7.565   4.628  11.735  0.00  0.00    +0.000 A 
ATOM     15  C   UNL     1       7.529   4.935  13.094  0.00  0.00    +0.000 A 
ATOM     16  F   UNL     1       8.454   5.780  13.572  0.00  0.00    +0.000 F 
ENDBRANCH   7  10
BRANCH   1  17
ATOM     17  N   UNL     1       8.737   4.835  18.885  0.00  0.00    +0.000 N 
ATOM     18  H   UNL     1       9.130   4.210  18.189  0.00  0.00    +0.000 HD
ATOM     19  H   UNL     1       8.907   4.538  19.844  0.00  0.00    +0.000 HD
ENDBRANCH   1  17
BRANCH   4  20
ATOM     20  C   UNL     1       3.247   5.673  18.057  0.00  0.00    +0.000 C 
BRANCH  20  21
ATOM     21  C   UNL     1       2.315   4.689  18.745  0.00  0.00    +0.000 A 
ATOM     22  C   UNL     1       1.630   5.029  19.930  0.00  0.00    +0.000 A 
ATOM     23 CL   UNL     1       1.724   6.601  20.646  0.00  0.00    +0.000 Cl
ATOM     24  C   UNL     1       0.772   4.121  20.570  0.00  0.00    +0.000 A 
ATOM     25  C   UNL     1       0.573   2.850  20.048  0.00  0.00    +0.000 A 
ATOM     26  C   UNL     1       1.217   2.496  18.871  0.00  0.00    +0.000 A 
ATOM     27  C   UNL     1       2.061   3.405  18.217  0.00  0.00    +0.000 A 
ATOM     28 CL   UNL     1       2.666   2.868  16.691  0.00  0.00    +0.000 Cl
ENDBRANCH  20  21
ENDBRANCH   4  20
TORSDOF 4
ENDMDL
MODEL 3
REMARK VINA RESULT:      -7.9      0.928      1.328
REMARK  Name = 
REMARK  4 active torsions:
REMARK  status: ('A' for Active; 'I' for Inactive)
REMARK    1  A    between atoms: N_1  and  C_2
REMARK    2  A    between atoms: N_5  and  C_6
REMARK    3  A    between atoms: C_6  and  C_7
REMARK    4  A    between atoms: C_17  and  C_18
REMARK                            x       y       z     vdW  Elec       q    Type
REMARK                         _______ _______ _______ _____ _____    ______ ____
ROOT
ATOM      1  C   UNL     1       7.244   5.197  18.895  0.00  0.00    +0.000 A 
ATOM      2  N   UNL     1       6.316   5.389  19.910  0.00  0.00    +0.000 NA
ATOM      3  C   UNL     1       5.060   5.458  19.577  0.00  0.00    +0.000 A 
ATOM      4  N   UNL     1       4.544   5.382  18.299  0.00  0.00    +0.000 N 
ATOM      5  C   UNL     1       5.452   5.252  17.281  0.00  0.00    +0.000 A 
ATOM      6  N   UNL     1       5.333   5.229  15.989  0.00  0.00    +0.000 NA
ATOM      7  C   UNL     1       6.625   5.025  15.526  0.00  0.00    +0.000 A 
ATOM      8  N   UNL     1       7.571   4.972  16.430  0.00  0.00    +0.000 NA
ATOM      9  C   UNL     1       6.876   5.126  17.597  0.00  0.00    +0.000 A 
ENDROOT
BRANCH   7  10
ATOM     10  C   UNL     1       6.858   4.799  14.090  0.00  0.00    +0.000 A 
ATOM     11  C   UNL     1       7.774   5.623  13.423  0.00  0.00    +0.000 A 
ATOM     12  C   UNL     1       8.056   5.409  12.073  0.00  0.00    +0.000 A 
ATOM     13  C   UNL     1       7.416   4.379  11.381  0.00  0.00    +0.000 A 
ATOM     14  C   UNL     1       6.500   3.562  12.043  0.00  0.00    +0.000 A 
ATOM     15  C   UNL     1       6.225   3.771  13.394  0.00  0.00    +0.000 A 
ATOM     16  F   UNL     1       5.319   2.976  13.981  0.00  0.00    +0.000 F 
ENDBRANCH   7  10
BRANCH   1  17
ATOM     17  N   UNL     1       8.585   5.125  19.231  0.00  0.00    +0.000 N 
ATOM     18  H   UNL     1       9.051   5.983  18.956  0.00  0.00    +0.000 HD
ATOM     19  H   UNL     1       9.013   4.285  18.844  0.00  0.00    +0.000 HD
ENDBRANCH   1  17
BRANCH   4  20
ATOM     20  C   UNL     1       3.124   5.580  18.010  0.00  0.00    +0.000 C 
BRANCH  20  21
ATOM     21  C   UNL     1       2.218   4.541  18.650  0.00  0.00    +0.000 A 
ATOM     22  C   UNL     1       2.057   3.258  18.087  0.00  0.00    +0.000 A 
ATOM     23 CL   UNL     1       2.929   2.735  16.688  0.00  0.00    +0.000 Cl
ATOM     24  C   UNL     1       1.218   2.297  18.673  0.00  0.00    +0.000 A 
ATOM     25  C   UNL     1       0.517   2.588  19.836  0.00  0.00    +0.000 A 
ATOM     26  C   UNL     1       0.673   3.835  20.424  0.00  0.00    +0.000 A 
ATOM     27  C   UNL     1       1.523   4.793  19.853  0.00  0.00    +0.000 A 
ATOM     28 CL   UNL     1       1.725   6.234  20.783  0.00  0.00    +0.000 Cl
ENDBRANCH  20  21
ENDBRANCH   4  20
TORSDOF 4
ENDMDL
MODEL 4
REMARK VINA RESULT:      -7.8      1.621      1.795
REMARK  Name = 
REMARK  4 active torsions:
REMARK  status: ('A' for Active; 'I' for Inactive)
REMARK    1  A    between atoms: N_1  and  C_2
REMARK    2  A    between atoms: N_5  and  C_6
REMARK    3  A    between atoms: C_6  and  C_7
REMARK    4  A    between atoms: C_17  and  C_18
REMARK                            x       y       z     vdW  Elec       q    Type
REMARK                         _______ _______ _______ _____ _____    ______ ____
ROOT
ATOM      1  C   UNL     1       7.044   5.941  18.334  0.00  0.00    +0.000 A 
ATOM      2  N   UNL     1       6.399   5.559  19.503  0.00  0.00    +0.000 NA
ATOM      3  C   UNL     1       5.540   4.585  19.431  0.00  0.00    +0.000 A 
ATOM      4  N   UNL     1       5.177   3.893  18.293  0.00  0.00    +0.000 N 
ATOM      5  C   UNL     1       5.762   4.297  17.121  0.00  0.00    +0.000 A 
ATOM      6  N   UNL     1       5.604   3.935  15.885  0.00  0.00    +0.000 NA
ATOM      7  C   UNL     1       6.528   4.694  15.182  0.00  0.00    +0.000 A 
ATOM      8  N   UNL     1       7.228   5.557  15.874  0.00  0.00    +0.000 NA
ATOM      9  C   UNL     1       6.769   5.359  17.146  0.00  0.00    +0.000 A 
ENDROOT
BRANCH   7  10
ATOM     10  C   UNL     1       6.735   4.443  13.746  0.00  0.00    +0.000 A 
ATOM     11  C   UNL     1       5.922   3.496  13.108  0.00  0.00    +0.000 A 
ATOM     12  C   UNL     1       6.057   3.265  11.738  0.00  0.00    +0.000 A 
ATOM     13  C   UNL     1       7.009   3.971  11.002  0.00  0.00    +0.000 A 
ATOM     14  C   UNL     1       7.823   4.910  11.636  0.00  0.00    +0.000 A 
ATOM     15  C   UNL     1       7.682   5.146  13.003  0.00  0.00    +0.000 A 
ATOM     16  F   UNL     1       8.502   6.040  13.574  0.00  0.00    +0.000 F 
ENDBRANCH   7  10
BRANCH   1  17
ATOM     17  N   UNL     1       7.960   6.977  18.392  0.00  0.00    +0.000 N 
ATOM     18  H   UNL     1       8.202   7.270  17.451  0.00  0.00    +0.000 HD
ATOM     19  H   UNL     1       8.765   6.722  18.961  0.00  0.00    +0.000 HD
ENDBRANCH   1  17
BRANCH   4  20
ATOM     20  C   UNL     1       4.118   2.884  18.288  0.00  0.00    +0.000 C 
BRANCH  20  21
ATOM     21  C   UNL     1       3.103   3.057  19.406  0.00  0.00    +0.000 A 
ATOM     22  C   UNL     1       3.301   2.475  20.676  0.00  0.00    +0.000 A 
ATOM     23 CL   UNL     1       4.734   1.599  21.091  0.00  0.00    +0.000 Cl
ATOM     24  C   UNL     1       2.364   2.629  21.710  0.00  0.00    +0.000 A 
ATOM     25  C   UNL     1       1.205   3.366  21.507  0.00  0.00    +0.000 A 
ATOM     26  C   UNL     1       0.995   3.969  20.275  0.00  0.00    +0.000 A 
ATOM     27  C   UNL     1       1.935   3.833  19.244  0.00  0.00    +0.000 A 
ATOM     28 CL   UNL     1       1.602   4.763  17.828  0.00  0.00    +0.000 Cl
ENDBRANCH  20  21
ENDBRANCH   4  20
TORSDOF 4
ENDMDL
MODEL 5
REMARK VINA RESULT:      -7.8      0.923      2.230
REMARK  Name = 
REMARK  4 active torsions:
REMARK  status: ('A' for Active; 'I' for Inactive)
REMARK    1  A    between atoms: N_1  and  C_2
REMARK    2  A    between atoms: N_5  and  C_6
REMARK    3  A    between atoms: C_6  and  C_7
REMARK    4  A    between atoms: C_17  and  C_18
REMARK                            x       y       z     vdW  Elec       q    Type
REMARK                         _______ _______ _______ _____ _____    ______ ____
ROOT
ATOM      1  C   UNL     1       7.354   5.127  18.864  0.00  0.00    +0.000 A 
ATOM      2  N   UNL     1       6.453   5.338  19.899  0.00  0.00    +0.000 NA
ATOM      3  C   UNL     1       5.192   5.444  19.593  0.00  0.00    +0.000 A 
ATOM      4  N   UNL     1       4.648   5.390  18.326  0.00  0.00    +0.000 N 
ATOM      5  C   UNL     1       5.531   5.241  17.288  0.00  0.00    +0.000 A 
ATOM      6  N   UNL     1       5.385   5.228  16.000  0.00  0.00    +0.000 NA
ATOM      7  C   UNL     1       6.661   4.991  15.509  0.00  0.00    +0.000 A 
ATOM      8  N   UNL     1       7.623   4.907  16.392  0.00  0.00    +0.000 NA
ATOM      9  C   UNL     1       6.957   5.073  17.574  0.00  0.00    +0.000 A 
ENDROOT
BRANCH   7  10
ATOM     10  C   UNL     1       6.857   4.767  14.067  0.00  0.00    +0.000 A 
ATOM     11  C   UNL     1       7.764   5.586  13.380  0.00  0.00    +0.000 A 
ATOM     12  C   UNL     1       8.011   5.373  12.023  0.00  0.00    +0.000 A 
ATOM     13  C   UNL     1       7.347   4.350  11.344  0.00  0.00    +0.000 A 
ATOM     14  C   UNL     1       6.440   3.538  12.026  0.00  0.00    +0.000 A 
ATOM     15  C   UNL     1       6.200   3.745  13.383  0.00  0.00    +0.000 A 
ATOM     16  F   UNL     1       5.302   2.956  13.990  0.00  0.00    +0.000 F 
ENDBRANCH   7  10
BRANCH   1  17
ATOM     17  N   UNL     1       8.699   5.014  19.172  0.00  0.00    +0.000 N 
ATOM     18  H   UNL     1       9.065   5.925  19.430  0.00  0.00    +0.000 HD
ATOM     19  H   UNL     1       9.211   4.568  18.413  0.00  0.00    +0.000 HD
ENDBRANCH   1  17
BRANCH   4  20
ATOM     20  C   UNL     1       3.228   5.629  18.068  0.00  0.00    +0.000 C 
BRANCH  20  21
ATOM     21  C   UNL     1       2.308   4.604  18.710  0.00  0.00    +0.000 A 
ATOM     22  C   UNL     1       1.592   4.895  19.890  0.00  0.00    +0.000 A 
ATOM     23 CL   UNL     1       1.635   6.449  20.651  0.00  0.00    +0.000 Cl
ATOM     24  C   UNL     1       0.745   3.950  20.488  0.00  0.00    +0.000 A 
ATOM     25  C   UNL     1       0.586   2.690  19.928  0.00  0.00    +0.000 A 
ATOM     26  C   UNL     1       1.260   2.384  18.754  0.00  0.00    +0.000 A 
ATOM     27  C   UNL     1       2.095   3.330  18.143  0.00  0.00    +0.000 A 
ATOM     28 CL   UNL     1       2.741   2.850  16.615  0.00  0.00    +0.000 Cl
ENDBRANCH  20  21
ENDBRANCH   4  20
TORSDOF 4
ENDMDL
MODEL 6
REMARK VINA RESULT:      -7.8      1.812      2.238
REMARK  Name = 
REMARK  4 active torsions:
REMARK  status: ('A' for Active; 'I' for Inactive)
REMARK    1  A    between atoms: N_1  and  C_2
REMARK    2  A    between atoms: N_5  and  C_6
REMARK    3  A    between atoms: C_6  and  C_7
REMARK    4  A    between atoms: C_17  and  C_18
REMARK                            x       y       z     vdW  Elec       q    Type
REMARK                         _______ _______ _______ _____ _____    ______ ____
ROOT
ATOM      1  C   UNL     1       7.219   5.927  18.587  0.00  0.00    +0.000 A 
ATOM      2  N   UNL     1       6.525   5.479  19.703  0.00  0.00    +0.000 NA
ATOM      3  C   UNL     1       5.624   4.557  19.527  0.00  0.00    +0.000 A 
ATOM      4  N   UNL     1       5.262   3.983  18.325  0.00  0.00    +0.000 N 
ATOM      5  C   UNL     1       5.896   4.456  17.206  0.00  0.00    +0.000 A 
ATOM      6  N   UNL     1       5.756   4.209  15.941  0.00  0.00    +0.000 NA
ATOM      7  C   UNL     1       6.734   4.979  15.327  0.00  0.00    +0.000 A 
ATOM      8  N   UNL     1       7.453   5.746  16.108  0.00  0.00    +0.000 NA
ATOM      9  C   UNL     1       6.950   5.463  17.347  0.00  0.00    +0.000 A 
ENDROOT
BRANCH   7  10
ATOM     10  C   UNL     1       6.968   4.842  13.880  0.00  0.00    +0.000 A 
ATOM     11  C   UNL     1       7.850   5.736  13.258  0.00  0.00    +0.000 A 
ATOM     12  C   UNL     1       8.134   5.607  11.897  0.00  0.00    +0.000 A 
ATOM     13  C   UNL     1       7.532   4.593  11.151  0.00  0.00    +0.000 A 
ATOM     14  C   UNL     1       6.649   3.706  11.769  0.00  0.00    +0.000 A 
ATOM     15  C   UNL     1       6.373   3.830  13.130  0.00  0.00    +0.000 A 
ATOM     16  F   UNL     1       5.500   2.970  13.674  0.00  0.00    +0.000 F 
ENDBRANCH   7  10
BRANCH   1  17
ATOM     17  N   UNL     1       8.180   6.909  18.756  0.00  0.00    +0.000 N 
ATOM     18  H   UNL     1       7.747   7.745  19.136  0.00  0.00    +0.000 HD
ATOM     19  H   UNL     1       8.693   7.071  17.891  0.00  0.00    +0.000 HD
ENDBRANCH   1  17
BRANCH   4  20
ATOM     20  C   UNL     1       4.158   3.030  18.208  0.00  0.00    +0.000 C 
BRANCH  20  21
ATOM     21  C   UNL     1       3.148   3.121  19.341  0.00  0.00    +0.000 A 
ATOM     22  C   UNL     1       1.910   3.775  19.173  0.00  0.00    +0.000 A 
ATOM     23 CL   UNL     1       1.405   4.447  17.661  0.00  0.00    +0.000 Cl
ATOM     24  C   UNL     1       0.977   3.864  20.218  0.00  0.00    +0.000 A 
ATOM     25  C   UNL     1       1.252   3.304  21.458  0.00  0.00    +0.000 A 
ATOM     26  C   UNL     1       2.453   2.635  21.646  0.00  0.00    +0.000 A 
ATOM     27  C   UNL     1       3.381   2.528  20.601  0.00  0.00    +0.000 A 
ATOM     28 CL   UNL     1       4.754   1.539  20.946  0.00  0.00    +0.000 Cl
ENDBRANCH  20  21
ENDBRANCH   4  20
TORSDOF 4
ENDMDL
MODEL 7
REMARK VINA RESULT:      -7.8      3.073      4.957
REMARK  Name = 
REMARK  4 active torsions:
REMARK  status: ('A' for Active; 'I' for Inactive)
REMARK    1  A    between atoms: N_1  and  C_2
REMARK    2  A    between atoms: N_5  and  C_6
REMARK    3  A    between atoms: C_6  and  C_7
REMARK    4  A    between atoms: C_17  and  C_18
REMARK                            x       y       z     vdW  Elec       q    Type
REMARK                         _______ _______ _______ _____ _____    ______ ____
ROOT
ATOM      1  C   UNL     1       1.423   3.139  19.174  0.00  0.00    +0.000 A 
ATOM      2  N   UNL     1       0.702   3.793  20.165  0.00  0.00    +0.000 NA
ATOM      3  C   UNL     1       1.047   5.012  20.461  0.00  0.00    +0.000 A 
ATOM      4  N   UNL     1       2.084   5.730  19.902  0.00  0.00    +0.000 N 
ATOM      5  C   UNL     1       2.842   5.078  18.964  0.00  0.00    +0.000 A 
ATOM      6  N   UNL     1       3.910   5.410  18.306  0.00  0.00    +0.000 NA
ATOM      7  C   UNL     1       4.154   4.326  17.475  0.00  0.00    +0.000 A 
ATOM      8  N   UNL     1       3.349   3.301  17.594  0.00  0.00    +0.000 NA
ATOM      9  C   UNL     1       2.476   3.720  18.558  0.00  0.00    +0.000 A 
ENDROOT
BRANCH   7  10
ATOM     10  C   UNL     1       5.224   4.409  16.466  0.00  0.00    +0.000 A 
ATOM     11  C   UNL     1       4.877   4.302  15.113  0.00  0.00    +0.000 A 
ATOM     12  C   UNL     1       5.857   4.422  14.126  0.00  0.00    +0.000 A 
ATOM     13  C   UNL     1       7.187   4.640  14.487  0.00  0.00    +0.000 A 
ATOM     14  C   UNL     1       7.535   4.741  15.834  0.00  0.00    +0.000 A 
ATOM     15  C   UNL     1       6.554   4.629  16.819  0.00  0.00    +0.000 A 
ATOM     16  F   UNL     1       6.939   4.708  18.100  0.00  0.00    +0.000 F 
ENDBRANCH   7  10
BRANCH   1  17
ATOM     17  N   UNL     1       1.071   1.841  18.848  0.00  0.00    +0.000 N 
ATOM     18  H   UNL     1       0.169   1.840  18.383  0.00  0.00    +0.000 HD
ATOM     19  H   UNL     1       1.110   1.236  19.667  0.00  0.00    +0.000 HD
ENDBRANCH   1  17
BRANCH   4  20
ATOM     20  C   UNL     1       2.468   7.060  20.376  0.00  0.00    +0.000 C 
BRANCH  20  21
ATOM     21  C   UNL     1       1.607   8.181  19.818  0.00  0.00    +0.000 A 
ATOM     22  C   UNL     1       0.622   8.815  20.605  0.00  0.00    +0.000 A 
ATOM     23 CL   UNL     1       0.371   8.434  22.273  0.00  0.00    +0.000 Cl
ATOM     24  C   UNL     1      -0.177   9.848  20.091  0.00  0.00    +0.000 A 
ATOM     25  C   UNL     1      -0.018  10.278  18.781  0.00  0.00    +0.000 A 
ATOM     26  C   UNL     1       0.958   9.688  17.991  0.00  0.00    +0.000 A 
ATOM     27  C   UNL     1       1.771   8.668  18.503  0.00  0.00    +0.000 A 
ATOM     28 CL   UNL     1       3.033   8.144  17.447  0.00  0.00    +0.000 Cl
ENDBRANCH  20  21
ENDBRANCH   4  20
TORSDOF 4
ENDMDL
MODEL 8
REMARK VINA RESULT:      -7.8      1.515      2.284
REMARK  Name = 
REMARK  4 active torsions:
REMARK  status: ('A' for Active; 'I' for Inactive)
REMARK    1  A    between atoms: N_1  and  C_2
REMARK    2  A    between atoms: N_5  and  C_6
REMARK    3  A    between atoms: C_6  and  C_7
REMARK    4  A    between atoms: C_17  and  C_18
REMARK                            x       y       z     vdW  Elec       q    Type
REMARK                         _______ _______ _______ _____ _____    ______ ____
ROOT
ATOM      1  C   UNL     1       7.177   4.939  18.731  0.00  0.00    +0.000 A 
ATOM      2  N   UNL     1       6.326   5.169  19.805  0.00  0.00    +0.000 NA
ATOM      3  C   UNL     1       5.047   5.202  19.568  0.00  0.00    +0.000 A 
ATOM      4  N   UNL     1       4.435   5.052  18.340  0.00  0.00    +0.000 N 
ATOM      5  C   UNL     1       5.264   4.883  17.262  0.00  0.00    +0.000 A 
ATOM      6  N   UNL     1       5.046   4.791  15.986  0.00  0.00    +0.000 NA
ATOM      7  C   UNL     1       6.302   4.582  15.434  0.00  0.00    +0.000 A 
ATOM      8  N   UNL     1       7.316   4.591  16.263  0.00  0.00    +0.000 NA
ATOM      9  C   UNL     1       6.711   4.795  17.471  0.00  0.00    +0.000 A 
ENDROOT
BRANCH   7  10
ATOM     10  C   UNL     1       6.426   4.286  13.998  0.00  0.00    +0.000 A 
ATOM     11  C   UNL     1       5.484   3.433  13.407  0.00  0.00    +0.000 A 
ATOM     12  C   UNL     1       5.542   3.166  12.038  0.00  0.00    +0.000 A 
ATOM     13  C   UNL     1       6.545   3.741  11.256  0.00  0.00    +0.000 A 
ATOM     14  C   UNL     1       7.487   4.586  11.844  0.00  0.00    +0.000 A 
ATOM     15  C   UNL     1       7.423   4.858  13.210  0.00  0.00    +0.000 A 
ATOM     16  F   UNL     1       8.364   5.656  13.736  0.00  0.00    +0.000 F 
ENDBRANCH   7  10
BRANCH   1  17
ATOM     17  N   UNL     1       8.541   4.903  18.964  0.00  0.00    +0.000 N 
ATOM     18  H   UNL     1       8.722   4.430  19.843  0.00  0.00    +0.000 HD
ATOM     19  H   UNL     1       8.945   5.837  18.911  0.00  0.00    +0.000 HD
ENDBRANCH   1  17
BRANCH   4  20
ATOM     20  C   UNL     1       2.993   5.214  18.153  0.00  0.00    +0.000 C 
BRANCH  20  21
ATOM     21  C   UNL     1       2.358   6.202  19.118  0.00  0.00    +0.000 A 
ATOM     22  C   UNL     1       2.339   7.586  18.849  0.00  0.00    +0.000 A 
ATOM     23 CL   UNL     1       2.952   8.261  17.379  0.00  0.00    +0.000 Cl
ATOM     24  C   UNL     1       1.757   8.501  19.740  0.00  0.00    +0.000 A 
ATOM     25  C   UNL     1       1.178   8.062  20.923  0.00  0.00    +0.000 A 
ATOM     26  C   UNL     1       1.162   6.704  21.204  0.00  0.00    +0.000 A 
ATOM     27  C   UNL     1       1.727   5.783  20.310  0.00  0.00    +0.000 A 
ATOM     28 CL   UNL     1       1.494   4.125  20.730  0.00  0.00    +0.000 Cl
ENDBRANCH  20  21
ENDBRANCH   4  20
TORSDOF 4
ENDMDL
MODEL 9
REMARK VINA RESULT:      -7.7      1.507      2.269
REMARK  Name = 
REMARK  4 active torsions:
REMARK  status: ('A' for Active; 'I' for Inactive)
REMARK    1  A    between atoms: N_1  and  C_2
REMARK    2  A    between atoms: N_5  and  C_6
REMARK    3  A    between atoms: C_6  and  C_7
REMARK    4  A    between atoms: C_17  and  C_18
REMARK                            x       y       z     vdW  Elec       q    Type
REMARK                         _______ _______ _______ _____ _____    ______ ____
ROOT
ATOM      1  C   UNL     1       7.202   4.925  18.700  0.00  0.00    +0.000 A 
ATOM      2  N   UNL     1       6.355   5.136  19.780  0.00  0.00    +0.000 NA
ATOM      3  C   UNL     1       5.074   5.148  19.552  0.00  0.00    +0.000 A 
ATOM      4  N   UNL     1       4.457   4.992  18.327  0.00  0.00    +0.000 N 
ATOM      5  C   UNL     1       5.282   4.842  17.243  0.00  0.00    +0.000 A 
ATOM      6  N   UNL     1       5.057   4.751  15.968  0.00  0.00    +0.000 NA
ATOM      7  C   UNL     1       6.313   4.566  15.408  0.00  0.00    +0.000 A 
ATOM      8  N   UNL     1       7.332   4.589  16.229  0.00  0.00    +0.000 NA
ATOM      9  C   UNL     1       6.731   4.778  17.443  0.00  0.00    +0.000 A 
ENDROOT
BRANCH   7  10
ATOM     10  C   UNL     1       6.433   4.277  13.969  0.00  0.00    +0.000 A 
ATOM     11  C   UNL     1       5.497   3.418  13.379  0.00  0.00    +0.000 A 
ATOM     12  C   UNL     1       5.550   3.158  12.008  0.00  0.00    +0.000 A 
ATOM     13  C   UNL     1       6.544   3.746  11.224  0.00  0.00    +0.000 A 
ATOM     14  C   UNL     1       7.480   4.597  11.812  0.00  0.00    +0.000 A 
ATOM     15  C   UNL     1       7.421   4.863  13.179  0.00  0.00    +0.000 A 
ATOM     16  F   UNL     1       8.356   5.668  13.704  0.00  0.00    +0.000 F 
ENDBRANCH   7  10
BRANCH   1  17
ATOM     17  N   UNL     1       8.568   4.912  18.924  0.00  0.00    +0.000 N 
ATOM     18  H   UNL     1       8.749   4.969  19.921  0.00  0.00    +0.000 HD
ATOM     19  H   UNL     1       9.034   5.638  18.382  0.00  0.00    +0.000 HD
ENDBRANCH   1  17
BRANCH   4  20
ATOM     20  C   UNL     1       3.011   5.130  18.150  0.00  0.00    +0.000 C 
BRANCH  20  21
ATOM     21  C   UNL     1       2.377   6.158  19.072  0.00  0.00    +0.000 A 
ATOM     22  C   UNL     1       1.787   5.783  20.298  0.00  0.00    +0.000 A 
ATOM     23 CL   UNL     1       1.809   4.156  20.887  0.00  0.00    +0.000 Cl
ATOM     24  C   UNL     1       1.197   6.729  21.150  0.00  0.00    +0.000 A 
ATOM     25  C   UNL     1       1.178   8.074  20.806  0.00  0.00    +0.000 A 
ATOM     26  C   UNL     1       1.770   8.475  19.617  0.00  0.00    +0.000 A 
ATOM     27  C   UNL     1       2.377   7.537  18.770  0.00  0.00    +0.000 A 
ATOM     28 CL   UNL     1       3.198   8.211  17.408  0.00  0.00    +0.000 Cl
ENDBRANCH  20  21
ENDBRANCH   4  20
TORSDOF 4
ENDMDL
