MODEL 1
REMARK VINA RESULT:      -7.0      0.000      0.000
REMARK  Name = 
REMARK  4 active torsions:
REMARK  status: ('A' for Active; 'I' for Inactive)
REMARK    1  A    between atoms: C_2  and  C_3
REMARK    2  A    between atoms: C_3  and  S_4
REMARK    3  A    between atoms: S_4  and  C_5
REMARK    4  A    between atoms: C_8  and  N_9
REMARK                            x       y       z     vdW  Elec       q    Type
REMARK                         _______ _______ _______ _____ _____    ______ ____
ROOT
ATOM      1  C   UNL     1       7.172   4.969  18.382  0.00  0.00    +0.000 C 
ENDROOT
BRANCH   1   3
ATOM      2  O   UNL     1       5.311   5.621  19.714  0.00  0.00    +0.000 OA
ATOM      3  C   UNL     1       5.813   4.734  19.026  0.00  0.00    +0.000 C 
ATOM      4  N   UNL     1       5.211   3.548  18.673  0.00  0.00    +0.000 N 
ATOM      5  C   UNL     1       3.987   3.172  19.147  0.00  0.00    +0.000 A 
ATOM      6  N   UNL     1       3.213   3.765  20.019  0.00  0.00    +0.000 NA
ATOM      7  C   UNL     1       2.058   3.027  20.183  0.00  0.00    +0.000 A 
ATOM      8  C   UNL     1       1.969   1.886  19.415  0.00  0.00    +0.000 A 
ATOM      9  S   UNL     1       3.402   1.708  18.486  0.00  0.00    +0.000 S 
ATOM     10  H   UNL     1       5.689   2.903  18.062  0.00  0.00    +0.000 HD
ENDBRANCH   1   3
BRANCH   1  11
ATOM     11  S   UNL     1       7.164   6.356  17.194  0.00  0.00    +0.000 S 
BRANCH  11  12
ATOM     12  C   UNL     1       6.766   5.476  15.695  0.00  0.00    +0.000 A 
ATOM     13  C   UNL     1       5.499   4.914  15.551  0.00  0.00    +0.000 A 
ATOM     14  C   UNL     1       5.200   4.199  14.390  0.00  0.00    +0.000 A 
ATOM     15  C   UNL     1       6.185   4.070  13.409  0.00  0.00    +0.000 A 
ATOM     16  C   UNL     1       7.416   4.668  13.619  0.00  0.00    +0.000 A 
ATOM     17  N   UNL     1       7.718   5.370  14.740  0.00  0.00    +0.000 NA
BRANCH  15  18
ATOM     18  N   UNL     1       5.941   3.319  12.188  0.00  0.00    +0.000 N 
ATOM     19  O   UNL     1       4.781   3.290  11.755  0.00  0.00    +0.000 OA
ATOM     20  O   UNL     1       6.906   2.757  11.655  0.00  0.00    +0.000 OA
ENDBRANCH  15  18
ENDBRANCH  11  12
ENDBRANCH   1  11
TORSDOF 4
ENDMDL
MODEL 2
REMARK VINA RESULT:      -6.9      1.456      1.485
REMARK  Name = 
REMARK  4 active torsions:
REMARK  status: ('A' for Active; 'I' for Inactive)
REMARK    1  A    between atoms: C_2  and  C_3
REMARK    2  A    between atoms: C_3  and  S_4
REMARK    3  A    between atoms: S_4  and  C_5
REMARK    4  A    between atoms: C_8  and  N_9
REMARK                            x       y       z     vdW  Elec       q    Type
REMARK                         _______ _______ _______ _____ _____    ______ ____
ROOT
ATOM      1  C   UNL     1       5.527   6.096  18.171  0.00  0.00    +0.000 C 
ENDROOT
BRANCH   1   3
ATOM      2  O   UNL     1       5.786   4.078  19.405  0.00  0.00    +0.000 OA
ATOM      3  C   UNL     1       5.004   4.943  19.015  0.00  0.00    +0.000 C 
ATOM      4  N   UNL     1       3.676   5.044  19.361  0.00  0.00    +0.000 N 
ATOM      5  C   UNL     1       3.037   4.108  20.121  0.00  0.00    +0.000 A 
ATOM      6  N   UNL     1       3.482   2.970  20.589  0.00  0.00    +0.000 NA
ATOM      7  C   UNL     1       2.486   2.354  21.319  0.00  0.00    +0.000 A 
ATOM      8  C   UNL     1       1.298   3.048  21.406  0.00  0.00    +0.000 A 
ATOM      9  S   UNL     1       1.419   4.504  20.505  0.00  0.00    +0.000 S 
ATOM     10  H   UNL     1       3.126   5.822  19.026  0.00  0.00    +0.000 HD
ENDBRANCH   1   3
BRANCH   1  11
ATOM     11  S   UNL     1       7.216   5.805  17.540  0.00  0.00    +0.000 S 
BRANCH  11  12
ATOM     12  C   UNL     1       6.832   5.080  15.956  0.00  0.00    +0.000 A 
ATOM     13  C   UNL     1       5.789   4.162  15.862  0.00  0.00    +0.000 A 
ATOM     14  C   UNL     1       5.510   3.573  14.627  0.00  0.00    +0.000 A 
ATOM     15  C   UNL     1       6.291   3.925  13.525  0.00  0.00    +0.000 A 
ATOM     16  C   UNL     1       7.302   4.854  13.695  0.00  0.00    +0.000 A 
ATOM     17  N   UNL     1       7.580   5.439  14.888  0.00  0.00    +0.000 NA
BRANCH  15  18
ATOM     18  N   UNL     1       6.064   3.329  12.217  0.00  0.00    +0.000 N 
ATOM     19  O   UNL     1       4.909   3.349  11.771  0.00  0.00    +0.000 OA
ATOM     20  O   UNL     1       7.037   2.841  11.630  0.00  0.00    +0.000 OA
ENDBRANCH  15  18
ENDBRANCH  11  12
ENDBRANCH   1  11
TORSDOF 4
ENDMDL
MODEL 3
REMARK VINA RESULT:      -6.7      4.029      6.401
REMARK  Name = 
REMARK  4 active torsions:
REMARK  status: ('A' for Active; 'I' for Inactive)
REMARK    1  A    between atoms: C_2  and  C_3
REMARK    2  A    between atoms: C_3  and  S_4
REMARK    3  A    between atoms: S_4  and  C_5
REMARK    4  A    between atoms: C_8  and  N_9
REMARK                            x       y       z     vdW  Elec       q    Type
REMARK                         _______ _______ _______ _____ _____    ______ ____
ROOT
ATOM      1  C   UNL     1       3.433   1.675  18.636  0.00  0.00    +0.000 C 
ENDROOT
BRANCH   1   3
ATOM      2  O   UNL     1       5.035   2.515  20.183  0.00  0.00    +0.000 OA
ATOM      3  C   UNL     1       4.528   2.639  19.070  0.00  0.00    +0.000 C 
ATOM      4  N   UNL     1       4.931   3.523  18.094  0.00  0.00    +0.000 N 
ATOM      5  C   UNL     1       5.906   4.455  18.300  0.00  0.00    +0.000 A 
ATOM      6  N   UNL     1       6.568   4.743  19.390  0.00  0.00    +0.000 NA
ATOM      7  C   UNL     1       7.471   5.751  19.126  0.00  0.00    +0.000 A 
ATOM      8  C   UNL     1       7.491   6.205  17.825  0.00  0.00    +0.000 A 
ATOM      9  S   UNL     1       6.305   5.367  16.909  0.00  0.00    +0.000 S 
ATOM     10  H   UNL     1       4.479   3.516  17.191  0.00  0.00    +0.000 HD
ENDBRANCH   1   3
BRANCH   1  11
ATOM     11  S   UNL     1       1.786   2.137  19.277  0.00  0.00    +0.000 S 
BRANCH  11  12
ATOM     12  C   UNL     1       1.920   3.915  19.218  0.00  0.00    +0.000 A 
ATOM     13  C   UNL     1       1.849   4.643  20.403  0.00  0.00    +0.000 A 
ATOM     14  C   UNL     1       1.923   6.036  20.351  0.00  0.00    +0.000 A 
ATOM     15  C   UNL     1       2.066   6.654  19.108  0.00  0.00    +0.000 A 
ATOM     16  C   UNL     1       2.142   5.862  17.975  0.00  0.00    +0.000 A 
ATOM     17  N   UNL     1       2.077   4.507  18.012  0.00  0.00    +0.000 NA
BRANCH  15  18
ATOM     18  N   UNL     1       2.126   8.103  18.986  0.00  0.00    +0.000 N 
ATOM     19  O   UNL     1       1.491   8.773  19.810  0.00  0.00    +0.000 OA
ATOM     20  O   UNL     1       2.810   8.576  18.070  0.00  0.00    +0.000 OA
ENDBRANCH  15  18
ENDBRANCH  11  12
ENDBRANCH   1  11
TORSDOF 4
ENDMDL
MODEL 4
REMARK VINA RESULT:      -6.6      2.574      6.876
REMARK  Name = 
REMARK  4 active torsions:
REMARK  status: ('A' for Active; 'I' for Inactive)
REMARK    1  A    between atoms: C_2  and  C_3
REMARK    2  A    between atoms: C_3  and  S_4
REMARK    3  A    between atoms: S_4  and  C_5
REMARK    4  A    between atoms: C_8  and  N_9
REMARK                            x       y       z     vdW  Elec       q    Type
REMARK                         _______ _______ _______ _____ _____    ______ ____
ROOT
ATOM      1  C   UNL     1       6.044   6.354  17.328  0.00  0.00    +0.000 C 
ENDROOT
BRANCH   1   3
ATOM      2  O   UNL     1       4.711   4.804  16.110  0.00  0.00    +0.000 OA
ATOM      3  C   UNL     1       5.764   5.437  16.146  0.00  0.00    +0.000 C 
ATOM      4  N   UNL     1       6.708   5.491  15.145  0.00  0.00    +0.000 N 
ATOM      5  C   UNL     1       6.619   4.745  14.006  0.00  0.00    +0.000 A 
ATOM      6  N   UNL     1       5.738   3.839  13.669  0.00  0.00    +0.000 NA
ATOM      7  C   UNL     1       6.037   3.352  12.413  0.00  0.00    +0.000 A 
ATOM      8  C   UNL     1       7.140   3.914  11.806  0.00  0.00    +0.000 A 
ATOM      9  S   UNL     1       7.853   5.061  12.866  0.00  0.00    +0.000 S 
ATOM     10  H   UNL     1       7.520   6.080  15.251  0.00  0.00    +0.000 HD
ENDBRANCH   1   3
BRANCH   1  11
ATOM     11  S   UNL     1       6.664   5.455  18.792  0.00  0.00    +0.000 S 
BRANCH  11  12
ATOM     12  C   UNL     1       5.147   4.704  19.357  0.00  0.00    +0.000 A 
ATOM     13  C   UNL     1       4.033   5.508  19.586  0.00  0.00    +0.000 A 
ATOM     14  C   UNL     1       2.857   4.922  20.058  0.00  0.00    +0.000 A 
ATOM     15  C   UNL     1       2.838   3.545  20.285  0.00  0.00    +0.000 A 
ATOM     16  C   UNL     1       3.982   2.811  20.022  0.00  0.00    +0.000 A 
ATOM     17  N   UNL     1       5.130   3.367  19.558  0.00  0.00    +0.000 NA
BRANCH  15  18
ATOM     18  N   UNL     1       1.650   2.880  20.797  0.00  0.00    +0.000 N 
ATOM     19  O   UNL     1       1.712   2.390  21.933  0.00  0.00    +0.000 OA
ATOM     20  O   UNL     1       0.650   2.847  20.070  0.00  0.00    +0.000 OA
ENDBRANCH  15  18
ENDBRANCH  11  12
ENDBRANCH   1  11
TORSDOF 4
ENDMDL
MODEL 5
REMARK VINA RESULT:      -6.4      1.594      1.777
REMARK  Name = 
REMARK  4 active torsions:
REMARK  status: ('A' for Active; 'I' for Inactive)
REMARK    1  A    between atoms: C_2  and  C_3
REMARK    2  A    between atoms: C_3  and  S_4
REMARK    3  A    between atoms: S_4  and  C_5
REMARK    4  A    between atoms: C_8  and  N_9
REMARK                            x       y       z     vdW  Elec       q    Type
REMARK                         _______ _______ _______ _____ _____    ______ ____
ROOT
ATOM      1  C   UNL     1       4.839   6.903  17.732  0.00  0.00    +0.000 C 
ENDROOT
BRANCH   1   3
ATOM      2  O   UNL     1       2.528   6.839  18.296  0.00  0.00    +0.000 OA
ATOM      3  C   UNL     1       3.620   6.283  18.400  0.00  0.00    +0.000 C 
ATOM      4  N   UNL     1       3.851   5.060  18.987  0.00  0.00    +0.000 N 
ATOM      5  C   UNL     1       2.874   4.353  19.627  0.00  0.00    +0.000 A 
ATOM      6  N   UNL     1       1.631   4.679  19.869  0.00  0.00    +0.000 NA
ATOM      7  C   UNL     1       1.006   3.645  20.535  0.00  0.00    +0.000 A 
ATOM      8  C   UNL     1       1.789   2.536  20.776  0.00  0.00    +0.000 A 
ATOM      9  S   UNL     1       3.376   2.817  20.185  0.00  0.00    +0.000 S 
ATOM     10  H   UNL     1       4.780   4.665  18.980  0.00  0.00    +0.000 HD
ENDBRANCH   1   3
BRANCH   1  11
ATOM     11  S   UNL     1       6.318   5.835  17.823  0.00  0.00    +0.000 S 
BRANCH  11  12
ATOM     12  C   UNL     1       6.313   5.160  16.171  0.00  0.00    +0.000 A 
ATOM     13  C   UNL     1       5.319   4.255  15.808  0.00  0.00    +0.000 A 
ATOM     14  C   UNL     1       5.336   3.705  14.525  0.00  0.00    +0.000 A 
ATOM     15  C   UNL     1       6.352   4.082  13.647  0.00  0.00    +0.000 A 
ATOM     16  C   UNL     1       7.298   4.998  14.076  0.00  0.00    +0.000 A 
ATOM     17  N   UNL     1       7.290   5.544  15.319  0.00  0.00    +0.000 NA
BRANCH  15  18
ATOM     18  N   UNL     1       6.436   3.527  12.304  0.00  0.00    +0.000 N 
ATOM     19  O   UNL     1       7.382   3.891  11.592  0.00  0.00    +0.000 OA
ATOM     20  O   UNL     1       5.560   2.726  11.957  0.00  0.00    +0.000 OA
ENDBRANCH  15  18
ENDBRANCH  11  12
ENDBRANCH   1  11
TORSDOF 4
ENDMDL
MODEL 6
REMARK VINA RESULT:      -6.4      4.068      7.224
REMARK  Name = 
REMARK  4 active torsions:
REMARK  status: ('A' for Active; 'I' for Inactive)
REMARK    1  A    between atoms: C_2  and  C_3
REMARK    2  A    between atoms: C_3  and  S_4
REMARK    3  A    between atoms: S_4  and  C_5
REMARK    4  A    between atoms: C_8  and  N_9
REMARK                            x       y       z     vdW  Elec       q    Type
REMARK                         _______ _______ _______ _____ _____    ______ ____
ROOT
ATOM      1  C   UNL     1       7.763   6.214  18.578  0.00  0.00    +0.000 C 
ENDROOT
BRANCH   1   3
ATOM      2  O   UNL     1       7.410   8.013  17.061  0.00  0.00    +0.000 OA
ATOM      3  C   UNL     1       7.941   7.651  18.109  0.00  0.00    +0.000 C 
ATOM      4  N   UNL     1       8.617   8.461  18.993  0.00  0.00    +0.000 N 
ATOM      5  C   UNL     1       8.864   9.780  18.745  0.00  0.00    +0.000 A 
ATOM      6  N   UNL     1       8.603  10.491  17.678  0.00  0.00    +0.000 NA
ATOM      7  C   UNL     1       9.020  11.790  17.880  0.00  0.00    +0.000 A 
ATOM      8  C   UNL     1       9.581  12.050  19.112  0.00  0.00    +0.000 A 
ATOM      9  S   UNL     1       9.627  10.602  20.035  0.00  0.00    +0.000 S 
ATOM     10  H   UNL     1       8.978   8.076  19.854  0.00  0.00    +0.000 HD
ENDBRANCH   1   3
BRANCH   1  11
ATOM     11  S   UNL     1       7.310   5.076  17.223  0.00  0.00    +0.000 S 
BRANCH  11  12
ATOM     12  C   UNL     1       5.720   4.517  17.809  0.00  0.00    +0.000 A 
ATOM     13  C   UNL     1       4.600   4.681  16.998  0.00  0.00    +0.000 A 
ATOM     14  C   UNL     1       3.352   4.270  17.472  0.00  0.00    +0.000 A 
ATOM     15  C   UNL     1       3.270   3.708  18.747  0.00  0.00    +0.000 A 
ATOM     16  C   UNL     1       4.431   3.567  19.488  0.00  0.00    +0.000 A 
ATOM     17  N   UNL     1       5.651   3.956  19.038  0.00  0.00    +0.000 NA
BRANCH  15  18
ATOM     18  N   UNL     1       1.996   3.282  19.304  0.00  0.00    +0.000 N 
ATOM     19  O   UNL     1       1.924   3.149  20.533  0.00  0.00    +0.000 OA
ATOM     20  O   UNL     1       1.062   3.081  18.518  0.00  0.00    +0.000 OA
ENDBRANCH  15  18
ENDBRANCH  11  12
ENDBRANCH   1  11
TORSDOF 4
ENDMDL
MODEL 7
REMARK VINA RESULT:      -6.4      1.370      1.381
REMARK  Name = 
REMARK  4 active torsions:
REMARK  status: ('A' for Active; 'I' for Inactive)
REMARK    1  A    between atoms: C_2  and  C_3
REMARK    2  A    between atoms: C_3  and  S_4
REMARK    3  A    between atoms: S_4  and  C_5
REMARK    4  A    between atoms: C_8  and  N_9
REMARK                            x       y       z     vdW  Elec       q    Type
REMARK                         _______ _______ _______ _____ _____    ______ ____
ROOT
ATOM      1  C   UNL     1       5.971   6.377  18.256  0.00  0.00    +0.000 C 
ENDROOT
BRANCH   1   3
ATOM      2  O   UNL     1       3.713   6.215  17.521  0.00  0.00    +0.000 OA
ATOM      3  C   UNL     1       4.565   5.796  18.303  0.00  0.00    +0.000 C 
ATOM      4  N   UNL     1       4.410   4.745  19.178  0.00  0.00    +0.000 N 
ATOM      5  C   UNL     1       3.222   4.096  19.348  0.00  0.00    +0.000 A 
ATOM      6  N   UNL     1       2.051   4.347  18.822  0.00  0.00    +0.000 NA
ATOM      7  C   UNL     1       1.137   3.417  19.271  0.00  0.00    +0.000 A 
ATOM      8  C   UNL     1       1.636   2.458  20.126  0.00  0.00    +0.000 A 
ATOM      9  S   UNL     1       3.303   2.759  20.411  0.00  0.00    +0.000 S 
ATOM     10  H   UNL     1       5.187   4.446  19.748  0.00  0.00    +0.000 HD
ENDBRANCH   1   3
BRANCH   1  11
ATOM     11  S   UNL     1       7.252   5.109  17.960  0.00  0.00    +0.000 S 
BRANCH  11  12
ATOM     12  C   UNL     1       6.868   4.669  16.275  0.00  0.00    +0.000 A 
ATOM     13  C   UNL     1       5.878   3.722  16.028  0.00  0.00    +0.000 A 
ATOM     14  C   UNL     1       5.600   3.356  14.709  0.00  0.00    +0.000 A 
ATOM     15  C   UNL     1       6.328   3.955  13.680  0.00  0.00    +0.000 A 
ATOM     16  C   UNL     1       7.288   4.898  14.004  0.00  0.00    +0.000 A 
ATOM     17  N   UNL     1       7.564   5.266  15.281  0.00  0.00    +0.000 NA
BRANCH  15  18
ATOM     18  N   UNL     1       6.100   3.599  12.288  0.00  0.00    +0.000 N 
ATOM     19  O   UNL     1       4.930   3.417  11.927  0.00  0.00    +0.000 OA
ATOM     20  O   UNL     1       7.088   3.503  11.549  0.00  0.00    +0.000 OA
ENDBRANCH  15  18
ENDBRANCH  11  12
ENDBRANCH   1  11
TORSDOF 4
ENDMDL
MODEL 8
REMARK VINA RESULT:      -6.4      0.772      1.184
REMARK  Name = 
REMARK  4 active torsions:
REMARK  status: ('A' for Active; 'I' for Inactive)
REMARK    1  A    between atoms: C_2  and  C_3
REMARK    2  A    between atoms: C_3  and  S_4
REMARK    3  A    between atoms: S_4  and  C_5
REMARK    4  A    between atoms: C_8  and  N_9
REMARK                            x       y       z     vdW  Elec       q    Type
REMARK                         _______ _______ _______ _____ _____    ______ ____
ROOT
ATOM      1  C   UNL     1       7.118   4.725  18.119  0.00  0.00    +0.000 C 
ENDROOT
BRANCH   1   3
ATOM      2  O   UNL     1       5.415   5.564  19.553  0.00  0.00    +0.000 OA
ATOM      3  C   UNL     1       5.782   4.631  18.841  0.00  0.00    +0.000 C 
ATOM      4  N   UNL     1       5.040   3.515  18.528  0.00  0.00    +0.000 N 
ATOM      5  C   UNL     1       3.814   3.267  19.073  0.00  0.00    +0.000 A 
ATOM      6  N   UNL     1       3.157   3.934  19.986  0.00  0.00    +0.000 NA
ATOM      7  C   UNL     1       1.944   3.320  20.219  0.00  0.00    +0.000 A 
ATOM      8  C   UNL     1       1.692   2.196  19.462  0.00  0.00    +0.000 A 
ATOM      9  S   UNL     1       3.043   1.872  18.453  0.00  0.00    +0.000 S 
ATOM     10  H   UNL     1       5.413   2.824  17.893  0.00  0.00    +0.000 HD
ENDBRANCH   1   3
BRANCH   1  11
ATOM     11  S   UNL     1       7.159   6.059  16.872  0.00  0.00    +0.000 S 
BRANCH  11  12
ATOM     12  C   UNL     1       6.675   5.141  15.421  0.00  0.00    +0.000 A 
ATOM     13  C   UNL     1       7.494   5.163  14.296  0.00  0.00    +0.000 A 
ATOM     14  C   UNL     1       7.098   4.469  13.151  0.00  0.00    +0.000 A 
ATOM     15  C   UNL     1       5.888   3.773  13.175  0.00  0.00    +0.000 A 
ATOM     16  C   UNL     1       5.134   3.787  14.335  0.00  0.00    +0.000 A 
ATOM     17  N   UNL     1       5.510   4.453  15.457  0.00  0.00    +0.000 NA
BRANCH  15  18
ATOM     18  N   UNL     1       5.410   3.049  12.007  0.00  0.00    +0.000 N 
ATOM     19  O   UNL     1       4.335   3.411  11.509  0.00  0.00    +0.000 OA
ATOM     20  O   UNL     1       6.106   2.120  11.580  0.00  0.00    +0.000 OA
ENDBRANCH  15  18
ENDBRANCH  11  12
ENDBRANCH   1  11
TORSDOF 4
ENDMDL
MODEL 9
REMARK VINA RESULT:      -6.3      1.535      1.624
REMARK  Name = 
REMARK  4 active torsions:
REMARK  status: ('A' for Active; 'I' for Inactive)
REMARK    1  A    between atoms: C_2  and  C_3
REMARK    2  A    between atoms: C_3  and  S_4
REMARK    3  A    between atoms: S_4  and  C_5
REMARK    4  A    between atoms: C_8  and  N_9
REMARK                            x       y       z     vdW  Elec       q    Type
REMARK                         _______ _______ _______ _____ _____    ______ ____
ROOT
ATOM      1  C   UNL     1       6.674   5.428  18.878  0.00  0.00    +0.000 C 
ENDROOT
BRANCH   1   3
ATOM      2  O   UNL     1       5.584   3.312  18.918  0.00  0.00    +0.000 OA
ATOM      3  C   UNL     1       5.464   4.526  19.074  0.00  0.00    +0.000 C 
ATOM      4  N   UNL     1       4.336   5.173  19.526  0.00  0.00    +0.000 N 
ATOM      5  C   UNL     1       3.159   4.525  19.765  0.00  0.00    +0.000 A 
ATOM      6  N   UNL     1       2.843   3.272  19.568  0.00  0.00    +0.000 NA
ATOM      7  C   UNL     1       1.540   3.059  19.969  0.00  0.00    +0.000 A 
ATOM      8  C   UNL     1       0.889   4.160  20.483  0.00  0.00    +0.000 A 
ATOM      9  S   UNL     1       1.934   5.522  20.420  0.00  0.00    +0.000 S 
ATOM     10  H   UNL     1       4.352   6.173  19.666  0.00  0.00    +0.000 HD
ENDBRANCH   1   3
BRANCH   1  11
ATOM     11  S   UNL     1       6.361   6.792  17.705  0.00  0.00    +0.000 S 
BRANCH  11  12
ATOM     12  C   UNL     1       6.341   5.881  16.171  0.00  0.00    +0.000 A 
ATOM     13  C   UNL     1       5.137   5.362  15.703  0.00  0.00    +0.000 A 
ATOM     14  C   UNL     1       5.129   4.623  14.519  0.00  0.00    +0.000 A 
ATOM     15  C   UNL     1       6.334   4.428  13.842  0.00  0.00    +0.000 A 
ATOM     16  C   UNL     1       7.489   4.986  14.364  0.00  0.00    +0.000 A 
ATOM     17  N   UNL     1       7.509   5.712  15.511  0.00  0.00    +0.000 NA
BRANCH  15  18
ATOM     18  N   UNL     1       6.395   3.649  12.615  0.00  0.00    +0.000 N 
ATOM     19  O   UNL     1       5.547   2.759  12.459  0.00  0.00    +0.000 OA
ATOM     20  O   UNL     1       7.286   3.923  11.802  0.00  0.00    +0.000 OA
ENDBRANCH  15  18
ENDBRANCH  11  12
ENDBRANCH   1  11
TORSDOF 4
ENDMDL
