MODEL 1
REMARK VINA RESULT:      -7.7      0.000      0.000
REMARK  Name = 
REMARK  7 active torsions:
REMARK  status: ('A' for Active; 'I' for Inactive)
REMARK    1  A    between atoms: C_1  and  O_2
REMARK    2  A    between atoms: O_2  and  C_3
REMARK    3  A    between atoms: C_6  and  N_7
REMARK    4  A    between atoms: N_10  and  C_11
REMARK    5  A    between atoms: C_11  and  C_12
REMARK    6  A    between atoms: C_22  and  O_23
REMARK    7  A    between atoms: O_23  and  C_24
REMARK                            x       y       z     vdW  Elec       q    Type
REMARK                         _______ _______ _______ _____ _____    ______ ____
ROOT
ATOM      1  N   UNL     1       3.366   6.720  18.505  0.00  0.00    +0.000 N 
ATOM      2  C   UNL     1       2.870   6.230  19.686  0.00  0.00    +0.000 C 
ATOM      3  O   UNL     1       3.120   5.142  20.188  0.00  0.00    +0.000 OA
ATOM      4  N   UNL     1       2.039   7.110  20.317  0.00  0.00    +0.000 N 
ATOM      5  H   UNL     1       3.614   7.692  18.615  0.00  0.00    +0.000 HD
ATOM      6  H   UNL     1       1.646   6.758  21.183  0.00  0.00    +0.000 HD
ENDROOT
BRANCH   1  10
ATOM      7  C   UNL     1       6.100   4.885  15.968  0.00  0.00    +0.000 A 
ATOM      8  C   UNL     1       4.853   4.282  16.223  0.00  0.00    +0.000 A 
ATOM      9  C   UNL     1       3.956   4.840  17.127  0.00  0.00    +0.000 A 
ATOM     10  C   UNL     1       4.321   6.001  17.784  0.00  0.00    +0.000 A 
ATOM     11  C   UNL     1       5.577   6.574  17.601  0.00  0.00    +0.000 A 
ATOM     12  C   UNL     1       6.487   6.010  16.719  0.00  0.00    +0.000 A 
BRANCH   7  14
ATOM     13  C   UNL     1       6.281   3.876  13.841  0.00  0.00    +0.000 C 
ATOM     14  O   UNL     1       6.935   4.399  14.992  0.00  0.00    +0.000 OA
ENDBRANCH   7  14
BRANCH  12  15
ATOM     15  O   UNL     1       7.663   6.713  16.693  0.00  0.00    +0.000 OA
ATOM     16  C   UNL     1       7.829   7.833  17.545  0.00  0.00    +0.000 C 
ENDBRANCH  12  15
ENDBRANCH   1  10
BRANCH   4  17
ATOM     17  C   UNL     1       1.514   8.328  19.736  0.00  0.00    +0.000 C 
BRANCH  17  18
ATOM     18  C   UNL     1       0.650   9.029  20.732  0.00  0.00    +0.000 A 
ATOM     19  C   UNL     1       0.734   8.693  22.102  0.00  0.00    +0.000 A 
ATOM     20  C   UNL     1       0.109   9.487  23.065  0.00  0.00    +0.000 A 
ATOM     21  C   UNL     1      -0.548  10.611  22.623  0.00  0.00    +0.000 A 
ATOM     22  C   UNL     1      -0.671  10.910  21.282  0.00  0.00    +0.000 A 
ATOM     23  C   UNL     1      -0.109  10.128  20.307  0.00  0.00    +0.000 A 
ATOM     24  O   UNL     1      -1.295  12.101  21.072  0.00  0.00    +0.000 OA
ATOM     25  C   UNL     1      -1.222  12.632  22.409  0.00  0.00    +0.000 C 
ATOM     26  O   UNL     1      -1.065  11.600  23.405  0.00  0.00    +0.000 OA
ENDBRANCH  17  18
ENDBRANCH   4  17
TORSDOF 5
ENDMDL
MODEL 2
REMARK VINA RESULT:      -7.6      4.358      7.901
REMARK  Name = 
REMARK  7 active torsions:
REMARK  status: ('A' for Active; 'I' for Inactive)
REMARK    1  A    between atoms: C_1  and  O_2
REMARK    2  A    between atoms: O_2  and  C_3
REMARK    3  A    between atoms: C_6  and  N_7
REMARK    4  A    between atoms: N_10  and  C_11
REMARK    5  A    between atoms: C_11  and  C_12
REMARK    6  A    between atoms: C_22  and  O_23
REMARK    7  A    between atoms: O_23  and  C_24
REMARK                            x       y       z     vdW  Elec       q    Type
REMARK                         _______ _______ _______ _____ _____    ______ ____
ROOT
ATOM      1  N   UNL     1       6.438   7.291  17.358  0.00  0.00    +0.000 N 
ATOM      2  C   UNL     1       7.514   7.066  18.178  0.00  0.00    +0.000 C 
ATOM      3  O   UNL     1       7.739   6.051  18.824  0.00  0.00    +0.000 OA
ATOM      4  N   UNL     1       8.385   8.116  18.208  0.00  0.00    +0.000 N 
ATOM      5  H   UNL     1       6.742   7.746  16.511  0.00  0.00    +0.000 HD
ATOM      6  H   UNL     1       9.178   7.977  18.825  0.00  0.00    +0.000 HD
ENDROOT
BRANCH   1  10
ATOM      7  C   UNL     1       3.814   4.079  17.080  0.00  0.00    +0.000 A 
ATOM      8  C   UNL     1       5.001   4.093  16.323  0.00  0.00    +0.000 A 
ATOM      9  C   UNL     1       5.854   5.191  16.343  0.00  0.00    +0.000 A 
ATOM     10  C   UNL     1       5.504   6.281  17.119  0.00  0.00    +0.000 A 
ATOM     11  C   UNL     1       4.301   6.317  17.818  0.00  0.00    +0.000 A 
ATOM     12  C   UNL     1       3.432   5.236  17.784  0.00  0.00    +0.000 A 
BRANCH   7  14
ATOM     13  C   UNL     1       3.351   2.060  18.215  0.00  0.00    +0.000 C 
ATOM     14  O   UNL     1       3.033   2.951  17.151  0.00  0.00    +0.000 OA
ENDBRANCH   7  14
BRANCH  12  15
ATOM     15  O   UNL     1       2.304   5.474  18.523  0.00  0.00    +0.000 OA
ATOM     16  C   UNL     1       2.412   5.685  19.920  0.00  0.00    +0.000 C 
ENDBRANCH  12  15
ENDBRANCH   1  10
BRANCH   4  17
ATOM     17  C   UNL     1       8.132   9.429  17.654  0.00  0.00    +0.000 C 
BRANCH  17  18
ATOM     18  C   UNL     1       8.936  10.450  18.390  0.00  0.00    +0.000 A 
ATOM     19  C   UNL     1       9.201  10.282  19.768  0.00  0.00    +0.000 A 
ATOM     20  C   UNL     1      10.132  11.096  20.413  0.00  0.00    +0.000 A 
ATOM     21  C   UNL     1      10.793  12.027  19.646  0.00  0.00    +0.000 A 
ATOM     22  C   UNL     1      10.497  12.222  18.313  0.00  0.00    +0.000 A 
ATOM     23  C   UNL     1       9.556  11.473  17.658  0.00  0.00    +0.000 A 
ATOM     24  O   UNL     1      11.316  13.139  17.731  0.00  0.00    +0.000 OA
ATOM     25  C   UNL     1      12.333  13.212  18.748  0.00  0.00    +0.000 C 
ATOM     26  O   UNL     1      11.852  12.788  20.041  0.00  0.00    +0.000 OA
ENDBRANCH  17  18
ENDBRANCH   4  17
TORSDOF 5
ENDMDL
MODEL 3
REMARK VINA RESULT:      -7.4      4.305      7.579
REMARK  Name = 
REMARK  7 active torsions:
REMARK  status: ('A' for Active; 'I' for Inactive)
REMARK    1  A    between atoms: C_1  and  O_2
REMARK    2  A    between atoms: O_2  and  C_3
REMARK    3  A    between atoms: C_6  and  N_7
REMARK    4  A    between atoms: N_10  and  C_11
REMARK    5  A    between atoms: C_11  and  C_12
REMARK    6  A    between atoms: C_22  and  O_23
REMARK    7  A    between atoms: O_23  and  C_24
REMARK                            x       y       z     vdW  Elec       q    Type
REMARK                         _______ _______ _______ _____ _____    ______ ____
ROOT
ATOM      1  N   UNL     1       6.718   7.215  17.558  0.00  0.00    +0.000 N 
ATOM      2  C   UNL     1       7.709   7.007  18.483  0.00  0.00    +0.000 C 
ATOM      3  O   UNL     1       7.863   6.011  19.178  0.00  0.00    +0.000 OA
ATOM      4  N   UNL     1       8.584   8.052  18.565  0.00  0.00    +0.000 N 
ATOM      5  H   UNL     1       7.106   7.642  16.730  0.00  0.00    +0.000 HD
ATOM      6  H   UNL     1       9.313   7.927  19.259  0.00  0.00    +0.000 HD
ENDROOT
BRANCH   1  10
ATOM      7  C   UNL     1       4.114   4.005  17.119  0.00  0.00    +0.000 A 
ATOM      8  C   UNL     1       5.355   4.007  16.455  0.00  0.00    +0.000 A 
ATOM      9  C   UNL     1       6.207   5.104  16.527  0.00  0.00    +0.000 A 
ATOM     10  C   UNL     1       5.803   6.204  17.260  0.00  0.00    +0.000 A 
ATOM     11  C   UNL     1       4.549   6.252  17.865  0.00  0.00    +0.000 A 
ATOM     12  C   UNL     1       3.682   5.172  17.778  0.00  0.00    +0.000 A 
BRANCH   7  14
ATOM     13  C   UNL     1       3.615   1.961  18.192  0.00  0.00    +0.000 C 
ATOM     14  O   UNL     1       3.325   2.881  17.144  0.00  0.00    +0.000 OA
ENDBRANCH   7  14
BRANCH  12  15
ATOM     15  O   UNL     1       2.501   5.422  18.425  0.00  0.00    +0.000 OA
ATOM     16  C   UNL     1       2.495   6.244  19.579  0.00  0.00    +0.000 C 
ENDBRANCH  12  15
ENDBRANCH   1  10
BRANCH   4  17
ATOM     17  C   UNL     1       8.397   9.349  17.951  0.00  0.00    +0.000 C 
BRANCH  17  18
ATOM     18  C   UNL     1       9.291  10.350  18.606  0.00  0.00    +0.000 A 
ATOM     19  C   UNL     1      10.173  11.129  17.823  0.00  0.00    +0.000 A 
ATOM     20  C   UNL     1      10.843  12.217  18.382  0.00  0.00    +0.000 A 
ATOM     21  C   UNL     1      10.577  12.510  19.699  0.00  0.00    +0.000 A 
ATOM     22  C   UNL     1       9.753  11.721  20.475  0.00  0.00    +0.000 A 
ATOM     23  C   UNL     1       9.116  10.617  19.971  0.00  0.00    +0.000 A 
ATOM     24  O   UNL     1       9.572  12.231  21.723  0.00  0.00    +0.000 OA
ATOM     25  C   UNL     1      10.083  13.559  21.499  0.00  0.00    +0.000 C 
ATOM     26  O   UNL     1      10.984  13.622  20.374  0.00  0.00    +0.000 OA
ENDBRANCH  17  18
ENDBRANCH   4  17
TORSDOF 5
ENDMDL
MODEL 4
REMARK VINA RESULT:      -7.4      1.232      1.238
REMARK  Name = 
REMARK  7 active torsions:
REMARK  status: ('A' for Active; 'I' for Inactive)
REMARK    1  A    between atoms: C_1  and  O_2
REMARK    2  A    between atoms: O_2  and  C_3
REMARK    3  A    between atoms: C_6  and  N_7
REMARK    4  A    between atoms: N_10  and  C_11
REMARK    5  A    between atoms: C_11  and  C_12
REMARK    6  A    between atoms: C_22  and  O_23
REMARK    7  A    between atoms: O_23  and  C_24
REMARK                            x       y       z     vdW  Elec       q    Type
REMARK                         _______ _______ _______ _____ _____    ______ ____
ROOT
ATOM      1  N   UNL     1       3.207   6.654  18.886  0.00  0.00    +0.000 N 
ATOM      2  C   UNL     1       2.632   7.759  18.313  0.00  0.00    +0.000 C 
ATOM      3  O   UNL     1       2.838   8.188  17.185  0.00  0.00    +0.000 OA
ATOM      4  N   UNL     1       1.736   8.377  19.137  0.00  0.00    +0.000 N 
ATOM      5  H   UNL     1       2.510   6.129  19.394  0.00  0.00    +0.000 HD
ATOM      6  H   UNL     1       1.315   9.209  18.739  0.00  0.00    +0.000 HD
ENDROOT
BRANCH   1  10
ATOM      7  C   UNL     1       5.607   4.481  16.280  0.00  0.00    +0.000 A 
ATOM      8  C   UNL     1       4.384   3.948  16.729  0.00  0.00    +0.000 A 
ATOM      9  C   UNL     1       3.603   4.624  17.660  0.00  0.00    +0.000 A 
ATOM     10  C   UNL     1       4.061   5.835  18.147  0.00  0.00    +0.000 A 
ATOM     11  C   UNL     1       5.302   6.345  17.771  0.00  0.00    +0.000 A 
ATOM     12  C   UNL     1       6.098   5.664  16.862  0.00  0.00    +0.000 A 
BRANCH   7  14
ATOM     13  C   UNL     1       5.900   4.190  13.955  0.00  0.00    +0.000 C 
ATOM     14  O   UNL     1       6.320   3.870  15.277  0.00  0.00    +0.000 OA
ENDBRANCH   7  14
BRANCH  12  15
ATOM     15  O   UNL     1       7.278   6.322  16.636  0.00  0.00    +0.000 OA
ATOM     16  C   UNL     1       7.591   7.479  17.392  0.00  0.00    +0.000 C 
ENDBRANCH  12  15
ENDBRANCH   1  10
BRANCH   4  17
ATOM     17  C   UNL     1       1.557   8.089  20.544  0.00  0.00    +0.000 C 
BRANCH  17  18
ATOM     18  C   UNL     1       0.660   9.112  21.158  0.00  0.00    +0.000 A 
ATOM     19  C   UNL     1       0.061   8.865  22.415  0.00  0.00    +0.000 A 
ATOM     20  C   UNL     1      -0.588   9.890  23.103  0.00  0.00    +0.000 A 
ATOM     21  C   UNL     1      -0.583  11.138  22.525  0.00  0.00    +0.000 A 
ATOM     22  C   UNL     1      -0.040  11.366  21.277  0.00  0.00    +0.000 A 
ATOM     23  C   UNL     1       0.564  10.373  20.552  0.00  0.00    +0.000 A 
ATOM     24  O   UNL     1      -0.078  12.681  20.929  0.00  0.00    +0.000 OA
ATOM     25  C   UNL     1      -0.377  13.247  22.219  0.00  0.00    +0.000 C 
ATOM     26  O   UNL     1      -1.000  12.297  23.108  0.00  0.00    +0.000 OA
ENDBRANCH  17  18
ENDBRANCH   4  17
TORSDOF 5
ENDMDL
MODEL 5
REMARK VINA RESULT:      -7.4      2.126      7.976
REMARK  Name = 
REMARK  7 active torsions:
REMARK  status: ('A' for Active; 'I' for Inactive)
REMARK    1  A    between atoms: C_1  and  O_2
REMARK    2  A    between atoms: O_2  and  C_3
REMARK    3  A    between atoms: C_6  and  N_7
REMARK    4  A    between atoms: N_10  and  C_11
REMARK    5  A    between atoms: C_11  and  C_12
REMARK    6  A    between atoms: C_22  and  O_23
REMARK    7  A    between atoms: O_23  and  C_24
REMARK                            x       y       z     vdW  Elec       q    Type
REMARK                         _______ _______ _______ _____ _____    ______ ____
ROOT
ATOM      1  N   UNL     1       3.067   5.804  18.731  0.00  0.00    +0.000 N 
ATOM      2  C   UNL     1       2.316   4.852  18.090  0.00  0.00    +0.000 C 
ATOM      3  O   UNL     1       1.178   4.987  17.662  0.00  0.00    +0.000 OA
ATOM      4  N   UNL     1       2.982   3.671  17.933  0.00  0.00    +0.000 N 
ATOM      5  H   UNL     1       4.017   5.777  18.392  0.00  0.00    +0.000 HD
ATOM      6  H   UNL     1       2.436   2.947  17.479  0.00  0.00    +0.000 HD
ENDROOT
BRANCH   1  10
ATOM      7  C   UNL     1       1.178   9.489  19.096  0.00  0.00    +0.000 A 
ATOM      8  C   UNL     1       1.818   9.136  17.893  0.00  0.00    +0.000 A 
ATOM      9  C   UNL     1       2.521   7.942  17.775  0.00  0.00    +0.000 A 
ATOM     10  C   UNL     1       2.588   7.107  18.876  0.00  0.00    +0.000 A 
ATOM     11  C   UNL     1       2.024   7.470  20.096  0.00  0.00    +0.000 A 
ATOM     12  C   UNL     1       1.341   8.671  20.229  0.00  0.00    +0.000 A 
BRANCH   7  14
ATOM     13  C   UNL     1      -0.953  10.439  18.731  0.00  0.00    +0.000 C 
ATOM     14  O   UNL     1       0.388  10.610  19.176  0.00  0.00    +0.000 OA
ENDBRANCH   7  14
BRANCH  12  15
ATOM     15  O   UNL     1       0.876   8.845  21.505  0.00  0.00    +0.000 OA
ATOM     16  C   UNL     1      -0.448   8.458  21.828  0.00  0.00    +0.000 C 
ENDBRANCH  12  15
ENDBRANCH   1  10
BRANCH   4  17
ATOM     17  C   UNL     1       4.239   3.329  18.564  0.00  0.00    +0.000 C 
BRANCH  17  18
ATOM     18  C   UNL     1       5.343   4.127  17.954  0.00  0.00    +0.000 A 
ATOM     19  C   UNL     1       5.412   4.281  16.551  0.00  0.00    +0.000 A 
ATOM     20  C   UNL     1       6.293   5.203  15.983  0.00  0.00    +0.000 A 
ATOM     21  C   UNL     1       7.048   5.964  16.844  0.00  0.00    +0.000 A 
ATOM     22  C   UNL     1       7.015   5.778  18.211  0.00  0.00    +0.000 A 
ATOM     23  C   UNL     1       6.196   4.850  18.799  0.00  0.00    +0.000 A 
ATOM     24  O   UNL     1       7.782   6.684  18.875  0.00  0.00    +0.000 OA
ATOM     25  C   UNL     1       7.996   7.625  17.807  0.00  0.00    +0.000 C 
ATOM     26  O   UNL     1       7.827   7.029  16.503  0.00  0.00    +0.000 OA
ENDBRANCH  17  18
ENDBRANCH   4  17
TORSDOF 5
ENDMDL
MODEL 6
REMARK VINA RESULT:      -7.3      1.864      8.489
REMARK  Name = 
REMARK  7 active torsions:
REMARK  status: ('A' for Active; 'I' for Inactive)
REMARK    1  A    between atoms: C_1  and  O_2
REMARK    2  A    between atoms: O_2  and  C_3
REMARK    3  A    between atoms: C_6  and  N_7
REMARK    4  A    between atoms: N_10  and  C_11
REMARK    5  A    between atoms: C_11  and  C_12
REMARK    6  A    between atoms: C_22  and  O_23
REMARK    7  A    between atoms: O_23  and  C_24
REMARK                            x       y       z     vdW  Elec       q    Type
REMARK                         _______ _______ _______ _____ _____    ______ ____
ROOT
ATOM      1  N   UNL     1       3.157   5.883  19.275  0.00  0.00    +0.000 N 
ATOM      2  C   UNL     1       2.427   4.735  19.098  0.00  0.00    +0.000 C 
ATOM      3  O   UNL     1       1.207   4.641  19.077  0.00  0.00    +0.000 OA
ATOM      4  N   UNL     1       3.211   3.633  18.915  0.00  0.00    +0.000 N 
ATOM      5  H   UNL     1       3.938   5.894  18.637  0.00  0.00    +0.000 HD
ATOM      6  H   UNL     1       2.690   2.770  18.803  0.00  0.00    +0.000 HD
ENDROOT
BRANCH   1  10
ATOM      7  C   UNL     1       0.835   9.328  19.414  0.00  0.00    +0.000 A 
ATOM      8  C   UNL     1       1.655   9.069  18.299  0.00  0.00    +0.000 A 
ATOM      9  C   UNL     1       2.497   7.963  18.266  0.00  0.00    +0.000 A 
ATOM     10  C   UNL     1       2.520   7.121  19.363  0.00  0.00    +0.000 A 
ATOM     11  C   UNL     1       1.772   7.398  20.505  0.00  0.00    +0.000 A 
ATOM     12  C   UNL     1       0.948   8.513  20.556  0.00  0.00    +0.000 A 
BRANCH   7  14
ATOM     13  C   UNL     1       0.475  11.660  19.515  0.00  0.00    +0.000 C 
ATOM     14  O   UNL     1      -0.079  10.353  19.399  0.00  0.00    +0.000 OA
ENDBRANCH   7  14
BRANCH  12  15
ATOM     15  O   UNL     1       0.312   8.613  21.764  0.00  0.00    +0.000 OA
ATOM     16  C   UNL     1       0.810   9.503  22.747  0.00  0.00    +0.000 C 
ENDBRANCH  12  15
ENDBRANCH   1  10
BRANCH   4  17
ATOM     17  C   UNL     1       4.644   3.582  19.117  0.00  0.00    +0.000 C 
BRANCH  17  18
ATOM     18  C   UNL     1       5.337   4.266  17.985  0.00  0.00    +0.000 A 
ATOM     19  C   UNL     1       6.535   4.980  18.217  0.00  0.00    +0.000 A 
ATOM     20  C   UNL     1       7.311   5.427  17.148  0.00  0.00    +0.000 A 
ATOM     21  C   UNL     1       6.879   5.109  15.881  0.00  0.00    +0.000 A 
ATOM     22  C   UNL     1       5.686   4.455  15.655  0.00  0.00    +0.000 A 
ATOM     23  C   UNL     1       4.875   4.043  16.680  0.00  0.00    +0.000 A 
ATOM     24  O   UNL     1       5.489   4.180  14.338  0.00  0.00    +0.000 OA
ATOM     25  C   UNL     1       6.823   4.423  13.854  0.00  0.00    +0.000 C 
ATOM     26  O   UNL     1       7.575   5.295  14.724  0.00  0.00    +0.000 OA
ENDBRANCH  17  18
ENDBRANCH   4  17
TORSDOF 5
ENDMDL
MODEL 7
REMARK VINA RESULT:      -7.3      1.894      2.925
REMARK  Name = 
REMARK  7 active torsions:
REMARK  status: ('A' for Active; 'I' for Inactive)
REMARK    1  A    between atoms: C_1  and  O_2
REMARK    2  A    between atoms: O_2  and  C_3
REMARK    3  A    between atoms: C_6  and  N_7
REMARK    4  A    between atoms: N_10  and  C_11
REMARK    5  A    between atoms: C_11  and  C_12
REMARK    6  A    between atoms: C_22  and  O_23
REMARK    7  A    between atoms: O_23  and  C_24
REMARK                            x       y       z     vdW  Elec       q    Type
REMARK                         _______ _______ _______ _____ _____    ______ ____
ROOT
ATOM      1  N   UNL     1       4.140   4.579  18.022  0.00  0.00    +0.000 N 
ATOM      2  C   UNL     1       4.297   3.965  19.238  0.00  0.00    +0.000 C 
ATOM      3  O   UNL     1       5.280   3.345  19.622  0.00  0.00    +0.000 OA
ATOM      4  N   UNL     1       3.214   4.123  20.054  0.00  0.00    +0.000 N 
ATOM      5  H   UNL     1       3.703   5.480  18.147  0.00  0.00    +0.000 HD
ATOM      6  H   UNL     1       3.301   3.658  20.951  0.00  0.00    +0.000 HD
ENDROOT
BRANCH   1  10
ATOM      7  C   UNL     1       7.009   5.049  15.052  0.00  0.00    +0.000 A 
ATOM      8  C   UNL     1       6.123   3.956  15.015  0.00  0.00    +0.000 A 
ATOM      9  C   UNL     1       5.207   3.738  16.038  0.00  0.00    +0.000 A 
ATOM     10  C   UNL     1       5.193   4.617  17.106  0.00  0.00    +0.000 A 
ATOM     11  C   UNL     1       6.109   5.662  17.197  0.00  0.00    +0.000 A 
ATOM     12  C   UNL     1       7.042   5.872  16.193  0.00  0.00    +0.000 A 
BRANCH   7  14
ATOM     13  C   UNL     1       7.439   4.750  12.749  0.00  0.00    +0.000 C 
ATOM     14  O   UNL     1       7.832   5.330  13.988  0.00  0.00    +0.000 OA
ENDBRANCH   7  14
BRANCH  12  15
ATOM     15  O   UNL     1       7.856   6.936  16.477  0.00  0.00    +0.000 OA
ATOM     16  C   UNL     1       7.525   7.805  17.546  0.00  0.00    +0.000 C 
ENDBRANCH  12  15
ENDBRANCH   1  10
BRANCH   4  17
ATOM     17  C   UNL     1       1.931   4.655  19.647  0.00  0.00    +0.000 C 
BRANCH  17  18
ATOM     18  C   UNL     1       1.946   6.144  19.751  0.00  0.00    +0.000 A 
ATOM     19  C   UNL     1       2.205   6.931  18.606  0.00  0.00    +0.000 A 
ATOM     20  C   UNL     1       2.000   8.310  18.633  0.00  0.00    +0.000 A 
ATOM     21  C   UNL     1       1.505   8.849  19.798  0.00  0.00    +0.000 A 
ATOM     22  C   UNL     1       1.299   8.088  20.930  0.00  0.00    +0.000 A 
ATOM     23  C   UNL     1       1.535   6.739  20.953  0.00  0.00    +0.000 A 
ATOM     24  O   UNL     1       0.741   8.806  21.941  0.00  0.00    +0.000 OA
ATOM     25  C   UNL     1       0.323   9.964  21.193  0.00  0.00    +0.000 C 
ATOM     26  O   UNL     1       1.073  10.130  19.971  0.00  0.00    +0.000 OA
ENDBRANCH  17  18
ENDBRANCH   4  17
TORSDOF 5
ENDMDL
MODEL 8
REMARK VINA RESULT:      -7.3      3.533      4.960
REMARK  Name = 
REMARK  7 active torsions:
REMARK  status: ('A' for Active; 'I' for Inactive)
REMARK    1  A    between atoms: C_1  and  O_2
REMARK    2  A    between atoms: O_2  and  C_3
REMARK    3  A    between atoms: C_6  and  N_7
REMARK    4  A    between atoms: N_10  and  C_11
REMARK    5  A    between atoms: C_11  and  C_12
REMARK    6  A    between atoms: C_22  and  O_23
REMARK    7  A    between atoms: O_23  and  C_24
REMARK                            x       y       z     vdW  Elec       q    Type
REMARK                         _______ _______ _______ _____ _____    ______ ____
ROOT
ATOM      1  N   UNL     1       2.118   7.600  18.660  0.00  0.00    +0.000 N 
ATOM      2  C   UNL     1       2.337   8.572  17.717  0.00  0.00    +0.000 C 
ATOM      3  O   UNL     1       3.118   8.513  16.776  0.00  0.00    +0.000 OA
ATOM      4  N   UNL     1       1.555   9.674  17.903  0.00  0.00    +0.000 N 
ATOM      5  H   UNL     1       1.130   7.518  18.845  0.00  0.00    +0.000 HD
ATOM      6  H   UNL     1       1.717  10.414  17.227  0.00  0.00    +0.000 HD
ENDROOT
BRANCH   1  10
ATOM      7  C   UNL     1       3.781   3.793  18.804  0.00  0.00    +0.000 A 
ATOM      8  C   UNL     1       4.560   4.920  19.128  0.00  0.00    +0.000 A 
ATOM      9  C   UNL     1       4.046   6.207  19.012  0.00  0.00    +0.000 A 
ATOM     10  C   UNL     1       2.748   6.359  18.559  0.00  0.00    +0.000 A 
ATOM     11  C   UNL     1       1.985   5.262  18.164  0.00  0.00    +0.000 A 
ATOM     12  C   UNL     1       2.499   3.977  18.253  0.00  0.00    +0.000 A 
BRANCH   7  14
ATOM     13  C   UNL     1       4.339   2.142  20.398  0.00  0.00    +0.000 C 
ATOM     14  O   UNL     1       4.248   2.521  19.028  0.00  0.00    +0.000 OA
ENDBRANCH   7  14
BRANCH  12  15
ATOM     15  O   UNL     1       1.600   3.045  17.806  0.00  0.00    +0.000 OA
ATOM     16  C   UNL     1       0.739   2.402  18.729  0.00  0.00    +0.000 C 
ENDBRANCH  12  15
ENDBRANCH   1  10
BRANCH   4  17
ATOM     17  C   UNL     1       0.751   9.942  19.076  0.00  0.00    +0.000 C 
BRANCH  17  18
ATOM     18  C   UNL     1      -0.647  10.269  18.666  0.00  0.00    +0.000 A 
ATOM     19  C   UNL     1      -1.356  11.297  19.329  0.00  0.00    +0.000 A 
ATOM     20  C   UNL     1      -2.565  11.767  18.815  0.00  0.00    +0.000 A 
ATOM     21  C   UNL     1      -3.003  11.216  17.633  0.00  0.00    +0.000 A 
ATOM     22  C   UNL     1      -2.334  10.180  17.014  0.00  0.00    +0.000 A 
ATOM     23  C   UNL     1      -1.169   9.662  17.515  0.00  0.00    +0.000 A 
ATOM     24  O   UNL     1      -2.900   9.838  15.825  0.00  0.00    +0.000 OA
ATOM     25  C   UNL     1      -3.750  10.985  15.640  0.00  0.00    +0.000 C 
ATOM     26  O   UNL     1      -4.053  11.654  16.882  0.00  0.00    +0.000 OA
ENDBRANCH  17  18
ENDBRANCH   4  17
TORSDOF 5
ENDMDL
MODEL 9
REMARK VINA RESULT:      -7.3      1.933      8.404
REMARK  Name = 
REMARK  7 active torsions:
REMARK  status: ('A' for Active; 'I' for Inactive)
REMARK    1  A    between atoms: C_1  and  O_2
REMARK    2  A    between atoms: O_2  and  C_3
REMARK    3  A    between atoms: C_6  and  N_7
REMARK    4  A    between atoms: N_10  and  C_11
REMARK    5  A    between atoms: C_11  and  C_12
REMARK    6  A    between atoms: C_22  and  O_23
REMARK    7  A    between atoms: O_23  and  C_24
REMARK                            x       y       z     vdW  Elec       q    Type
REMARK                         _______ _______ _______ _____ _____    ______ ____
ROOT
ATOM      1  N   UNL     1       2.998   5.751  19.535  0.00  0.00    +0.000 N 
ATOM      2  C   UNL     1       2.438   4.531  19.256  0.00  0.00    +0.000 C 
ATOM      3  O   UNL     1       1.243   4.267  19.217  0.00  0.00    +0.000 OA
ATOM      4  N   UNL     1       3.369   3.571  18.984  0.00  0.00    +0.000 N 
ATOM      5  H   UNL     1       3.767   5.927  18.906  0.00  0.00    +0.000 HD
ATOM      6  H   UNL     1       2.975   2.655  18.795  0.00  0.00    +0.000 HD
ENDROOT
BRANCH   1  10
ATOM      7  C   UNL     1       1.023   9.343  20.225  0.00  0.00    +0.000 A 
ATOM      8  C   UNL     1       0.983   8.315  21.186  0.00  0.00    +0.000 A 
ATOM      9  C   UNL     1       1.572   7.079  20.943  0.00  0.00    +0.000 A 
ATOM     10  C   UNL     1       2.192   6.875  19.724  0.00  0.00    +0.000 A 
ATOM     11  C   UNL     1       2.180   7.852  18.732  0.00  0.00    +0.000 A 
ATOM     12  C   UNL     1       1.574   9.079  18.957  0.00  0.00    +0.000 A 
BRANCH   7  14
ATOM     13  C   UNL     1      -0.372  10.665  21.597  0.00  0.00    +0.000 C 
ATOM     14  O   UNL     1       0.544  10.598  20.510  0.00  0.00    +0.000 OA
ENDBRANCH   7  14
BRANCH  12  15
ATOM     15  O   UNL     1       1.659   9.891  17.857  0.00  0.00    +0.000 OA
ATOM     16  C   UNL     1       2.302  11.149  17.963  0.00  0.00    +0.000 C 
ENDBRANCH  12  15
ENDBRANCH   1  10
BRANCH   4  17
ATOM     17  C   UNL     1       4.795   3.706  19.191  0.00  0.00    +0.000 C 
BRANCH  17  18
ATOM     18  C   UNL     1       5.412   4.397  18.020  0.00  0.00    +0.000 A 
ATOM     19  C   UNL     1       6.511   5.266  18.209  0.00  0.00    +0.000 A 
ATOM     20  C   UNL     1       7.238   5.736  17.115  0.00  0.00    +0.000 A 
ATOM     21  C   UNL     1       6.860   5.289  15.870  0.00  0.00    +0.000 A 
ATOM     22  C   UNL     1       5.758   4.481  15.684  0.00  0.00    +0.000 A 
ATOM     23  C   UNL     1       4.993   4.039  16.731  0.00  0.00    +0.000 A 
ATOM     24  O   UNL     1       5.609   4.101  14.386  0.00  0.00    +0.000 OA
ATOM     25  C   UNL     1       6.908   4.475  13.891  0.00  0.00    +0.000 C 
ATOM     26  O   UNL     1       7.540   5.485  14.706  0.00  0.00    +0.000 OA
ENDBRANCH  17  18
ENDBRANCH   4  17
TORSDOF 5
ENDMDL
