MODEL 1
REMARK VINA RESULT:      -7.6      0.000      0.000
REMARK  Name = 
REMARK  6 active torsions:
REMARK  status: ('A' for Active; 'I' for Inactive)
REMARK    1  A    between atoms: N_6  and  C_7
REMARK    2  A    between atoms: C_7  and  C_8
REMARK    3  A    between atoms: C_8  and  C_9
REMARK    4  A    between atoms: C_9  and  N_10
REMARK    5  A    between atoms: C_13  and  C_14
REMARK    6  A    between atoms: N_17  and  C_18
REMARK                            x       y       z     vdW  Elec       q    Type
REMARK                         _______ _______ _______ _____ _____    ______ ____
ROOT
ATOM      1  N   UNL     1       2.825   6.460  18.096  0.00  0.00    +0.000 NA
ATOM      2  C   UNL     1       2.753   5.988  19.489  0.00  0.00    +0.000 C 
ATOM      3  C   UNL     1       1.979   6.859  20.430  0.00  0.00    +0.000 C 
ATOM      4  C   UNL     1       1.523   8.080  20.111  0.00  0.00    +0.000 C 
ATOM      5  C   UNL     1       1.762   8.627  18.724  0.00  0.00    +0.000 C 
ATOM      6  C   UNL     1       2.942   7.926  18.029  0.00  0.00    +0.000 C 
ENDROOT
BRANCH   4   7
ATOM      7  C   UNL     1       0.898   8.961  21.041  0.00  0.00    +0.000 A 
ATOM      8  C   UNL     1       1.178   9.154  22.407  0.00  0.00    +0.000 A 
ATOM      9  N   UNL     1       0.441  10.124  22.950  0.00  0.00    +0.000 NA
ATOM     10  N   UNL     1      -0.343  10.566  21.933  0.00  0.00    +0.000 N 
ATOM     11  C   UNL     1      -0.108   9.858  20.774  0.00  0.00    +0.000 A 
BRANCH  10  12
ATOM     12  C   UNL     1      -1.251  11.643  22.116  0.00  0.00    +0.000 A 
ATOM     13  C   UNL     1      -2.140  11.623  23.200  0.00  0.00    +0.000 A 
ATOM     14  C   UNL     1      -3.029  12.681  23.397  0.00  0.00    +0.000 A 
ATOM     15  C   UNL     1      -3.041  13.757  22.510  0.00  0.00    +0.000 A 
ATOM     16  C   UNL     1      -2.158  13.782  21.430  0.00  0.00    +0.000 A 
ATOM     17  C   UNL     1      -1.263  12.732  21.233  0.00  0.00    +0.000 A 
ENDBRANCH  10  12
ENDBRANCH   4   7
BRANCH   1  18
ATOM     18  C   UNL     1       3.951   5.823  17.383  0.00  0.00    +0.000 C 
BRANCH  18  19
ATOM     19  C   UNL     1       3.705   4.335  17.112  0.00  0.00    +0.000 C 
BRANCH  19  20
ATOM     20  C   UNL     1       5.011   3.556  16.978  0.00  0.00    +0.000 C 
BRANCH  20  26
ATOM     21  O   UNL     1       7.777   4.696  17.333  0.00  0.00    +0.000 OA
ATOM     22  C   UNL     1       7.183   4.647  16.272  0.00  0.00    +0.000 A 
ATOM     23  N   UNL     1       7.663   5.052  15.014  0.00  0.00    +0.000 N 
ATOM     24  C   UNL     1       6.715   4.797  14.057  0.00  0.00    +0.000 A 
ATOM     25  C   UNL     1       5.644   4.252  14.648  0.00  0.00    +0.000 A 
ATOM     26  N   UNL     1       5.885   4.165  16.003  0.00  0.00    +0.000 N 
ATOM     27  H   UNL     1       8.582   5.443  14.874  0.00  0.00    +0.000 HD
ENDBRANCH  20  26
ENDBRANCH  19  20
ENDBRANCH  18  19
ENDBRANCH   1  18
TORSDOF 6
ENDMDL
MODEL 2
REMARK VINA RESULT:      -7.6      2.731      4.322
REMARK  Name = 
REMARK  6 active torsions:
REMARK  status: ('A' for Active; 'I' for Inactive)
REMARK    1  A    between atoms: N_6  and  C_7
REMARK    2  A    between atoms: C_7  and  C_8
REMARK    3  A    between atoms: C_8  and  C_9
REMARK    4  A    between atoms: C_9  and  N_10
REMARK    5  A    between atoms: C_13  and  C_14
REMARK    6  A    between atoms: N_17  and  C_18
REMARK                            x       y       z     vdW  Elec       q    Type
REMARK                         _______ _______ _______ _____ _____    ______ ____
ROOT
ATOM      1  N   UNL     1       3.880   5.421  17.989  0.00  0.00    +0.000 NA
ATOM      2  C   UNL     1       4.087   6.612  17.148  0.00  0.00    +0.000 C 
ATOM      3  C   UNL     1       3.372   7.851  17.591  0.00  0.00    +0.000 C 
ATOM      4  C   UNL     1       2.454   7.874  18.570  0.00  0.00    +0.000 C 
ATOM      5  C   UNL     1       2.120   6.599  19.307  0.00  0.00    +0.000 C 
ATOM      6  C   UNL     1       2.497   5.352  18.492  0.00  0.00    +0.000 C 
ENDROOT
BRANCH   4   7
ATOM      7  C   UNL     1       1.682   9.023  18.907  0.00  0.00    +0.000 A 
ATOM      8  C   UNL     1       1.404  10.164  18.131  0.00  0.00    +0.000 A 
ATOM      9  N   UNL     1       0.576  11.012  18.743  0.00  0.00    +0.000 NA
ATOM     10  N   UNL     1       0.315  10.427  19.942  0.00  0.00    +0.000 N 
ATOM     11  C   UNL     1       0.997   9.237  20.078  0.00  0.00    +0.000 A 
BRANCH  10  12
ATOM     12  C   UNL     1      -0.578  11.022  20.873  0.00  0.00    +0.000 A 
ATOM     13  C   UNL     1      -1.500  11.982  20.432  0.00  0.00    +0.000 A 
ATOM     14  C   UNL     1      -2.389  12.566  21.336  0.00  0.00    +0.000 A 
ATOM     15  C   UNL     1      -2.356  12.202  22.682  0.00  0.00    +0.000 A 
ATOM     16  C   UNL     1      -1.440  11.247  23.125  0.00  0.00    +0.000 A 
ATOM     17  C   UNL     1      -0.555  10.656  22.226  0.00  0.00    +0.000 A 
ENDBRANCH  10  12
ENDBRANCH   4   7
BRANCH   1  18
ATOM     18  C   UNL     1       4.219   4.189  17.248  0.00  0.00    +0.000 C 
BRANCH  18  19
ATOM     19  C   UNL     1       3.046   3.205  17.182  0.00  0.00    +0.000 C 
BRANCH  19  20
ATOM     20  C   UNL     1       3.197   2.069  18.191  0.00  0.00    +0.000 C 
BRANCH  20  26
ATOM     21  O   UNL     1       0.258   2.227  18.836  0.00  0.00    +0.000 OA
ATOM     22  C   UNL     1       1.151   2.413  19.642  0.00  0.00    +0.000 A 
ATOM     23  N   UNL     1       1.009   2.683  21.014  0.00  0.00    +0.000 N 
ATOM     24  C   UNL     1       2.249   2.787  21.592  0.00  0.00    +0.000 A 
ATOM     25  C   UNL     1       3.180   2.602  20.647  0.00  0.00    +0.000 A 
ATOM     26  N   UNL     1       2.547   2.393  19.440  0.00  0.00    +0.000 N 
ATOM     27  H   UNL     1       0.115   2.756  21.473  0.00  0.00    +0.000 HD
ENDBRANCH  20  26
ENDBRANCH  19  20
ENDBRANCH  18  19
ENDBRANCH   1  18
TORSDOF 6
ENDMDL
MODEL 3
REMARK VINA RESULT:      -7.6      2.652      4.156
REMARK  Name = 
REMARK  6 active torsions:
REMARK  status: ('A' for Active; 'I' for Inactive)
REMARK    1  A    between atoms: N_6  and  C_7
REMARK    2  A    between atoms: C_7  and  C_8
REMARK    3  A    between atoms: C_8  and  C_9
REMARK    4  A    between atoms: C_9  and  N_10
REMARK    5  A    between atoms: C_13  and  C_14
REMARK    6  A    between atoms: N_17  and  C_18
REMARK                            x       y       z     vdW  Elec       q    Type
REMARK                         _______ _______ _______ _____ _____    ______ ____
ROOT
ATOM      1  N   UNL     1       4.081   6.069  18.574  0.00  0.00    +0.000 NA
ATOM      2  C   UNL     1       3.897   7.007  17.453  0.00  0.00    +0.000 C 
ATOM      3  C   UNL     1       2.952   8.141  17.704  0.00  0.00    +0.000 C 
ATOM      4  C   UNL     1       2.170   8.234  18.791  0.00  0.00    +0.000 C 
ATOM      5  C   UNL     1       2.241   7.164  19.854  0.00  0.00    +0.000 C 
ATOM      6  C   UNL     1       2.821   5.850  19.304  0.00  0.00    +0.000 C 
ENDROOT
BRANCH   4   7
ATOM      7  C   UNL     1       1.181   9.244  18.973  0.00  0.00    +0.000 A 
ATOM      8  C   UNL     1       0.380   9.885  18.009  0.00  0.00    +0.000 A 
ATOM      9  N   UNL     1      -0.499  10.728  18.551  0.00  0.00    +0.000 NA
ATOM     10  N   UNL     1      -0.267  10.650  19.887  0.00  0.00    +0.000 N 
ATOM     11  C   UNL     1       0.766   9.781  20.167  0.00  0.00    +0.000 A 
BRANCH  10  12
ATOM     12  C   UNL     1      -1.050  11.387  20.816  0.00  0.00    +0.000 A 
ATOM     13  C   UNL     1      -0.902  11.148  22.189  0.00  0.00    +0.000 A 
ATOM     14  C   UNL     1      -1.659  11.873  23.111  0.00  0.00    +0.000 A 
ATOM     15  C   UNL     1      -2.570  12.831  22.667  0.00  0.00    +0.000 A 
ATOM     16  C   UNL     1      -2.720  13.073  21.301  0.00  0.00    +0.000 A 
ATOM     17  C   UNL     1      -1.962  12.357  20.377  0.00  0.00    +0.000 A 
ENDBRANCH  10  12
ENDBRANCH   4   7
BRANCH   1  18
ATOM     18  C   UNL     1       4.629   4.783  18.098  0.00  0.00    +0.000 C 
BRANCH  18  19
ATOM     19  C   UNL     1       3.544   3.854  17.544  0.00  0.00    +0.000 C 
BRANCH  19  20
ATOM     20  C   UNL     1       3.482   2.531  18.304  0.00  0.00    +0.000 C 
BRANCH  20  26
ATOM     21  O   UNL     1       0.475   2.534  18.481  0.00  0.00    +0.000 OA
ATOM     22  C   UNL     1       1.221   2.601  19.439  0.00  0.00    +0.000 A 
ATOM     23  N   UNL     1       0.854   2.641  20.796  0.00  0.00    +0.000 N 
ATOM     24  C   UNL     1       1.981   2.670  21.576  0.00  0.00    +0.000 A 
ATOM     25  C   UNL     1       3.056   2.656  20.778  0.00  0.00    +0.000 A 
ATOM     26  N   UNL     1       2.631   2.636  19.466  0.00  0.00    +0.000 N 
ATOM     27  H   UNL     1      -0.104   2.624  21.109  0.00  0.00    +0.000 HD
ENDBRANCH  20  26
ENDBRANCH  19  20
ENDBRANCH  18  19
ENDBRANCH   1  18
TORSDOF 6
ENDMDL
MODEL 4
REMARK VINA RESULT:      -7.5      1.212      1.927
REMARK  Name = 
REMARK  6 active torsions:
REMARK  status: ('A' for Active; 'I' for Inactive)
REMARK    1  A    between atoms: N_6  and  C_7
REMARK    2  A    between atoms: C_7  and  C_8
REMARK    3  A    between atoms: C_8  and  C_9
REMARK    4  A    between atoms: C_9  and  N_10
REMARK    5  A    between atoms: C_13  and  C_14
REMARK    6  A    between atoms: N_17  and  C_18
REMARK                            x       y       z     vdW  Elec       q    Type
REMARK                         _______ _______ _______ _____ _____    ______ ____
ROOT
ATOM      1  N   UNL     1       3.046   5.974  19.477  0.00  0.00    +0.000 NA
ATOM      2  C   UNL     1       2.915   6.825  18.283  0.00  0.00    +0.000 C 
ATOM      3  C   UNL     1       2.234   8.142  18.495  0.00  0.00    +0.000 C 
ATOM      4  C   UNL     1       1.612   8.485  19.634  0.00  0.00    +0.000 C 
ATOM      5  C   UNL     1       1.603   7.522  20.797  0.00  0.00    +0.000 C 
ATOM      6  C   UNL     1       1.859   6.076  20.343  0.00  0.00    +0.000 C 
ENDROOT
BRANCH   4   7
ATOM      7  C   UNL     1       0.857   9.683  19.796  0.00  0.00    +0.000 A 
ATOM      8  C   UNL     1       0.781  10.805  18.949  0.00  0.00    +0.000 A 
ATOM      9  N   UNL     1      -0.094  11.715  19.380  0.00  0.00    +0.000 NA
ATOM     10  N   UNL     1      -0.590  11.191  20.531  0.00  0.00    +0.000 N 
ATOM     11  C   UNL     1      -0.009   9.976  20.821  0.00  0.00    +0.000 A 
BRANCH  10  12
ATOM     12  C   UNL     1      -1.598  11.865  21.273  0.00  0.00    +0.000 A 
ATOM     13  C   UNL     1      -2.488  12.722  20.611  0.00  0.00    +0.000 A 
ATOM     14  C   UNL     1      -3.488  13.382  21.327  0.00  0.00    +0.000 A 
ATOM     15  C   UNL     1      -3.598  13.196  22.705  0.00  0.00    +0.000 A 
ATOM     16  C   UNL     1      -2.715  12.343  23.368  0.00  0.00    +0.000 A 
ATOM     17  C   UNL     1      -1.719  11.677  22.657  0.00  0.00    +0.000 A 
ENDBRANCH  10  12
ENDBRANCH   4   7
BRANCH   1  18
ATOM     18  C   UNL     1       3.286   4.568  19.098  0.00  0.00    +0.000 C 
BRANCH  18  19
ATOM     19  C   UNL     1       3.350   4.375  17.579  0.00  0.00    +0.000 C 
BRANCH  19  20
ATOM     20  C   UNL     1       4.435   3.379  17.175  0.00  0.00    +0.000 C 
BRANCH  20  26
ATOM     21  O   UNL     1       6.953   4.470  18.418  0.00  0.00    +0.000 OA
ATOM     22  C   UNL     1       6.703   4.502  17.228  0.00  0.00    +0.000 A 
ATOM     23  N   UNL     1       7.531   4.992  16.202  0.00  0.00    +0.000 N 
ATOM     24  C   UNL     1       6.915   4.814  14.990  0.00  0.00    +0.000 A 
ATOM     25  C   UNL     1       5.724   4.237  15.194  0.00  0.00    +0.000 A 
ATOM     26  N   UNL     1       5.551   4.050  16.550  0.00  0.00    +0.000 N 
ATOM     27  H   UNL     1       8.443   5.385  16.371  0.00  0.00    +0.000 HD
ENDBRANCH  20  26
ENDBRANCH  19  20
ENDBRANCH  18  19
ENDBRANCH   1  18
TORSDOF 6
ENDMDL
MODEL 5
REMARK VINA RESULT:      -7.5      2.646      4.105
REMARK  Name = 
REMARK  6 active torsions:
REMARK  status: ('A' for Active; 'I' for Inactive)
REMARK    1  A    between atoms: N_6  and  C_7
REMARK    2  A    between atoms: C_7  and  C_8
REMARK    3  A    between atoms: C_8  and  C_9
REMARK    4  A    between atoms: C_9  and  N_10
REMARK    5  A    between atoms: C_13  and  C_14
REMARK    6  A    between atoms: N_17  and  C_18
REMARK                            x       y       z     vdW  Elec       q    Type
REMARK                         _______ _______ _______ _____ _____    ______ ____
ROOT
ATOM      1  N   UNL     1       3.748   4.902  17.209  0.00  0.00    +0.000 NA
ATOM      2  C   UNL     1       2.391   4.849  17.779  0.00  0.00    +0.000 C 
ATOM      3  C   UNL     1       1.794   6.170  18.156  0.00  0.00    +0.000 C 
ATOM      4  C   UNL     1       2.478   7.324  18.161  0.00  0.00    +0.000 C 
ATOM      5  C   UNL     1       3.929   7.332  17.741  0.00  0.00    +0.000 C 
ATOM      6  C   UNL     1       4.566   5.938  17.862  0.00  0.00    +0.000 C 
ENDROOT
BRANCH   4   7
ATOM      7  C   UNL     1       1.950   8.559  18.637  0.00  0.00    +0.000 A 
ATOM      8  C   UNL     1       1.833   9.791  17.968  0.00  0.00    +0.000 A 
ATOM      9  N   UNL     1       1.212  10.717  18.701  0.00  0.00    +0.000 NA
ATOM     10  N   UNL     1       0.928  10.089  19.872  0.00  0.00    +0.000 N 
ATOM     11  C   UNL     1       1.390   8.791  19.870  0.00  0.00    +0.000 A 
BRANCH  10  12
ATOM     12  C   UNL     1       0.218  10.751  20.909  0.00  0.00    +0.000 A 
ATOM     13  C   UNL     1      -0.281  10.010  21.990  0.00  0.00    +0.000 A 
ATOM     14  C   UNL     1      -0.972  10.651  23.020  0.00  0.00    +0.000 A 
ATOM     15  C   UNL     1      -1.174  12.030  22.971  0.00  0.00    +0.000 A 
ATOM     16  C   UNL     1      -0.679  12.772  21.898  0.00  0.00    +0.000 A 
ATOM     17  C   UNL     1       0.017  12.138  20.871  0.00  0.00    +0.000 A 
ENDBRANCH  10  12
ENDBRANCH   4   7
BRANCH   1  18
ATOM     18  C   UNL     1       4.411   3.586  17.309  0.00  0.00    +0.000 C 
BRANCH  18  19
ATOM     19  C   UNL     1       3.412   2.425  17.298  0.00  0.00    +0.000 C 
BRANCH  19  20
ATOM     20  C   UNL     1       3.656   1.450  18.447  0.00  0.00    +0.000 C 
BRANCH  20  26
ATOM     21  O   UNL     1       4.867   2.027  21.144  0.00  0.00    +0.000 OA
ATOM     22  C   UNL     1       3.690   2.171  20.873  0.00  0.00    +0.000 A 
ATOM     23  N   UNL     1       2.683   2.670  21.717  0.00  0.00    +0.000 N 
ATOM     24  C   UNL     1       1.495   2.722  21.033  0.00  0.00    +0.000 A 
ATOM     25  C   UNL     1       1.696   2.270  19.789  0.00  0.00    +0.000 A 
ATOM     26  N   UNL     1       3.019   1.904  19.661  0.00  0.00    +0.000 N 
ATOM     27  H   UNL     1       2.852   2.960  22.667  0.00  0.00    +0.000 HD
ENDBRANCH  20  26
ENDBRANCH  19  20
ENDBRANCH  18  19
ENDBRANCH   1  18
TORSDOF 6
ENDMDL
MODEL 6
REMARK VINA RESULT:      -7.4      4.150      9.915
REMARK  Name = 
REMARK  6 active torsions:
REMARK  status: ('A' for Active; 'I' for Inactive)
REMARK    1  A    between atoms: N_6  and  C_7
REMARK    2  A    between atoms: C_7  and  C_8
REMARK    3  A    between atoms: C_8  and  C_9
REMARK    4  A    between atoms: C_9  and  N_10
REMARK    5  A    between atoms: C_13  and  C_14
REMARK    6  A    between atoms: N_17  and  C_18
REMARK                            x       y       z     vdW  Elec       q    Type
REMARK                         _______ _______ _______ _____ _____    ______ ____
ROOT
ATOM      1  N   UNL     1      -0.221  10.478  19.779  0.00  0.00    +0.000 NA
ATOM      2  C   UNL     1       0.429  10.412  18.460  0.00  0.00    +0.000 C 
ATOM      3  C   UNL     1       1.307   9.221  18.228  0.00  0.00    +0.000 C 
ATOM      4  C   UNL     1       1.649   8.347  19.187  0.00  0.00    +0.000 C 
ATOM      5  C   UNL     1       1.112   8.531  20.587  0.00  0.00    +0.000 C 
ATOM      6  C   UNL     1       0.668   9.980  20.843  0.00  0.00    +0.000 C 
ENDROOT
BRANCH   4   7
ATOM      7  C   UNL     1       2.583   7.287  18.999  0.00  0.00    +0.000 A 
ATOM      8  C   UNL     1       2.699   6.073  19.702  0.00  0.00    +0.000 A 
ATOM      9  N   UNL     1       3.645   5.278  19.199  0.00  0.00    +0.000 NA
ATOM     10  N   UNL     1       4.165   5.983  18.161  0.00  0.00    +0.000 N 
ATOM     11  C   UNL     1       3.560   7.215  18.037  0.00  0.00    +0.000 A 
BRANCH  10  12
ATOM     12  C   UNL     1       5.188   5.437  17.339  0.00  0.00    +0.000 A 
ATOM     13  C   UNL     1       4.944   5.235  15.973  0.00  0.00    +0.000 A 
ATOM     14  C   UNL     1       5.945   4.708  15.154  0.00  0.00    +0.000 A 
ATOM     15  C   UNL     1       7.185   4.374  15.695  0.00  0.00    +0.000 A 
ATOM     16  C   UNL     1       7.433   4.573  17.054  0.00  0.00    +0.000 A 
ATOM     17  C   UNL     1       6.440   5.105  17.875  0.00  0.00    +0.000 A 
ENDBRANCH  10  12
ENDBRANCH   4   7
BRANCH   1  18
ATOM     18  C   UNL     1      -0.661  11.855  20.081  0.00  0.00    +0.000 C 
BRANCH  18  19
ATOM     19  C   UNL     1      -1.527  12.449  18.965  0.00  0.00    +0.000 C 
BRANCH  19  20
ATOM     20  C   UNL     1      -2.940  11.869  18.968  0.00  0.00    +0.000 C 
BRANCH  20  26
ATOM     21  O   UNL     1      -5.686  11.445  17.805  0.00  0.00    +0.000 OA
ATOM     22  C   UNL     1      -4.647  11.272  17.197  0.00  0.00    +0.000 A 
ATOM     23  N   UNL     1      -4.507  10.899  15.849  0.00  0.00    +0.000 N 
ATOM     24  C   UNL     1      -3.176  10.849  15.521  0.00  0.00    +0.000 A 
ATOM     25  C   UNL     1      -2.455  11.168  16.604  0.00  0.00    +0.000 A 
ATOM     26  N   UNL     1      -3.318  11.412  17.652  0.00  0.00    +0.000 N 
ATOM     27  H   UNL     1      -5.292  10.726  15.240  0.00  0.00    +0.000 HD
ENDBRANCH  20  26
ENDBRANCH  19  20
ENDBRANCH  18  19
ENDBRANCH   1  18
TORSDOF 6
ENDMDL
MODEL 7
REMARK VINA RESULT:      -7.4      1.067      1.677
REMARK  Name = 
REMARK  6 active torsions:
REMARK  status: ('A' for Active; 'I' for Inactive)
REMARK    1  A    between atoms: N_6  and  C_7
REMARK    2  A    between atoms: C_7  and  C_8
REMARK    3  A    between atoms: C_8  and  C_9
REMARK    4  A    between atoms: C_9  and  N_10
REMARK    5  A    between atoms: C_13  and  C_14
REMARK    6  A    between atoms: N_17  and  C_18
REMARK                            x       y       z     vdW  Elec       q    Type
REMARK                         _______ _______ _______ _____ _____    ______ ____
ROOT
ATOM      1  N   UNL     1       2.949   5.422  18.778  0.00  0.00    +0.000 NA
ATOM      2  C   UNL     1       2.780   6.740  18.142  0.00  0.00    +0.000 C 
ATOM      3  C   UNL     1       2.240   7.822  19.025  0.00  0.00    +0.000 C 
ATOM      4  C   UNL     1       1.760   7.608  20.260  0.00  0.00    +0.000 C 
ATOM      5  C   UNL     1       1.776   6.211  20.833  0.00  0.00    +0.000 C 
ATOM      6  C   UNL     1       1.862   5.142  19.732  0.00  0.00    +0.000 C 
ENDROOT
BRANCH   4   7
ATOM      7  C   UNL     1       1.132   8.612  21.052  0.00  0.00    +0.000 A 
ATOM      8  C   UNL     1       1.415   9.006  22.373  0.00  0.00    +0.000 A 
ATOM      9  N   UNL     1       0.673  10.040  22.771  0.00  0.00    +0.000 NA
ATOM     10  N   UNL     1      -0.117  10.323  21.703  0.00  0.00    +0.000 N 
ATOM     11  C   UNL     1       0.119   9.454  20.660  0.00  0.00    +0.000 A 
BRANCH  10  12
ATOM     12  C   UNL     1      -1.032  11.410  21.729  0.00  0.00    +0.000 A 
ATOM     13  C   UNL     1      -1.555  11.904  20.527  0.00  0.00    +0.000 A 
ATOM     14  C   UNL     1      -2.462  12.966  20.542  0.00  0.00    +0.000 A 
ATOM     15  C   UNL     1      -2.842  13.543  21.753  0.00  0.00    +0.000 A 
ATOM     16  C   UNL     1      -2.324  13.053  22.953  0.00  0.00    +0.000 A 
ATOM     17  C   UNL     1      -1.424  11.989  22.944  0.00  0.00    +0.000 A 
ENDBRANCH  10  12
ENDBRANCH   4   7
BRANCH   1  18
ATOM     18  C   UNL     1       3.027   4.354  17.761  0.00  0.00    +0.000 C 
BRANCH  18  19
ATOM     19  C   UNL     1       4.275   3.481  17.926  0.00  0.00    +0.000 C 
BRANCH  19  20
ATOM     20  C   UNL     1       5.559   4.307  17.887  0.00  0.00    +0.000 C 
BRANCH  20  26
ATOM     21  O   UNL     1       6.393   6.932  16.667  0.00  0.00    +0.000 OA
ATOM     22  C   UNL     1       6.346   5.876  16.064  0.00  0.00    +0.000 A 
ATOM     23  N   UNL     1       6.709   5.651  14.724  0.00  0.00    +0.000 N 
ATOM     24  C   UNL     1       6.557   4.321  14.425  0.00  0.00    +0.000 A 
ATOM     25  C   UNL     1       6.106   3.685  15.513  0.00  0.00    +0.000 A 
ATOM     26  N   UNL     1       5.945   4.606  16.527  0.00  0.00    +0.000 N 
ATOM     27  H   UNL     1       7.048   6.378  14.114  0.00  0.00    +0.000 HD
ENDBRANCH  20  26
ENDBRANCH  19  20
ENDBRANCH  18  19
ENDBRANCH   1  18
TORSDOF 6
ENDMDL
MODEL 8
REMARK VINA RESULT:      -7.4      2.869      3.778
REMARK  Name = 
REMARK  6 active torsions:
REMARK  status: ('A' for Active; 'I' for Inactive)
REMARK    1  A    between atoms: N_6  and  C_7
REMARK    2  A    between atoms: C_7  and  C_8
REMARK    3  A    between atoms: C_8  and  C_9
REMARK    4  A    between atoms: C_9  and  N_10
REMARK    5  A    between atoms: C_13  and  C_14
REMARK    6  A    between atoms: N_17  and  C_18
REMARK                            x       y       z     vdW  Elec       q    Type
REMARK                         _______ _______ _______ _____ _____    ______ ____
ROOT
ATOM      1  N   UNL     1       2.583   6.674  18.383  0.00  0.00    +0.000 NA
ATOM      2  C   UNL     1       2.337   6.818  19.828  0.00  0.00    +0.000 C 
ATOM      3  C   UNL     1       1.617   8.064  20.243  0.00  0.00    +0.000 C 
ATOM      4  C   UNL     1       1.358   9.087  19.414  0.00  0.00    +0.000 C 
ATOM      5  C   UNL     1       1.779   8.998  17.966  0.00  0.00    +0.000 C 
ATOM      6  C   UNL     1       2.903   7.970  17.760  0.00  0.00    +0.000 C 
ENDROOT
BRANCH   4   7
ATOM      7  C   UNL     1       0.787  10.324  19.834  0.00  0.00    +0.000 A 
ATOM      8  C   UNL     1       0.622  11.517  19.105  0.00  0.00    +0.000 A 
ATOM      9  N   UNL     1      -0.028  12.454  19.797  0.00  0.00    +0.000 NA
ATOM     10  N   UNL     1      -0.283  11.875  20.999  0.00  0.00    +0.000 N 
ATOM     11  C   UNL     1       0.227  10.596  21.058  0.00  0.00    +0.000 A 
BRANCH  10  12
ATOM     12  C   UNL     1      -1.010  12.562  22.008  0.00  0.00    +0.000 A 
ATOM     13  C   UNL     1      -2.169  11.982  22.542  0.00  0.00    +0.000 A 
ATOM     14  C   UNL     1      -2.887  12.643  23.541  0.00  0.00    +0.000 A 
ATOM     15  C   UNL     1      -2.456  13.885  24.003  0.00  0.00    +0.000 A 
ATOM     16  C   UNL     1      -1.303  14.466  23.476  0.00  0.00    +0.000 A 
ATOM     17  C   UNL     1      -0.579  13.808  22.483  0.00  0.00    +0.000 A 
ENDBRANCH  10  12
ENDBRANCH   4   7
BRANCH   1  18
ATOM     18  C   UNL     1       3.664   5.701  18.128  0.00  0.00    +0.000 C 
BRANCH  18  19
ATOM     19  C   UNL     1       4.218   5.091  19.420  0.00  0.00    +0.000 C 
BRANCH  19  20
ATOM     20  C   UNL     1       4.103   3.568  19.426  0.00  0.00    +0.000 C 
BRANCH  20  26
ATOM     21  O   UNL     1       2.180   3.778  21.735  0.00  0.00    +0.000 OA
ATOM     22  C   UNL     1       1.898   3.321  20.644  0.00  0.00    +0.000 A 
ATOM     23  N   UNL     1       0.641   2.853  20.222  0.00  0.00    +0.000 N 
ATOM     24  C   UNL     1       0.715   2.458  18.911  0.00  0.00    +0.000 A 
ATOM     25  C   UNL     1       1.968   2.645  18.476  0.00  0.00    +0.000 A 
ATOM     26  N   UNL     1       2.724   3.150  19.512  0.00  0.00    +0.000 N 
ATOM     27  H   UNL     1      -0.174   2.849  20.815  0.00  0.00    +0.000 HD
ENDBRANCH  20  26
ENDBRANCH  19  20
ENDBRANCH  18  19
ENDBRANCH   1  18
TORSDOF 6
ENDMDL
MODEL 9
REMARK VINA RESULT:      -7.3      2.648      3.637
REMARK  Name = 
REMARK  6 active torsions:
REMARK  status: ('A' for Active; 'I' for Inactive)
REMARK    1  A    between atoms: N_6  and  C_7
REMARK    2  A    between atoms: C_7  and  C_8
REMARK    3  A    between atoms: C_8  and  C_9
REMARK    4  A    between atoms: C_9  and  N_10
REMARK    5  A    between atoms: C_13  and  C_14
REMARK    6  A    between atoms: N_17  and  C_18
REMARK                            x       y       z     vdW  Elec       q    Type
REMARK                         _______ _______ _______ _____ _____    ______ ____
ROOT
ATOM      1  N   UNL     1       2.871   6.893  18.892  0.00  0.00    +0.000 NA
ATOM      2  C   UNL     1       2.178   8.007  18.222  0.00  0.00    +0.000 C 
ATOM      3  C   UNL     1       1.440   8.949  19.122  0.00  0.00    +0.000 C 
ATOM      4  C   UNL     1       1.246   8.731  20.432  0.00  0.00    +0.000 C 
ATOM      5  C   UNL     1       1.815   7.487  21.072  0.00  0.00    +0.000 C 
ATOM      6  C   UNL     1       2.093   6.386  20.035  0.00  0.00    +0.000 C 
ENDROOT
BRANCH   4   7
ATOM      7  C   UNL     1       0.439   9.560  21.264  0.00  0.00    +0.000 A 
ATOM      8  C   UNL     1       0.384   9.621  22.669  0.00  0.00    +0.000 A 
ATOM      9  N   UNL     1      -0.435  10.578  23.109  0.00  0.00    +0.000 NA
ATOM     10  N   UNL     1      -0.934  11.145  21.980  0.00  0.00    +0.000 N 
ATOM     11  C   UNL     1      -0.444  10.527  20.849  0.00  0.00    +0.000 A 
BRANCH  10  12
ATOM     12  C   UNL     1      -1.827  12.248  22.042  0.00  0.00    +0.000 A 
ATOM     13  C   UNL     1      -2.026  12.910  23.262  0.00  0.00    +0.000 A 
ATOM     14  C   UNL     1      -2.893  14.002  23.333  0.00  0.00    +0.000 A 
ATOM     15  C   UNL     1      -3.570  14.431  22.192  0.00  0.00    +0.000 A 
ATOM     16  C   UNL     1      -3.375  13.776  20.976  0.00  0.00    +0.000 A 
ATOM     17  C   UNL     1      -2.505  12.690  20.897  0.00  0.00    +0.000 A 
ENDBRANCH  10  12
ENDBRANCH   4   7
BRANCH   1  18
ATOM     18  C   UNL     1       3.155   5.801  17.940  0.00  0.00    +0.000 C 
BRANCH  18  19
ATOM     19  C   UNL     1       1.998   4.802  17.833  0.00  0.00    +0.000 C 
BRANCH  19  20
ATOM     20  C   UNL     1       2.465   3.364  18.046  0.00  0.00    +0.000 C 
BRANCH  20  26
ATOM     21  O   UNL     1       4.628   2.647  20.016  0.00  0.00    +0.000 OA
ATOM     22  C   UNL     1       3.442   2.687  20.281  0.00  0.00    +0.000 A 
ATOM     23  N   UNL     1       2.847   2.464  21.535  0.00  0.00    +0.000 N 
ATOM     24  C   UNL     1       1.491   2.643  21.439  0.00  0.00    +0.000 A 
ATOM     25  C   UNL     1       1.189   2.964  20.174  0.00  0.00    +0.000 A 
ATOM     26  N   UNL     1       2.352   2.979  19.433  0.00  0.00    +0.000 N 
ATOM     27  H   UNL     1       3.374   2.235  22.363  0.00  0.00    +0.000 HD
ENDBRANCH  20  26
ENDBRANCH  19  20
ENDBRANCH  18  19
ENDBRANCH   1  18
TORSDOF 6
ENDMDL
