MODEL 1
REMARK VINA RESULT:      -6.7      0.000      0.000
REMARK  Name = 
REMARK  2 active torsions:
REMARK  status: ('A' for Active; 'I' for Inactive)
REMARK    1  A    between atoms: C_1  and  C_2
REMARK    2  A    between atoms: C_14  and  C_15
REMARK                            x       y       z     vdW  Elec       q    Type
REMARK                         _______ _______ _______ _____ _____    ______ ____
ROOT
ATOM      1  C   UNL     1       9.307  15.295  18.546  0.00  0.00    +0.000 C 
ATOM      2  C   UNL     1      10.749  14.790  18.741  0.00  0.00    +0.000 C 
ATOM      3  C   UNL     1      11.564  15.438  19.865  0.00  0.00    +0.000 C 
ATOM      4  C   UNL     1      10.833  15.338  21.203  0.00  0.00    +0.000 C 
ATOM      5  C   UNL     1      10.160  13.968  21.480  0.00  0.00    +0.000 C 
ATOM      6  C   UNL     1       9.995  12.969  20.248  0.00  0.00    +0.000 C 
ATOM      7  C   UNL     1      10.067  11.574  20.862  0.00  0.00    +0.000 C 
ATOM      8  C   UNL     1       8.880  11.483  21.806  0.00  0.00    +0.000 C 
ATOM      9  C   UNL     1       8.216  12.546  22.327  0.00  0.00    +0.000 C 
ATOM     10  C   UNL     1       6.976  12.284  23.204  0.00  0.00    +0.000 C 
ATOM     11  C   UNL     1       6.741  13.207  24.433  0.00  0.00    +0.000 C 
ATOM     12  C   UNL     1       7.399  14.573  24.250  0.00  0.00    +0.000 C 
ATOM     13  C   UNL     1       8.843  14.430  23.697  0.00  0.00    +0.000 C 
ATOM     14  C   UNL     1       8.763  14.025  22.228  0.00  0.00    +0.000 C 
ATOM     15  C   UNL     1       7.869  15.159  21.588  0.00  0.00    +0.000 C 
ATOM     16  O   UNL     1       5.323  13.421  24.611  0.00  0.00    +0.000 OA
ATOM     17  C   UNL     1       5.220  13.803  25.980  0.00  0.00    +0.000 C 
ATOM     18  C   UNL     1       6.238  12.898  26.633  0.00  0.00    +0.000 C 
ATOM     19  O   UNL     1       7.248  12.657  25.648  0.00  0.00    +0.000 OA
ATOM     20  C   UNL     1      10.839  13.276  18.993  0.00  0.00    +0.000 C 
ATOM     21  C   UNL     1      10.397  12.701  17.626  0.00  0.00    +0.000 C 
ATOM     22  C   UNL     1      10.911  13.696  16.551  0.00  0.00    +0.000 C 
ATOM     23  C   UNL     1      11.329  14.893  17.357  0.00  0.00    +0.000 C 
ATOM     24  O   UNL     1      11.953  15.850  16.933  0.00  0.00    +0.000 OA
ENDROOT
TORSDOF 0
ENDMDL
MODEL 2
REMARK VINA RESULT:      -6.6      9.599     11.847
REMARK  Name = 
REMARK  2 active torsions:
REMARK  status: ('A' for Active; 'I' for Inactive)
REMARK    1  A    between atoms: C_1  and  C_2
REMARK    2  A    between atoms: C_14  and  C_15
REMARK                            x       y       z     vdW  Elec       q    Type
REMARK                         _______ _______ _______ _____ _____    ______ ____
ROOT
ATOM      1  C   UNL     1      -1.076  10.266  18.570  0.00  0.00    +0.000 C 
ATOM      2  C   UNL     1       0.234  10.869  19.113  0.00  0.00    +0.000 C 
ATOM      3  C   UNL     1       0.498  12.346  18.805  0.00  0.00    +0.000 C 
ATOM      4  C   UNL     1      -0.665  13.222  19.269  0.00  0.00    +0.000 C 
ATOM      5  C   UNL     1      -1.245  12.855  20.661  0.00  0.00    +0.000 C 
ATOM      6  C   UNL     1      -0.832  11.443  21.279  0.00  0.00    +0.000 C 
ATOM      7  C   UNL     1      -0.849  11.657  22.789  0.00  0.00    +0.000 C 
ATOM      8  C   UNL     1      -2.286  12.009  23.135  0.00  0.00    +0.000 C 
ATOM      9  C   UNL     1      -3.204  12.486  22.256  0.00  0.00    +0.000 C 
ATOM     10  C   UNL     1      -4.646  12.715  22.747  0.00  0.00    +0.000 C 
ATOM     11  C   UNL     1      -5.419  13.948  22.201  0.00  0.00    +0.000 C 
ATOM     12  C   UNL     1      -4.887  14.393  20.839  0.00  0.00    +0.000 C 
ATOM     13  C   UNL     1      -3.334  14.426  20.827  0.00  0.00    +0.000 C 
ATOM     14  C   UNL     1      -2.818  12.990  20.809  0.00  0.00    +0.000 C 
ATOM     15  C   UNL     1      -3.522  12.368  19.540  0.00  0.00    +0.000 C 
ATOM     16  O   UNL     1      -6.814  13.612  22.040  0.00  0.00    +0.000 OA
ATOM     17  C   UNL     1      -7.460  14.883  22.052  0.00  0.00    +0.000 C 
ATOM     18  C   UNL     1      -6.671  15.623  23.106  0.00  0.00    +0.000 C 
ATOM     19  O   UNL     1      -5.346  15.080  23.068  0.00  0.00    +0.000 OA
ATOM     20  C   UNL     1       0.382  10.738  20.638  0.00  0.00    +0.000 C 
ATOM     21  C   UNL     1       0.545   9.209  20.810  0.00  0.00    +0.000 C 
ATOM     22  C   UNL     1       1.315   8.711  19.558  0.00  0.00    +0.000 C 
ATOM     23  C   UNL     1       1.274   9.894  18.632  0.00  0.00    +0.000 C 
ATOM     24  O   UNL     1       1.907  10.006  17.597  0.00  0.00    +0.000 OA
ENDROOT
TORSDOF 0
ENDMDL
MODEL 3
REMARK VINA RESULT:      -6.6      8.977     11.083
REMARK  Name = 
REMARK  2 active torsions:
REMARK  status: ('A' for Active; 'I' for Inactive)
REMARK    1  A    between atoms: C_1  and  C_2
REMARK    2  A    between atoms: C_14  and  C_15
REMARK                            x       y       z     vdW  Elec       q    Type
REMARK                         _______ _______ _______ _____ _____    ______ ____
ROOT
ATOM      1  C   UNL     1       1.181   4.839  17.513  0.00  0.00    +0.000 C 
ATOM      2  C   UNL     1       2.432   4.508  18.350  0.00  0.00    +0.000 C 
ATOM      3  C   UNL     1       3.734   5.213  17.960  0.00  0.00    +0.000 C 
ATOM      4  C   UNL     1       3.554   6.730  17.941  0.00  0.00    +0.000 C 
ATOM      5  C   UNL     1       2.735   7.306  19.126  0.00  0.00    +0.000 C 
ATOM      6  C   UNL     1       1.893   6.276  20.006  0.00  0.00    +0.000 C 
ATOM      7  C   UNL     1       1.862   6.887  21.403  0.00  0.00    +0.000 C 
ATOM      8  C   UNL     1       1.127   8.209  21.253  0.00  0.00    +0.000 C 
ATOM      9  C   UNL     1       0.974   8.886  20.086  0.00  0.00    +0.000 C 
ATOM     10  C   UNL     1       0.128  10.174  20.087  0.00  0.00    +0.000 C 
ATOM     11  C   UNL     1       0.590  11.354  19.188  0.00  0.00    +0.000 C 
ATOM     12  C   UNL     1       1.432  10.872  18.008  0.00  0.00    +0.000 C 
ATOM     13  C   UNL     1       2.488   9.828  18.462  0.00  0.00    +0.000 C 
ATOM     14  C   UNL     1       1.773   8.518  18.774  0.00  0.00    +0.000 C 
ATOM     15  C   UNL     1       0.995   8.201  17.436  0.00  0.00    +0.000 C 
ATOM     16  O   UNL     1      -0.566  12.037  18.654  0.00  0.00    +0.000 OA
ATOM     17  C   UNL     1      -0.058  13.326  18.317  0.00  0.00    +0.000 C 
ATOM     18  C   UNL     1       0.889  13.596  19.462  0.00  0.00    +0.000 C 
ATOM     19  O   UNL     1       1.372  12.319  19.892  0.00  0.00    +0.000 OA
ATOM     20  C   UNL     1       2.253   4.783  19.852  0.00  0.00    +0.000 C 
ATOM     21  C   UNL     1       1.212   3.710  20.249  0.00  0.00    +0.000 C 
ATOM     22  C   UNL     1       1.503   2.473  19.358  0.00  0.00    +0.000 C 
ATOM     23  C   UNL     1       2.458   3.004  18.328  0.00  0.00    +0.000 C 
ATOM     24  O   UNL     1       3.084   2.331  17.527  0.00  0.00    +0.000 OA
ENDROOT
TORSDOF 0
ENDMDL
MODEL 4
REMARK VINA RESULT:      -6.5      1.023      1.160
REMARK  Name = 
REMARK  2 active torsions:
REMARK  status: ('A' for Active; 'I' for Inactive)
REMARK    1  A    between atoms: C_1  and  C_2
REMARK    2  A    between atoms: C_14  and  C_15
REMARK                            x       y       z     vdW  Elec       q    Type
REMARK                         _______ _______ _______ _____ _____    ______ ____
ROOT
ATOM      1  C   UNL     1       9.113  16.233  18.863  0.00  0.00    +0.000 C 
ATOM      2  C   UNL     1      10.637  16.084  19.033  0.00  0.00    +0.000 C 
ATOM      3  C   UNL     1      11.259  16.707  20.287  0.00  0.00    +0.000 C 
ATOM      4  C   UNL     1      10.579  16.190  21.554  0.00  0.00    +0.000 C 
ATOM      5  C   UNL     1      10.282  14.667  21.561  0.00  0.00    +0.000 C 
ATOM      6  C   UNL     1      10.379  13.893  20.170  0.00  0.00    +0.000 C 
ATOM      7  C   UNL     1      10.807  12.476  20.538  0.00  0.00    +0.000 C 
ATOM      8  C   UNL     1       9.684  11.922  21.398  0.00  0.00    +0.000 C 
ATOM      9  C   UNL     1       8.770  12.672  22.064  0.00  0.00    +0.000 C 
ATOM     10  C   UNL     1       7.640  11.953  22.826  0.00  0.00    +0.000 C 
ATOM     11  C   UNL     1       7.177  12.552  24.183  0.00  0.00    +0.000 C 
ATOM     12  C   UNL     1       7.461  14.051  24.268  0.00  0.00    +0.000 C 
ATOM     13  C   UNL     1       8.893  14.379  23.764  0.00  0.00    +0.000 C 
ATOM     14  C   UNL     1       8.918  14.234  22.245  0.00  0.00    +0.000 C 
ATOM     15  C   UNL     1       7.761  15.200  21.769  0.00  0.00    +0.000 C 
ATOM     16  O   UNL     1       5.752  12.366  24.332  0.00  0.00    +0.000 OA
ATOM     17  C   UNL     1       5.555  12.460  25.741  0.00  0.00    +0.000 C 
ATOM     18  C   UNL     1       6.772  11.741  26.274  0.00  0.00    +0.000 C 
ATOM     19  O   UNL     1       7.810  11.942  25.308  0.00  0.00    +0.000 OA
ATOM     20  C   UNL     1      11.113  14.622  19.025  0.00  0.00    +0.000 C 
ATOM     21  C   UNL     1      10.833  14.207  17.561  0.00  0.00    +0.000 C 
ATOM     22  C   UNL     1      11.072  15.473  16.697  0.00  0.00    +0.000 C 
ATOM     23  C   UNL     1      11.169  16.575  17.714  0.00  0.00    +0.000 C 
ATOM     24  O   UNL     1      11.525  17.718  17.489  0.00  0.00    +0.000 OA
ENDROOT
TORSDOF 0
ENDMDL
MODEL 5
REMARK VINA RESULT:      -6.4      3.465      4.834
REMARK  Name = 
REMARK  2 active torsions:
REMARK  status: ('A' for Active; 'I' for Inactive)
REMARK    1  A    between atoms: C_1  and  C_2
REMARK    2  A    between atoms: C_14  and  C_15
REMARK                            x       y       z     vdW  Elec       q    Type
REMARK                         _______ _______ _______ _____ _____    ______ ____
ROOT
ATOM      1  C   UNL     1       9.119  12.672  17.714  0.00  0.00    +0.000 C 
ATOM      2  C   UNL     1      10.194  13.482  18.461  0.00  0.00    +0.000 C 
ATOM      3  C   UNL     1      10.389  14.939  18.030  0.00  0.00    +0.000 C 
ATOM      4  C   UNL     1       9.072  15.712  18.094  0.00  0.00    +0.000 C 
ATOM      5  C   UNL     1       8.207  15.427  19.350  0.00  0.00    +0.000 C 
ATOM      6  C   UNL     1       8.584  14.149  20.227  0.00  0.00    +0.000 C 
ATOM      7  C   UNL     1       8.180  14.518  21.651  0.00  0.00    +0.000 C 
ATOM      8  C   UNL     1       6.676  14.728  21.605  0.00  0.00    +0.000 C 
ATOM      9  C   UNL     1       5.960  14.996  20.483  0.00  0.00    +0.000 C 
ATOM     10  C   UNL     1       4.427  15.099  20.593  0.00  0.00    +0.000 C 
ATOM     11  C   UNL     1       3.701  16.165  19.726  0.00  0.00    +0.000 C 
ATOM     12  C   UNL     1       4.505  16.524  18.478  0.00  0.00    +0.000 C 
ATOM     13  C   UNL     1       6.004  16.743  18.821  0.00  0.00    +0.000 C 
ATOM     14  C   UNL     1       6.639  15.386  19.111  0.00  0.00    +0.000 C 
ATOM     15  C   UNL     1       6.327  14.552  17.807  0.00  0.00    +0.000 C 
ATOM     16  O   UNL     1       2.424  15.647  19.292  0.00  0.00    +0.000 OA
ATOM     17  C   UNL     1       1.680  16.825  18.988  0.00  0.00    +0.000 C 
ATOM     18  C   UNL     1       2.117  17.762  20.089  0.00  0.00    +0.000 C 
ATOM     19  O   UNL     1       3.455  17.382  20.429  0.00  0.00    +0.000 OA
ATOM     20  C   UNL     1       9.977  13.532  19.982  0.00  0.00    +0.000 C 
ATOM     21  C   UNL     1      10.234  12.061  20.387  0.00  0.00    +0.000 C 
ATOM     22  C   UNL     1      11.328  11.530  19.423  0.00  0.00    +0.000 C 
ATOM     23  C   UNL     1      11.406  12.595  18.366  0.00  0.00    +0.000 C 
ATOM     24  O   UNL     1      12.259  12.672  17.500  0.00  0.00    +0.000 OA
ENDROOT
TORSDOF 0
ENDMDL
MODEL 6
REMARK VINA RESULT:      -6.4      1.672      2.123
REMARK  Name = 
REMARK  2 active torsions:
REMARK  status: ('A' for Active; 'I' for Inactive)
REMARK    1  A    between atoms: C_1  and  C_2
REMARK    2  A    between atoms: C_14  and  C_15
REMARK                            x       y       z     vdW  Elec       q    Type
REMARK                         _______ _______ _______ _____ _____    ______ ____
ROOT
ATOM      1  C   UNL     1       9.124  13.790  18.583  0.00  0.00    +0.000 C 
ATOM      2  C   UNL     1      10.364  13.171  19.255  0.00  0.00    +0.000 C 
ATOM      3  C   UNL     1      11.216  14.097  20.127  0.00  0.00    +0.000 C 
ATOM      4  C   UNL     1      10.369  14.770  21.207  0.00  0.00    +0.000 C 
ATOM      5  C   UNL     1       9.344  13.839  21.907  0.00  0.00    +0.000 C 
ATOM      6  C   UNL     1       9.037  12.434  21.217  0.00  0.00    +0.000 C 
ATOM      7  C   UNL     1       8.692  11.498  22.371  0.00  0.00    +0.000 C 
ATOM      8  C   UNL     1       7.443  12.081  23.010  0.00  0.00    +0.000 C 
ATOM      9  C   UNL     1       7.032  13.369  22.883  0.00  0.00    +0.000 C 
ATOM     10  C   UNL     1       5.694  13.782  23.526  0.00  0.00    +0.000 C 
ATOM     11  C   UNL     1       5.597  15.195  24.168  0.00  0.00    +0.000 C 
ATOM     12  C   UNL     1       6.598  16.169  23.550  0.00  0.00    +0.000 C 
ATOM     13  C   UNL     1       8.000  15.516  23.406  0.00  0.00    +0.000 C 
ATOM     14  C   UNL     1       7.948  14.500  22.269  0.00  0.00    +0.000 C 
ATOM     15  C   UNL     1       7.436  15.354  21.042  0.00  0.00    +0.000 C 
ATOM     16  O   UNL     1       4.273  15.732  23.955  0.00  0.00    +0.000 OA
ATOM     17  C   UNL     1       4.151  16.717  24.979  0.00  0.00    +0.000 C 
ATOM     18  C   UNL     1       4.839  16.043  26.142  0.00  0.00    +0.000 C 
ATOM     19  O   UNL     1       5.836  15.186  25.575  0.00  0.00    +0.000 OA
ATOM     20  C   UNL     1      10.038  11.959  20.144  0.00  0.00    +0.000 C 
ATOM     21  C   UNL     1       9.586  10.912  19.098  0.00  0.00    +0.000 C 
ATOM     22  C   UNL     1      10.431  11.178  17.825  0.00  0.00    +0.000 C 
ATOM     23  C   UNL     1      11.070  12.509  18.103  0.00  0.00    +0.000 C 
ATOM     24  O   UNL     1      11.955  13.022  17.441  0.00  0.00    +0.000 OA
ENDROOT
TORSDOF 0
ENDMDL
MODEL 7
REMARK VINA RESULT:      -6.2      8.939     11.204
REMARK  Name = 
REMARK  2 active torsions:
REMARK  status: ('A' for Active; 'I' for Inactive)
REMARK    1  A    between atoms: C_1  and  C_2
REMARK    2  A    between atoms: C_14  and  C_15
REMARK                            x       y       z     vdW  Elec       q    Type
REMARK                         _______ _______ _______ _____ _____    ______ ____
ROOT
ATOM      1  C   UNL     1       0.616  13.109  20.197  0.00  0.00    +0.000 C 
ATOM      2  C   UNL     1      -0.878  12.771  20.362  0.00  0.00    +0.000 C 
ATOM      3  C   UNL     1      -1.631  12.324  19.106  0.00  0.00    +0.000 C 
ATOM      4  C   UNL     1      -0.938  11.135  18.442  0.00  0.00    +0.000 C 
ATOM      5  C   UNL     1      -0.432  10.043  19.421  0.00  0.00    +0.000 C 
ATOM      6  C   UNL     1      -0.363  10.421  20.970  0.00  0.00    +0.000 C 
ATOM      7  C   UNL     1      -0.605   9.106  21.705  0.00  0.00    +0.000 C 
ATOM      8  C   UNL     1       0.549   8.200  21.308  0.00  0.00    +0.000 C 
ATOM      9  C   UNL     1       1.322   8.361  20.204  0.00  0.00    +0.000 C 
ATOM     10  C   UNL     1       2.509   7.403  19.989  0.00  0.00    +0.000 C 
ATOM     11  C   UNL     1       2.829   6.949  18.537  0.00  0.00    +0.000 C 
ATOM     12  C   UNL     1       2.335   7.962  17.505  0.00  0.00    +0.000 C 
ATOM     13  C   UNL     1       0.893   8.437  17.832  0.00  0.00    +0.000 C 
ATOM     14  C   UNL     1       0.951   9.364  19.042  0.00  0.00    +0.000 C 
ATOM     15  C   UNL     1       1.979  10.478  18.598  0.00  0.00    +0.000 C 
ATOM     16  O   UNL     1       4.259   6.818  18.375  0.00  0.00    +0.000 OA
ATOM     17  C   UNL     1       4.383   5.942  17.258  0.00  0.00    +0.000 C 
ATOM     18  C   UNL     1       3.258   4.964  17.503  0.00  0.00    +0.000 C 
ATOM     19  O   UNL     1       2.242   5.691  18.203  0.00  0.00    +0.000 OA
ATOM     20  C   UNL     1      -1.145  11.677  21.409  0.00  0.00    +0.000 C 
ATOM     21  C   UNL     1      -0.750  12.392  22.723  0.00  0.00    +0.000 C 
ATOM     22  C   UNL     1      -1.129  13.885  22.534  0.00  0.00    +0.000 C 
ATOM     23  C   UNL     1      -1.419  13.987  21.064  0.00  0.00    +0.000 C 
ATOM     24  O   UNL     1      -1.922  14.946  20.506  0.00  0.00    +0.000 OA
ENDROOT
TORSDOF 0
ENDMDL
MODEL 8
REMARK VINA RESULT:      -6.1     10.028     13.273
REMARK  Name = 
REMARK  2 active torsions:
REMARK  status: ('A' for Active; 'I' for Inactive)
REMARK    1  A    between atoms: C_1  and  C_2
REMARK    2  A    between atoms: C_14  and  C_15
REMARK                            x       y       z     vdW  Elec       q    Type
REMARK                         _______ _______ _______ _____ _____    ______ ____
ROOT
ATOM      1  C   UNL     1       2.175   2.645  18.923  0.00  0.00    +0.000 C 
ATOM      2  C   UNL     1       2.777   3.378  20.137  0.00  0.00    +0.000 C 
ATOM      3  C   UNL     1       4.196   2.980  20.553  0.00  0.00    +0.000 C 
ATOM      4  C   UNL     1       5.169   3.108  19.381  0.00  0.00    +0.000 C 
ATOM      5  C   UNL     1       4.988   4.384  18.517  0.00  0.00    +0.000 C 
ATOM      6  C   UNL     1       3.638   5.214  18.708  0.00  0.00    +0.000 C 
ATOM      7  C   UNL     1       4.022   6.660  18.409  0.00  0.00    +0.000 C 
ATOM      8  C   UNL     1       4.473   6.670  16.958  0.00  0.00    +0.000 C 
ATOM      9  C   UNL     1       4.888   5.580  16.264  0.00  0.00    +0.000 C 
ATOM     10  C   UNL     1       5.233   5.744  14.772  0.00  0.00    +0.000 C 
ATOM     11  C   UNL     1       6.430   4.930  14.204  0.00  0.00    +0.000 C 
ATOM     12  C   UNL     1       6.694   3.666  15.020  0.00  0.00    +0.000 C 
ATOM     13  C   UNL     1       6.658   3.965  16.543  0.00  0.00    +0.000 C 
ATOM     14  C   UNL     1       5.208   4.198  16.958  0.00  0.00    +0.000 C 
ATOM     15  C   UNL     1       4.477   2.882  16.477  0.00  0.00    +0.000 C 
ATOM     16  O   UNL     1       6.139   4.526  12.847  0.00  0.00    +0.000 OA
ATOM     17  C   UNL     1       7.430   4.278  12.296  0.00  0.00    +0.000 C 
ATOM     18  C   UNL     1       8.249   5.389  12.911  0.00  0.00    +0.000 C 
ATOM     19  O   UNL     1       7.648   5.674  14.179  0.00  0.00    +0.000 OA
ATOM     20  C   UNL     1       2.812   4.906  19.975  0.00  0.00    +0.000 C 
ATOM     21  C   UNL     1       1.307   5.262  20.000  0.00  0.00    +0.000 C 
ATOM     22  C   UNL     1       0.638   4.249  20.966  0.00  0.00    +0.000 C 
ATOM     23  C   UNL     1       1.709   3.218  21.185  0.00  0.00    +0.000 C 
ATOM     24  O   UNL     1       1.675   2.327  22.015  0.00  0.00    +0.000 OA
ENDROOT
TORSDOF 0
ENDMDL
MODEL 9
REMARK VINA RESULT:      -6.0      9.305     11.701
REMARK  Name = 
REMARK  2 active torsions:
REMARK  status: ('A' for Active; 'I' for Inactive)
REMARK    1  A    between atoms: C_1  and  C_2
REMARK    2  A    between atoms: C_14  and  C_15
REMARK                            x       y       z     vdW  Elec       q    Type
REMARK                         _______ _______ _______ _____ _____    ______ ____
ROOT
ATOM      1  C   UNL     1       0.740  12.117  20.879  0.00  0.00    +0.000 C 
ATOM      2  C   UNL     1      -0.197  10.898  20.800  0.00  0.00    +0.000 C 
ATOM      3  C   UNL     1      -0.647  10.282  22.128  0.00  0.00    +0.000 C 
ATOM      4  C   UNL     1      -1.296  11.331  23.029  0.00  0.00    +0.000 C 
ATOM      5  C   UNL     1      -2.264  12.305  22.307  0.00  0.00    +0.000 C 
ATOM      6  C   UNL     1      -2.210  12.346  20.713  0.00  0.00    +0.000 C 
ATOM      7  C   UNL     1      -3.629  12.704  20.282  0.00  0.00    +0.000 C 
ATOM      8  C   UNL     1      -3.893  14.085  20.859  0.00  0.00    +0.000 C 
ATOM      9  C   UNL     1      -3.216  14.638  21.897  0.00  0.00    +0.000 C 
ATOM     10  C   UNL     1      -3.551  16.084  22.308  0.00  0.00    +0.000 C 
ATOM     11  C   UNL     1      -3.535  16.437  23.822  0.00  0.00    +0.000 C 
ATOM     12  C   UNL     1      -2.623  15.501  24.613  0.00  0.00    +0.000 C 
ATOM     13  C   UNL     1      -2.845  14.021  24.199  0.00  0.00    +0.000 C 
ATOM     14  C   UNL     1      -2.237  13.807  22.816  0.00  0.00    +0.000 C 
ATOM     15  C   UNL     1      -0.739  14.272  23.002  0.00  0.00    +0.000 C 
ATOM     16  O   UNL     1      -3.044  17.784  24.000  0.00  0.00    +0.000 OA
ATOM     17  C   UNL     1      -3.552  18.152  25.280  0.00  0.00    +0.000 C 
ATOM     18  C   UNL     1      -4.927  17.528  25.259  0.00  0.00    +0.000 C 
ATOM     19  O   UNL     1      -4.828  16.369  24.424  0.00  0.00    +0.000 OA
ATOM     20  C   UNL     1      -1.492  11.171  20.017  0.00  0.00    +0.000 C 
ATOM     21  C   UNL     1      -0.958  11.358  18.577  0.00  0.00    +0.000 C 
ATOM     22  C   UNL     1       0.261  10.407  18.440  0.00  0.00    +0.000 C 
ATOM     23  C   UNL     1       0.530   9.980  19.855  0.00  0.00    +0.000 C 
ATOM     24  O   UNL     1       1.296   9.095  20.194  0.00  0.00    +0.000 OA
ENDROOT
TORSDOF 0
ENDMDL
