MODEL 1
REMARK VINA RESULT:     -11.1      0.000      0.000
REMARK  Name = 
REMARK  4 active torsions:
REMARK  status: ('A' for Active; 'I' for Inactive)
REMARK    1  A    between atoms: C_7  and  C_8
REMARK    2  A    between atoms: C_11  and  N_12
REMARK    3  A    between atoms: N_12  and  C_13
REMARK    4  A    between atoms: C_15  and  C_16
REMARK                            x       y       z     vdW  Elec       q    Type
REMARK                         _______ _______ _______ _____ _____    ______ ____
ROOT
ATOM      1  N   UNL     1       5.465   3.927  17.686  0.00  0.00    +0.000 N 
ATOM      2  H   UNL     1       5.839   3.242  17.042  0.00  0.00    +0.000 HD
ENDROOT
BRANCH   1   3
ATOM      3  C   UNL     1       4.070   3.783  18.014  0.00  0.00    +0.000 A 
ATOM      4  N   UNL     1       3.297   4.575  17.240  0.00  0.00    +0.000 NA
ATOM      5  C   UNL     1       2.189   5.008  17.805  0.00  0.00    +0.000 A 
ATOM      6  N   UNL     1       1.411   4.094  18.356  0.00  0.00    +0.000 NA
ATOM      7  C   UNL     1       2.054   3.397  19.286  0.00  0.00    +0.000 A 
ATOM      8  C   UNL     1       1.223   3.135  20.375  0.00  0.00    +0.000 A 
ATOM      9  C   UNL     1       1.710   2.638  21.572  0.00  0.00    +0.000 A 
ATOM     10  C   UNL     1       3.037   2.264  21.613  0.00  0.00    +0.000 A 
ATOM     11  C   UNL     1       3.895   2.503  20.484  0.00  0.00    +0.000 A 
ATOM     12  C   UNL     1       3.459   3.188  19.264  0.00  0.00    +0.000 A 
BRANCH   5  13
ATOM     13  C   UNL     1       2.407   6.179  18.742  0.00  0.00    +0.000 A 
ATOM     14  C   UNL     1       1.907   6.140  20.062  0.00  0.00    +0.000 A 
ATOM     15  C   UNL     1       1.400   7.294  20.659  0.00  0.00    +0.000 A 
ATOM     16  C   UNL     1       1.468   8.510  19.984  0.00  0.00    +0.000 A 
ATOM     17  C   UNL     1       2.133   8.594  18.764  0.00  0.00    +0.000 A 
ATOM     18  C   UNL     1       2.653   7.445  18.174  0.00  0.00    +0.000 A 
ENDBRANCH   5  13
ENDBRANCH   1   3
BRANCH   1  22
ATOM     19  C   UNL     1       7.849   7.662  18.101  0.00  0.00    +0.000 A 
ATOM     20  C   UNL     1       7.993   6.567  18.964  0.00  0.00    +0.000 A 
ATOM     21  C   UNL     1       7.250   5.343  18.801  0.00  0.00    +0.000 A 
ATOM     22  C   UNL     1       6.296   5.132  17.787  0.00  0.00    +0.000 A 
ATOM     23  C   UNL     1       6.262   6.177  16.838  0.00  0.00    +0.000 A 
ATOM     24  C   UNL     1       7.020   7.403  16.993  0.00  0.00    +0.000 A 
BRANCH  19  31
ATOM     25 CL   UNL     1      10.132  15.024  18.243  0.00  0.00    +0.000 Cl
ATOM     26  C   UNL     1       9.924  13.363  18.672  0.00  0.00    +0.000 A 
ATOM     27  C   UNL     1      10.495  12.907  19.870  0.00  0.00    +0.000 A 
ATOM     28  C   UNL     1      10.332  11.560  20.255  0.00  0.00    +0.000 A 
ATOM     29  C   UNL     1       9.609  10.709  19.383  0.00  0.00    +0.000 A 
ATOM     30  N   UNL     1       9.266   9.365  19.439  0.00  0.00    +0.000 N 
ATOM     31  C   UNL     1       8.487   9.018  18.333  0.00  0.00    +0.000 A 
ATOM     32  N   UNL     1       8.368  10.106  17.566  0.00  0.00    +0.000 NA
ATOM     33  C   UNL     1       9.033  11.148  18.200  0.00  0.00    +0.000 A 
ATOM     34  C   UNL     1       9.198  12.502  17.829  0.00  0.00    +0.000 A 
ATOM     35  H   UNL     1       9.508   8.754  20.199  0.00  0.00    +0.000 HD
ENDBRANCH  19  31
ENDBRANCH   1  22
TORSDOF 4
ENDMDL
MODEL 2
REMARK VINA RESULT:     -10.7      0.565      1.150
REMARK  Name = 
REMARK  4 active torsions:
REMARK  status: ('A' for Active; 'I' for Inactive)
REMARK    1  A    between atoms: C_7  and  C_8
REMARK    2  A    between atoms: C_11  and  N_12
REMARK    3  A    between atoms: N_12  and  C_13
REMARK    4  A    between atoms: C_15  and  C_16
REMARK                            x       y       z     vdW  Elec       q    Type
REMARK                         _______ _______ _______ _____ _____    ______ ____
ROOT
ATOM      1  N   UNL     1       5.598   4.053  17.928  0.00  0.00    +0.000 N 
ATOM      2  H   UNL     1       6.050   3.313  17.405  0.00  0.00    +0.000 HD
ENDROOT
BRANCH   1   3
ATOM      3  C   UNL     1       4.185   3.892  18.150  0.00  0.00    +0.000 A 
ATOM      4  N   UNL     1       3.463   4.684  17.327  0.00  0.00    +0.000 NA
ATOM      5  C   UNL     1       2.311   5.100  17.812  0.00  0.00    +0.000 A 
ATOM      6  N   UNL     1       1.505   4.173  18.295  0.00  0.00    +0.000 NA
ATOM      7  C   UNL     1       2.083   3.474  19.263  0.00  0.00    +0.000 A 
ATOM      8  C   UNL     1       1.176   3.192  20.285  0.00  0.00    +0.000 A 
ATOM      9  C   UNL     1       1.579   2.688  21.510  0.00  0.00    +0.000 A 
ATOM     10  C   UNL     1       2.902   2.327  21.647  0.00  0.00    +0.000 A 
ATOM     11  C   UNL     1       3.840   2.586  20.588  0.00  0.00    +0.000 A 
ATOM     12  C   UNL     1       3.488   3.279  19.344  0.00  0.00    +0.000 A 
BRANCH   5  13
ATOM     13  C   UNL     1       2.447   6.264  18.773  0.00  0.00    +0.000 A 
ATOM     14  C   UNL     1       1.977   6.152  20.101  0.00  0.00    +0.000 A 
ATOM     15  C   UNL     1       1.386   7.244  20.734  0.00  0.00    +0.000 A 
ATOM     16  C   UNL     1       1.336   8.476  20.088  0.00  0.00    +0.000 A 
ATOM     17  C   UNL     1       1.968   8.645  18.860  0.00  0.00    +0.000 A 
ATOM     18  C   UNL     1       2.572   7.560  18.233  0.00  0.00    +0.000 A 
ENDBRANCH   5  13
ENDBRANCH   1   3
BRANCH   1  22
ATOM     19  C   UNL     1       7.854   7.883  18.142  0.00  0.00    +0.000 A 
ATOM     20  C   UNL     1       8.212   6.746  18.880  0.00  0.00    +0.000 A 
ATOM     21  C   UNL     1       7.505   5.495  18.776  0.00  0.00    +0.000 A 
ATOM     22  C   UNL     1       6.380   5.295  17.953  0.00  0.00    +0.000 A 
ATOM     23  C   UNL     1       6.115   6.392  17.106  0.00  0.00    +0.000 A 
ATOM     24  C   UNL     1       6.836   7.648  17.199  0.00  0.00    +0.000 A 
BRANCH  19  31
ATOM     25 CL   UNL     1      11.986  14.131  19.968  0.00  0.00    +0.000 Cl
ATOM     26  C   UNL     1      10.836  13.090  19.204  0.00  0.00    +0.000 A 
ATOM     27  C   UNL     1      10.070  13.604  18.147  0.00  0.00    +0.000 A 
ATOM     28  C   UNL     1       9.133  12.777  17.494  0.00  0.00    +0.000 A 
ATOM     29  C   UNL     1       8.987  11.448  17.965  0.00  0.00    +0.000 A 
ATOM     30  N   UNL     1       8.182  10.387  17.575  0.00  0.00    +0.000 N 
ATOM     31  C   UNL     1       8.466   9.256  18.344  0.00  0.00    +0.000 A 
ATOM     32  N   UNL     1       9.404   9.597  19.232  0.00  0.00    +0.000 NA
ATOM     33  C   UNL     1       9.743  10.925  19.004  0.00  0.00    +0.000 A 
ATOM     34  C   UNL     1      10.684  11.764  19.646  0.00  0.00    +0.000 A 
ATOM     35  H   UNL     1       7.529  10.428  16.813  0.00  0.00    +0.000 HD
ENDBRANCH  19  31
ENDBRANCH   1  22
TORSDOF 4
ENDMDL
MODEL 3
REMARK VINA RESULT:     -10.2      4.973      8.225
REMARK  Name = 
REMARK  4 active torsions:
REMARK  status: ('A' for Active; 'I' for Inactive)
REMARK    1  A    between atoms: C_7  and  C_8
REMARK    2  A    between atoms: C_11  and  N_12
REMARK    3  A    between atoms: N_12  and  C_13
REMARK    4  A    between atoms: C_15  and  C_16
REMARK                            x       y       z     vdW  Elec       q    Type
REMARK                         _______ _______ _______ _____ _____    ______ ____
ROOT
ATOM      1  N   UNL     1       2.361   7.303  18.447  0.00  0.00    +0.000 N 
ATOM      2  H   UNL     1       1.954   7.328  17.521  0.00  0.00    +0.000 HD
ENDROOT
BRANCH   1   3
ATOM      3  C   UNL     1       3.058   6.092  18.794  0.00  0.00    +0.000 A 
ATOM      4  N   UNL     1       4.398   6.256  18.723  0.00  0.00    +0.000 NA
ATOM      5  C   UNL     1       5.081   5.178  18.397  0.00  0.00    +0.000 A 
ATOM      6  N   UNL     1       4.842   4.090  19.105  0.00  0.00    +0.000 NA
ATOM      7  C   UNL     1       3.561   3.745  19.058  0.00  0.00    +0.000 A 
ATOM      8  C   UNL     1       3.420   2.359  18.981  0.00  0.00    +0.000 A 
ATOM      9  C   UNL     1       2.211   1.756  18.682  0.00  0.00    +0.000 A 
ATOM     10  C   UNL     1       1.097   2.565  18.606  0.00  0.00    +0.000 A 
ATOM     11  C   UNL     1       1.227   3.993  18.714  0.00  0.00    +0.000 A 
ATOM     12  C   UNL     1       2.513   4.682  18.855  0.00  0.00    +0.000 A 
BRANCH   5  13
ATOM     13  C   UNL     1       5.064   4.879  16.911  0.00  0.00    +0.000 A 
ATOM     14  C   UNL     1       5.592   3.665  16.420  0.00  0.00    +0.000 A 
ATOM     15  C   UNL     1       6.278   3.633  15.208  0.00  0.00    +0.000 A 
ATOM     16  C   UNL     1       6.369   4.785  14.432  0.00  0.00    +0.000 A 
ATOM     17  C   UNL     1       5.686   5.937  14.813  0.00  0.00    +0.000 A 
ATOM     18  C   UNL     1       4.988   5.966  16.017  0.00  0.00    +0.000 A 
ENDBRANCH   5  13
ENDBRANCH   1   3
BRANCH   1  22
ATOM     19  C   UNL     1       0.438  10.263  21.158  0.00  0.00    +0.000 A 
ATOM     20  C   UNL     1       0.923   9.026  21.603  0.00  0.00    +0.000 A 
ATOM     21  C   UNL     1       1.583   8.088  20.731  0.00  0.00    +0.000 A 
ATOM     22  C   UNL     1       1.784   8.303  19.353  0.00  0.00    +0.000 A 
ATOM     23  C   UNL     1       1.428   9.605  18.942  0.00  0.00    +0.000 A 
ATOM     24  C   UNL     1       0.776  10.556  19.823  0.00  0.00    +0.000 A 
BRANCH  19  31
ATOM     25 CL   UNL     1      -2.943  16.092  24.903  0.00  0.00    +0.000 Cl
ATOM     26  C   UNL     1      -2.643  14.527  24.234  0.00  0.00    +0.000 A 
ATOM     27  C   UNL     1      -3.630  13.540  24.375  0.00  0.00    +0.000 A 
ATOM     28  C   UNL     1      -3.422  12.257  23.828  0.00  0.00    +0.000 A 
ATOM     29  C   UNL     1      -2.189  12.014  23.174  0.00  0.00    +0.000 A 
ATOM     30  N   UNL     1      -1.657  10.900  22.539  0.00  0.00    +0.000 N 
ATOM     31  C   UNL     1      -0.403  11.202  22.002  0.00  0.00    +0.000 A 
ATOM     32  N   UNL     1      -0.123  12.468  22.320  0.00  0.00    +0.000 NA
ATOM     33  C   UNL     1      -1.207  12.982  23.020  0.00  0.00    +0.000 A 
ATOM     34  C   UNL     1      -1.432  14.266  23.568  0.00  0.00    +0.000 A 
ATOM     35  H   UNL     1      -2.138  10.023  22.444  0.00  0.00    +0.000 HD
ENDBRANCH  19  31
ENDBRANCH   1  22
TORSDOF 4
ENDMDL
MODEL 4
REMARK VINA RESULT:     -10.0      0.937      1.289
REMARK  Name = 
REMARK  4 active torsions:
REMARK  status: ('A' for Active; 'I' for Inactive)
REMARK    1  A    between atoms: C_7  and  C_8
REMARK    2  A    between atoms: C_11  and  N_12
REMARK    3  A    between atoms: N_12  and  C_13
REMARK    4  A    between atoms: C_15  and  C_16
REMARK                            x       y       z     vdW  Elec       q    Type
REMARK                         _______ _______ _______ _____ _____    ______ ____
ROOT
ATOM      1  N   UNL     1       5.225   3.283  17.155  0.00  0.00    +0.000 N 
ATOM      2  H   UNL     1       5.520   2.748  16.349  0.00  0.00    +0.000 HD
ENDROOT
BRANCH   1   3
ATOM      3  C   UNL     1       3.890   3.023  17.627  0.00  0.00    +0.000 A 
ATOM      4  N   UNL     1       2.962   3.492  16.764  0.00  0.00    +0.000 NA
ATOM      5  C   UNL     1       1.829   3.883  17.311  0.00  0.00    +0.000 A 
ATOM      6  N   UNL     1       1.236   3.023  18.118  0.00  0.00    +0.000 NA
ATOM      7  C   UNL     1       2.027   2.663  19.122  0.00  0.00    +0.000 A 
ATOM      8  C   UNL     1       1.305   2.548  20.310  0.00  0.00    +0.000 A 
ATOM      9  C   UNL     1       1.926   2.421  21.541  0.00  0.00    +0.000 A 
ATOM     10  C   UNL     1       3.295   2.261  21.550  0.00  0.00    +0.000 A 
ATOM     11  C   UNL     1       4.046   2.348  20.327  0.00  0.00    +0.000 A 
ATOM     12  C   UNL     1       3.445   2.658  19.026  0.00  0.00    +0.000 A 
BRANCH   5  13
ATOM     13  C   UNL     1       1.906   5.261  17.939  0.00  0.00    +0.000 A 
ATOM     14  C   UNL     1       2.883   6.186  17.513  0.00  0.00    +0.000 A 
ATOM     15  C   UNL     1       3.493   7.041  18.430  0.00  0.00    +0.000 A 
ATOM     16  C   UNL     1       3.074   7.045  19.758  0.00  0.00    +0.000 A 
ATOM     17  C   UNL     1       1.981   6.276  20.146  0.00  0.00    +0.000 A 
ATOM     18  C   UNL     1       1.362   5.433  19.228  0.00  0.00    +0.000 A 
ENDBRANCH   5  13
ENDBRANCH   1   3
BRANCH   1  22
ATOM     19  C   UNL     1       7.548   7.008  17.889  0.00  0.00    +0.000 A 
ATOM     20  C   UNL     1       7.406   5.998  18.850  0.00  0.00    +0.000 A 
ATOM     21  C   UNL     1       6.689   4.774  18.595  0.00  0.00    +0.000 A 
ATOM     22  C   UNL     1       6.043   4.481  17.377  0.00  0.00    +0.000 A 
ATOM     23  C   UNL     1       6.312   5.432  16.369  0.00  0.00    +0.000 A 
ATOM     24  C   UNL     1       7.046   6.657  16.621  0.00  0.00    +0.000 A 
BRANCH  19  31
ATOM     25 CL   UNL     1       9.635  14.419  18.298  0.00  0.00    +0.000 Cl
ATOM     26  C   UNL     1       9.472  12.737  18.667  0.00  0.00    +0.000 A 
ATOM     27  C   UNL     1      10.057  12.253  19.846  0.00  0.00    +0.000 A 
ATOM     28  C   UNL     1       9.930  10.889  20.182  0.00  0.00    +0.000 A 
ATOM     29  C   UNL     1       9.228  10.052  19.280  0.00  0.00    +0.000 A 
ATOM     30  N   UNL     1       8.921   8.698  19.288  0.00  0.00    +0.000 N 
ATOM     31  C   UNL     1       8.150   8.372  18.170  0.00  0.00    +0.000 A 
ATOM     32  N   UNL     1       8.001   9.483  17.444  0.00  0.00    +0.000 NA
ATOM     33  C   UNL     1       8.639  10.519  18.115  0.00  0.00    +0.000 A 
ATOM     34  C   UNL     1       8.768  11.889  17.793  0.00  0.00    +0.000 A 
ATOM     35  H   UNL     1       9.181   8.066  20.024  0.00  0.00    +0.000 HD
ENDBRANCH  19  31
ENDBRANCH   1  22
TORSDOF 4
ENDMDL
MODEL 5
REMARK VINA RESULT:      -9.9      4.805      8.138
REMARK  Name = 
REMARK  4 active torsions:
REMARK  status: ('A' for Active; 'I' for Inactive)
REMARK    1  A    between atoms: C_7  and  C_8
REMARK    2  A    between atoms: C_11  and  N_12
REMARK    3  A    between atoms: N_12  and  C_13
REMARK    4  A    between atoms: C_15  and  C_16
REMARK                            x       y       z     vdW  Elec       q    Type
REMARK                         _______ _______ _______ _____ _____    ______ ____
ROOT
ATOM      1  N   UNL     1       2.436   7.095  18.531  0.00  0.00    +0.000 N 
ATOM      2  H   UNL     1       1.949   7.008  17.649  0.00  0.00    +0.000 HD
ENDROOT
BRANCH   1   3
ATOM      3  C   UNL     1       3.248   5.968  18.913  0.00  0.00    +0.000 A 
ATOM      4  N   UNL     1       4.485   6.358  19.290  0.00  0.00    +0.000 NA
ATOM      5  C   UNL     1       5.446   5.488  19.053  0.00  0.00    +0.000 A 
ATOM      6  N   UNL     1       5.253   4.260  19.497  0.00  0.00    +0.000 NA
ATOM      7  C   UNL     1       4.142   3.727  19.004  0.00  0.00    +0.000 A 
ATOM      8  C   UNL     1       4.328   2.378  18.700  0.00  0.00    +0.000 A 
ATOM      9  C   UNL     1       3.409   1.656  17.958  0.00  0.00    +0.000 A 
ATOM     10  C   UNL     1       2.217   2.273  17.645  0.00  0.00    +0.000 A 
ATOM     11  C   UNL     1       2.003   3.655  17.980  0.00  0.00    +0.000 A 
ATOM     12  C   UNL     1       3.020   4.504  18.609  0.00  0.00    +0.000 A 
BRANCH   5  13
ATOM     13  C   UNL     1       5.914   5.482  17.611  0.00  0.00    +0.000 A 
ATOM     14  C   UNL     1       5.351   6.377  16.674  0.00  0.00    +0.000 A 
ATOM     15  C   UNL     1       5.134   5.975  15.358  0.00  0.00    +0.000 A 
ATOM     16  C   UNL     1       5.555   4.715  14.939  0.00  0.00    +0.000 A 
ATOM     17  C   UNL     1       6.283   3.902  15.802  0.00  0.00    +0.000 A 
ATOM     18  C   UNL     1       6.514   4.308  17.113  0.00  0.00    +0.000 A 
ENDBRANCH   5  13
ENDBRANCH   1   3
BRANCH   1  22
ATOM     19  C   UNL     1       0.540  10.174  21.125  0.00  0.00    +0.000 A 
ATOM     20  C   UNL     1       0.991   8.940  21.613  0.00  0.00    +0.000 A 
ATOM     21  C   UNL     1       1.643   7.963  20.779  0.00  0.00    +0.000 A 
ATOM     22  C   UNL     1       1.868   8.133  19.399  0.00  0.00    +0.000 A 
ATOM     23  C   UNL     1       1.546   9.430  18.945  0.00  0.00    +0.000 A 
ATOM     24  C   UNL     1       0.903  10.420  19.787  0.00  0.00    +0.000 A 
BRANCH  19  31
ATOM     25 CL   UNL     1      -2.841  16.194  24.557  0.00  0.00    +0.000 Cl
ATOM     26  C   UNL     1      -2.528  14.590  23.993  0.00  0.00    +0.000 A 
ATOM     27  C   UNL     1      -3.487  13.597  24.241  0.00  0.00    +0.000 A 
ATOM     28  C   UNL     1      -3.269  12.282  23.781  0.00  0.00    +0.000 A 
ATOM     29  C   UNL     1      -2.055  12.015  23.102  0.00  0.00    +0.000 A 
ATOM     30  N   UNL     1      -1.520  10.868  22.531  0.00  0.00    +0.000 N 
ATOM     31  C   UNL     1      -0.293  11.155  21.929  0.00  0.00    +0.000 A 
ATOM     32  N   UNL     1      -0.030  12.447  22.143  0.00  0.00    +0.000 NA
ATOM     33  C   UNL     1      -1.101  12.989  22.843  0.00  0.00    +0.000 A 
ATOM     34  C   UNL     1      -1.336  14.305  23.304  0.00  0.00    +0.000 A 
ATOM     35  H   UNL     1      -1.984   9.978  22.518  0.00  0.00    +0.000 HD
ENDBRANCH  19  31
ENDBRANCH   1  22
TORSDOF 4
ENDMDL
MODEL 6
REMARK VINA RESULT:      -9.7      4.647      7.904
REMARK  Name = 
REMARK  4 active torsions:
REMARK  status: ('A' for Active; 'I' for Inactive)
REMARK    1  A    between atoms: C_7  and  C_8
REMARK    2  A    between atoms: C_11  and  N_12
REMARK    3  A    between atoms: N_12  and  C_13
REMARK    4  A    between atoms: C_15  and  C_16
REMARK                            x       y       z     vdW  Elec       q    Type
REMARK                         _______ _______ _______ _____ _____    ______ ____
ROOT
ATOM      1  N   UNL     1       2.719   7.299  18.123  0.00  0.00    +0.000 N 
ATOM      2  H   UNL     1       2.454   7.282  17.147  0.00  0.00    +0.000 HD
ENDROOT
BRANCH   1   3
ATOM      3  C   UNL     1       3.469   6.161  18.588  0.00  0.00    +0.000 A 
ATOM      4  N   UNL     1       4.738   6.502  18.902  0.00  0.00    +0.000 NA
ATOM      5  C   UNL     1       5.636   5.555  18.725  0.00  0.00    +0.000 A 
ATOM      6  N   UNL     1       5.379   4.385  19.282  0.00  0.00    +0.000 NA
ATOM      7  C   UNL     1       4.224   3.884  18.861  0.00  0.00    +0.000 A 
ATOM      8  C   UNL     1       4.318   2.504  18.676  0.00  0.00    +0.000 A 
ATOM      9  C   UNL     1       3.337   1.779  18.021  0.00  0.00    +0.000 A 
ATOM     10  C   UNL     1       2.178   2.442  17.679  0.00  0.00    +0.000 A 
ATOM     11  C   UNL     1       2.060   3.859  17.892  0.00  0.00    +0.000 A 
ATOM     12  C   UNL     1       3.143   4.693  18.421  0.00  0.00    +0.000 A 
BRANCH   5  13
ATOM     13  C   UNL     1       6.065   5.391  17.281  0.00  0.00    +0.000 A 
ATOM     14  C   UNL     1       5.589   6.278  16.290  0.00  0.00    +0.000 A 
ATOM     15  C   UNL     1       5.295   5.814  15.009  0.00  0.00    +0.000 A 
ATOM     16  C   UNL     1       5.553   4.486  14.678  0.00  0.00    +0.000 A 
ATOM     17  C   UNL     1       6.201   3.655  15.586  0.00  0.00    +0.000 A 
ATOM     18  C   UNL     1       6.510   4.122  16.860  0.00  0.00    +0.000 A 
ENDBRANCH   5  13
ENDBRANCH   1   3
BRANCH   1  22
ATOM     19  C   UNL     1       0.457  10.254  20.563  0.00  0.00    +0.000 A 
ATOM     20  C   UNL     1       0.581  10.353  19.170  0.00  0.00    +0.000 A 
ATOM     21  C   UNL     1       1.278   9.371  18.378  0.00  0.00    +0.000 A 
ATOM     22  C   UNL     1       1.921   8.239  18.918  0.00  0.00    +0.000 A 
ATOM     23  C   UNL     1       1.668   8.067  20.295  0.00  0.00    +0.000 A 
ATOM     24  C   UNL     1       0.954   9.047  21.091  0.00  0.00    +0.000 A 
BRANCH  19  31
ATOM     25 CL   UNL     1      -1.562  16.686  24.304  0.00  0.00    +0.000 Cl
ATOM     26  C   UNL     1      -1.566  15.060  23.716  0.00  0.00    +0.000 A 
ATOM     27  C   UNL     1      -2.639  14.227  24.066  0.00  0.00    +0.000 A 
ATOM     28  C   UNL     1      -2.679  12.899  23.591  0.00  0.00    +0.000 A 
ATOM     29  C   UNL     1      -1.598  12.454  22.791  0.00  0.00    +0.000 A 
ATOM     30  N   UNL     1      -1.312  11.245  22.172  0.00  0.00    +0.000 N 
ATOM     31  C   UNL     1      -0.124  11.343  21.445  0.00  0.00    +0.000 A 
ATOM     32  N   UNL     1       0.360  12.575  21.627  0.00  0.00    +0.000 NA
ATOM     33  C   UNL     1      -0.535  13.269  22.432  0.00  0.00    +0.000 A 
ATOM     34  C   UNL     1      -0.510  14.600  22.909  0.00  0.00    +0.000 A 
ATOM     35  H   UNL     1      -1.910  10.438  22.210  0.00  0.00    +0.000 HD
ENDBRANCH  19  31
ENDBRANCH   1  22
TORSDOF 4
ENDMDL
MODEL 7
REMARK VINA RESULT:      -9.6      5.056      8.516
REMARK  Name = 
REMARK  4 active torsions:
REMARK  status: ('A' for Active; 'I' for Inactive)
REMARK    1  A    between atoms: C_7  and  C_8
REMARK    2  A    between atoms: C_11  and  N_12
REMARK    3  A    between atoms: N_12  and  C_13
REMARK    4  A    between atoms: C_15  and  C_16
REMARK                            x       y       z     vdW  Elec       q    Type
REMARK                         _______ _______ _______ _____ _____    ______ ____
ROOT
ATOM      1  N   UNL     1       2.571   7.563  17.991  0.00  0.00    +0.000 N 
ATOM      2  H   UNL     1       2.344   7.580  17.006  0.00  0.00    +0.000 HD
ENDROOT
BRANCH   1   3
ATOM      3  C   UNL     1       3.236   6.375  18.461  0.00  0.00    +0.000 A 
ATOM      4  N   UNL     1       4.579   6.496  18.376  0.00  0.00    +0.000 NA
ATOM      5  C   UNL     1       5.233   5.373  18.163  0.00  0.00    +0.000 A 
ATOM      6  N   UNL     1       4.966   4.370  18.979  0.00  0.00    +0.000 NA
ATOM      7  C   UNL     1       3.677   4.055  18.965  0.00  0.00    +0.000 A 
ATOM      8  C   UNL     1       3.500   2.672  19.029  0.00  0.00    +0.000 A 
ATOM      9  C   UNL     1       2.275   2.074  18.791  0.00  0.00    +0.000 A 
ATOM     10  C   UNL     1       1.183   2.900  18.631  0.00  0.00    +0.000 A 
ATOM     11  C   UNL     1       1.350   4.328  18.593  0.00  0.00    +0.000 A 
ATOM     12  C   UNL     1       2.654   4.994  18.665  0.00  0.00    +0.000 A 
BRANCH   5  13
ATOM     13  C   UNL     1       5.207   4.924  16.715  0.00  0.00    +0.000 A 
ATOM     14  C   UNL     1       5.714   3.658  16.351  0.00  0.00    +0.000 A 
ATOM     15  C   UNL     1       6.396   3.490  15.147  0.00  0.00    +0.000 A 
ATOM     16  C   UNL     1       6.502   4.556  14.257  0.00  0.00    +0.000 A 
ATOM     17  C   UNL     1       5.840   5.752  14.520  0.00  0.00    +0.000 A 
ATOM     18  C   UNL     1       5.146   5.915  15.715  0.00  0.00    +0.000 A 
ENDBRANCH   5  13
ENDBRANCH   1   3
BRANCH   1  22
ATOM     19  C   UNL     1       0.061  10.408  20.317  0.00  0.00    +0.000 A 
ATOM     20  C   UNL     1       0.640   9.265  20.884  0.00  0.00    +0.000 A 
ATOM     21  C   UNL     1       1.487   8.369  20.139  0.00  0.00    +0.000 A 
ATOM     22  C   UNL     1       1.795   8.532  18.774  0.00  0.00    +0.000 A 
ATOM     23  C   UNL     1       1.333   9.757  18.248  0.00  0.00    +0.000 A 
ATOM     24  C   UNL     1       0.492  10.668  19.002  0.00  0.00    +0.000 A 
BRANCH  19  31
ATOM     25 CL   UNL     1      -5.614  15.148  22.503  0.00  0.00    +0.000 Cl
ATOM     26  C   UNL     1      -4.350  13.969  22.553  0.00  0.00    +0.000 A 
ATOM     27  C   UNL     1      -4.079  13.334  23.773  0.00  0.00    +0.000 A 
ATOM     28  C   UNL     1      -3.063  12.358  23.845  0.00  0.00    +0.000 A 
ATOM     29  C   UNL     1      -2.334  12.080  22.662  0.00  0.00    +0.000 A 
ATOM     30  N   UNL     1      -1.294  11.207  22.373  0.00  0.00    +0.000 N 
ATOM     31  C   UNL     1      -0.963  11.282  21.018  0.00  0.00    +0.000 A 
ATOM     32  N   UNL     1      -1.746  12.210  20.462  0.00  0.00    +0.000 NA
ATOM     33  C   UNL     1      -2.597  12.694  21.447  0.00  0.00    +0.000 A 
ATOM     34  C   UNL     1      -3.622  13.667  21.388  0.00  0.00    +0.000 A 
ATOM     35  H   UNL     1      -0.883  10.580  23.042  0.00  0.00    +0.000 HD
ENDBRANCH  19  31
ENDBRANCH   1  22
TORSDOF 4
ENDMDL
MODEL 8
REMARK VINA RESULT:      -9.6      0.831      1.159
REMARK  Name = 
REMARK  4 active torsions:
REMARK  status: ('A' for Active; 'I' for Inactive)
REMARK    1  A    between atoms: C_7  and  C_8
REMARK    2  A    between atoms: C_11  and  N_12
REMARK    3  A    between atoms: N_12  and  C_13
REMARK    4  A    between atoms: C_15  and  C_16
REMARK                            x       y       z     vdW  Elec       q    Type
REMARK                         _______ _______ _______ _____ _____    ______ ____
ROOT
ATOM      1  N   UNL     1       5.950   4.482  17.616  0.00  0.00    +0.000 N 
ATOM      2  H   UNL     1       6.423   3.935  16.909  0.00  0.00    +0.000 HD
ENDROOT
BRANCH   1   3
ATOM      3  C   UNL     1       4.572   4.139  17.856  0.00  0.00    +0.000 A 
ATOM      4  N   UNL     1       3.737   4.908  17.123  0.00  0.00    +0.000 NA
ATOM      5  C   UNL     1       2.562   5.144  17.670  0.00  0.00    +0.000 A 
ATOM      6  N   UNL     1       1.884   4.092  18.089  0.00  0.00    +0.000 NA
ATOM      7  C   UNL     1       2.571   3.387  18.979  0.00  0.00    +0.000 A 
ATOM      8  C   UNL     1       1.737   2.917  19.994  0.00  0.00    +0.000 A 
ATOM      9  C   UNL     1       2.235   2.362  21.161  0.00  0.00    +0.000 A 
ATOM     10  C   UNL     1       3.595   2.149  21.234  0.00  0.00    +0.000 A 
ATOM     11  C   UNL     1       4.461   2.603  20.179  0.00  0.00    +0.000 A 
ATOM     12  C   UNL     1       3.991   3.351  19.010  0.00  0.00    +0.000 A 
BRANCH   5  13
ATOM     13  C   UNL     1       2.596   6.232  18.725  0.00  0.00    +0.000 A 
ATOM     14  C   UNL     1       2.057   5.997  20.009  0.00  0.00    +0.000 A 
ATOM     15  C   UNL     1       1.387   7.013  20.689  0.00  0.00    +0.000 A 
ATOM     16  C   UNL     1       1.324   8.290  20.139  0.00  0.00    +0.000 A 
ATOM     17  C   UNL     1       2.017   8.580  18.968  0.00  0.00    +0.000 A 
ATOM     18  C   UNL     1       2.699   7.570  18.295  0.00  0.00    +0.000 A 
ENDBRANCH   5  13
ENDBRANCH   1   3
BRANCH   1  22
ATOM     19  C   UNL     1       8.130   8.289  18.362  0.00  0.00    +0.000 A 
ATOM     20  C   UNL     1       7.037   8.197  17.490  0.00  0.00    +0.000 A 
ATOM     21  C   UNL     1       6.306   6.972  17.283  0.00  0.00    +0.000 A 
ATOM     22  C   UNL     1       6.628   5.751  17.907  0.00  0.00    +0.000 A 
ATOM     23  C   UNL     1       7.631   5.883  18.891  0.00  0.00    +0.000 A 
ATOM     24  C   UNL     1       8.358   7.119  19.110  0.00  0.00    +0.000 A 
BRANCH  19  31
ATOM     25 CL   UNL     1      12.075  14.876  17.656  0.00  0.00    +0.000 Cl
ATOM     26  C   UNL     1      11.383  13.442  18.330  0.00  0.00    +0.000 A 
ATOM     27  C   UNL     1      11.569  13.191  19.698  0.00  0.00    +0.000 A 
ATOM     28  C   UNL     1      11.005  12.038  20.282  0.00  0.00    +0.000 A 
ATOM     29  C   UNL     1      10.287  11.157  19.436  0.00  0.00    +0.000 A 
ATOM     30  N   UNL     1       9.621   9.960  19.661  0.00  0.00    +0.000 N 
ATOM     31  C   UNL     1       9.022   9.511  18.482  0.00  0.00    +0.000 A 
ATOM     32  N   UNL     1       9.331  10.380  17.516  0.00  0.00    +0.000 NA
ATOM     33  C   UNL     1      10.089  11.396  18.084  0.00  0.00    +0.000 A 
ATOM     34  C   UNL     1      10.654  12.560  17.513  0.00  0.00    +0.000 A 
ATOM     35  H   UNL     1       9.546   9.518  20.560  0.00  0.00    +0.000 HD
ENDBRANCH  19  31
ENDBRANCH   1  22
TORSDOF 4
ENDMDL
MODEL 9
REMARK VINA RESULT:      -9.5      4.926      8.456
REMARK  Name = 
REMARK  4 active torsions:
REMARK  status: ('A' for Active; 'I' for Inactive)
REMARK    1  A    between atoms: C_7  and  C_8
REMARK    2  A    between atoms: C_11  and  N_12
REMARK    3  A    between atoms: N_12  and  C_13
REMARK    4  A    between atoms: C_15  and  C_16
REMARK                            x       y       z     vdW  Elec       q    Type
REMARK                         _______ _______ _______ _____ _____    ______ ____
ROOT
ATOM      1  N   UNL     1       2.605   7.397  18.035  0.00  0.00    +0.000 N 
ATOM      2  H   UNL     1       2.309   7.333  17.070  0.00  0.00    +0.000 HD
ENDROOT
BRANCH   1   3
ATOM      3  C   UNL     1       3.353   6.274  18.539  0.00  0.00    +0.000 A 
ATOM      4  N   UNL     1       4.598   6.640  18.914  0.00  0.00    +0.000 NA
ATOM      5  C   UNL     1       5.522   5.710  18.783  0.00  0.00    +0.000 A 
ATOM      6  N   UNL     1       5.261   4.537  19.329  0.00  0.00    +0.000 NA
ATOM      7  C   UNL     1       4.138   4.012  18.853  0.00  0.00    +0.000 A 
ATOM      8  C   UNL     1       4.266   2.635  18.675  0.00  0.00    +0.000 A 
ATOM      9  C   UNL     1       3.333   1.891  17.974  0.00  0.00    +0.000 A 
ATOM     10  C   UNL     1       2.179   2.531  17.574  0.00  0.00    +0.000 A 
ATOM     11  C   UNL     1       2.024   3.946  17.778  0.00  0.00    +0.000 A 
ATOM     12  C   UNL     1       3.064   4.800  18.359  0.00  0.00    +0.000 A 
BRANCH   5  13
ATOM     13  C   UNL     1       6.024   5.554  17.361  0.00  0.00    +0.000 A 
ATOM     14  C   UNL     1       5.411   6.263  16.306  0.00  0.00    +0.000 A 
ATOM     15  C   UNL     1       5.262   5.673  15.052  0.00  0.00    +0.000 A 
ATOM     16  C   UNL     1       5.798   4.411  14.813  0.00  0.00    +0.000 A 
ATOM     17  C   UNL     1       6.571   3.786  15.787  0.00  0.00    +0.000 A 
ATOM     18  C   UNL     1       6.734   4.381  17.034  0.00  0.00    +0.000 A 
ENDBRANCH   5  13
ENDBRANCH   1   3
BRANCH   1  22
ATOM     19  C   UNL     1       0.142  10.320  20.315  0.00  0.00    +0.000 A 
ATOM     20  C   UNL     1       0.718   9.186  20.905  0.00  0.00    +0.000 A 
ATOM     21  C   UNL     1       1.550   8.265  20.173  0.00  0.00    +0.000 A 
ATOM     22  C   UNL     1       1.846   8.392  18.802  0.00  0.00    +0.000 A 
ATOM     23  C   UNL     1       1.387   9.608  18.251  0.00  0.00    +0.000 A 
ATOM     24  C   UNL     1       0.562  10.543  18.990  0.00  0.00    +0.000 A 
BRANCH  19  31
ATOM     25 CL   UNL     1      -5.410  15.231  22.437  0.00  0.00    +0.000 Cl
ATOM     26  C   UNL     1      -4.193  14.004  22.498  0.00  0.00    +0.000 A 
ATOM     27  C   UNL     1      -3.980  13.337  23.713  0.00  0.00    +0.000 A 
ATOM     28  C   UNL     1      -3.005  12.321  23.793  0.00  0.00    +0.000 A 
ATOM     29  C   UNL     1      -2.253  12.038  22.626  0.00  0.00    +0.000 A 
ATOM     30  N   UNL     1      -1.239  11.131  22.349  0.00  0.00    +0.000 N 
ATOM     31  C   UNL     1      -0.867  11.219  21.005  0.00  0.00    +0.000 A 
ATOM     32  N   UNL     1      -1.598  12.186  20.446  0.00  0.00    +0.000 NA
ATOM     33  C   UNL     1      -2.459  12.684  21.416  0.00  0.00    +0.000 A 
ATOM     34  C   UNL     1      -3.444  13.696  21.348  0.00  0.00    +0.000 A 
ATOM     35  H   UNL     1      -0.871  10.477  23.017  0.00  0.00    +0.000 HD
ENDBRANCH  19  31
ENDBRANCH   1  22
TORSDOF 4
ENDMDL
