MODEL 1
REMARK VINA RESULT:      -8.5      0.000      0.000
REMARK  Name = 
REMARK  7 active torsions:
REMARK  status: ('A' for Active; 'I' for Inactive)
REMARK    1  A    between atoms: C_1  and  O_2
REMARK    2  A    between atoms: O_2  and  C_3
REMARK    3  A    between atoms: C_5  and  O_6
REMARK    4  A    between atoms: O_6  and  C_7
REMARK    5  A    between atoms: C_9  and  C_10
REMARK    6  A    between atoms: C_16  and  C_17
REMARK    7  A    between atoms: C_21  and  N_22
REMARK                            x       y       z     vdW  Elec       q    Type
REMARK                         _______ _______ _______ _____ _____    ______ ____
ROOT
ATOM      1  C   UNL     1       4.406   3.814  18.545  0.00  0.00    +0.000 A 
ATOM      2  C   UNL     1       4.341   2.548  19.114  0.00  0.00    +0.000 A 
ATOM      3  N   UNL     1       3.454   2.487  20.161  0.00  0.00    +0.000 NA
ATOM      4  C   UNL     1       2.967   3.703  20.229  0.00  0.00    +0.000 A 
ATOM      5  C   UNL     1       1.990   4.217  21.147  0.00  0.00    +0.000 A 
ATOM      6  N   UNL     1       1.586   5.460  21.106  0.00  0.00    +0.000 NA
ATOM      7  C   UNL     1       2.118   6.270  20.112  0.00  0.00    +0.000 A 
ATOM      8  C   UNL     1       3.013   5.846  19.201  0.00  0.00    +0.000 A 
ATOM      9  N   UNL     1       3.476   4.542  19.270  0.00  0.00    +0.000 N 
ENDROOT
BRANCH   1  14
ATOM     10  C   UNL     1       6.863   5.808  16.463  0.00  0.00    +0.000 A 
ATOM     11  C   UNL     1       6.579   5.310  15.193  0.00  0.00    +0.000 A 
ATOM     12  C   UNL     1       5.618   4.316  15.013  0.00  0.00    +0.000 A 
ATOM     13  C   UNL     1       4.933   3.809  16.118  0.00  0.00    +0.000 A 
ATOM     14  C   UNL     1       5.192   4.303  17.404  0.00  0.00    +0.000 A 
ATOM     15  C   UNL     1       6.196   5.274  17.564  0.00  0.00    +0.000 A 
BRANCH  10  17
ATOM     16  C   UNL     1       7.704   7.738  17.582  0.00  0.00    +0.000 C 
ATOM     17  O   UNL     1       7.785   6.816  16.500  0.00  0.00    +0.000 OA
ENDBRANCH  10  17
BRANCH  12  18
ATOM     18  O   UNL     1       5.434   3.903  13.721  0.00  0.00    +0.000 OA
ATOM     19  C   UNL     1       6.606   3.885  12.914  0.00  0.00    +0.000 C 
ENDBRANCH  12  18
ENDBRANCH   1  14
BRANCH   7  20
ATOM     20  C   UNL     1       1.690   7.675  20.066  0.00  0.00    +0.000 A 
ATOM     21  C   UNL     1       1.125   8.277  21.196  0.00  0.00    +0.000 A 
ATOM     22  C   UNL     1       0.723   9.610  21.149  0.00  0.00    +0.000 A 
ATOM     23  C   UNL     1       0.876  10.342  19.970  0.00  0.00    +0.000 A 
ATOM     24  C   UNL     1       1.407   9.747  18.821  0.00  0.00    +0.000 A 
ATOM     25  C   UNL     1       1.863   8.429  18.896  0.00  0.00    +0.000 A 
BRANCH  24  26
ATOM     26  N   UNL     1       1.688  10.525  17.691  0.00  0.00    +0.000 N 
ATOM     27  H   UNL     1       1.191  10.224  16.858  0.00  0.00    +0.000 HD
ATOM     28  H   UNL     1       2.682  10.646  17.518  0.00  0.00    +0.000 HD
ENDBRANCH  24  26
ENDBRANCH   7  20
TORSDOF 5
ENDMDL
MODEL 2
REMARK VINA RESULT:      -8.4      0.100      2.334
REMARK  Name = 
REMARK  7 active torsions:
REMARK  status: ('A' for Active; 'I' for Inactive)
REMARK    1  A    between atoms: C_1  and  O_2
REMARK    2  A    between atoms: O_2  and  C_3
REMARK    3  A    between atoms: C_5  and  O_6
REMARK    4  A    between atoms: O_6  and  C_7
REMARK    5  A    between atoms: C_9  and  C_10
REMARK    6  A    between atoms: C_16  and  C_17
REMARK    7  A    between atoms: C_21  and  N_22
REMARK                            x       y       z     vdW  Elec       q    Type
REMARK                         _______ _______ _______ _____ _____    ______ ____
ROOT
ATOM      1  C   UNL     1       4.368   3.856  18.497  0.00  0.00    +0.000 A 
ATOM      2  C   UNL     1       4.320   2.589  19.064  0.00  0.00    +0.000 A 
ATOM      3  N   UNL     1       3.457   2.523  20.130  0.00  0.00    +0.000 NA
ATOM      4  C   UNL     1       2.968   3.737  20.213  0.00  0.00    +0.000 A 
ATOM      5  C   UNL     1       2.010   4.245  21.154  0.00  0.00    +0.000 A 
ATOM      6  N   UNL     1       1.600   5.487  21.125  0.00  0.00    +0.000 NA
ATOM      7  C   UNL     1       2.108   6.301  20.121  0.00  0.00    +0.000 A 
ATOM      8  C   UNL     1       2.982   5.883  19.189  0.00  0.00    +0.000 A 
ATOM      9  N   UNL     1       3.451   4.580  19.244  0.00  0.00    +0.000 N 
ENDROOT
BRANCH   1  14
ATOM     10  C   UNL     1       5.719   4.232  14.978  0.00  0.00    +0.000 A 
ATOM     11  C   UNL     1       6.679   5.222  15.181  0.00  0.00    +0.000 A 
ATOM     12  C   UNL     1       6.871   5.783  16.443  0.00  0.00    +0.000 A 
ATOM     13  C   UNL     1       6.089   5.354  17.516  0.00  0.00    +0.000 A 
ATOM     14  C   UNL     1       5.126   4.351  17.340  0.00  0.00    +0.000 A 
ATOM     15  C   UNL     1       4.922   3.832  16.049  0.00  0.00    +0.000 A 
BRANCH  10  17
ATOM     16  C   UNL     1       6.778   3.973  12.858  0.00  0.00    +0.000 C 
ATOM     17  O   UNL     1       5.665   3.725  13.711  0.00  0.00    +0.000 OA
ENDBRANCH  10  17
BRANCH  12  18
ATOM     18  O   UNL     1       7.836   6.750  16.515  0.00  0.00    +0.000 OA
ATOM     19  C   UNL     1       7.651   7.721  17.541  0.00  0.00    +0.000 C 
ENDBRANCH  12  18
ENDBRANCH   1  14
BRANCH   7  20
ATOM     20  C   UNL     1       1.673   7.705  20.088  0.00  0.00    +0.000 A 
ATOM     21  C   UNL     1       1.129   8.302  21.231  0.00  0.00    +0.000 A 
ATOM     22  C   UNL     1       0.722   9.633  21.196  0.00  0.00    +0.000 A 
ATOM     23  C   UNL     1       0.849  10.369  20.017  0.00  0.00    +0.000 A 
ATOM     24  C   UNL     1       1.359   9.779  18.856  0.00  0.00    +0.000 A 
ATOM     25  C   UNL     1       1.821   8.463  18.917  0.00  0.00    +0.000 A 
BRANCH  24  26
ATOM     26  N   UNL     1       1.613  10.563  17.723  0.00  0.00    +0.000 N 
ATOM     27  H   UNL     1       1.739  10.019  16.875  0.00  0.00    +0.000 HD
ATOM     28  H   UNL     1       2.361  11.237  17.856  0.00  0.00    +0.000 HD
ENDBRANCH  24  26
ENDBRANCH   7  20
TORSDOF 5
ENDMDL
MODEL 3
REMARK VINA RESULT:      -8.3      0.941      1.340
REMARK  Name = 
REMARK  7 active torsions:
REMARK  status: ('A' for Active; 'I' for Inactive)
REMARK    1  A    between atoms: C_1  and  O_2
REMARK    2  A    between atoms: O_2  and  C_3
REMARK    3  A    between atoms: C_5  and  O_6
REMARK    4  A    between atoms: O_6  and  C_7
REMARK    5  A    between atoms: C_9  and  C_10
REMARK    6  A    between atoms: C_16  and  C_17
REMARK    7  A    between atoms: C_21  and  N_22
REMARK                            x       y       z     vdW  Elec       q    Type
REMARK                         _______ _______ _______ _____ _____    ______ ____
ROOT
ATOM      1  C   UNL     1       4.505   4.005  18.660  0.00  0.00    +0.000 A 
ATOM      2  C   UNL     1       4.374   2.793  19.327  0.00  0.00    +0.000 A 
ATOM      3  N   UNL     1       3.409   2.833  20.303  0.00  0.00    +0.000 NA
ATOM      4  C   UNL     1       2.939   4.055  20.230  0.00  0.00    +0.000 A 
ATOM      5  C   UNL     1       1.904   4.657  21.023  0.00  0.00    +0.000 A 
ATOM      6  N   UNL     1       1.525   5.896  20.844  0.00  0.00    +0.000 NA
ATOM      7  C   UNL     1       2.147   6.611  19.830  0.00  0.00    +0.000 A 
ATOM      8  C   UNL     1       3.100   6.101  19.030  0.00  0.00    +0.000 A 
ATOM      9  N   UNL     1       3.534   4.803  19.246  0.00  0.00    +0.000 N 
ENDROOT
BRANCH   1  14
ATOM     10  C   UNL     1       7.010   5.900  16.543  0.00  0.00    +0.000 A 
ATOM     11  C   UNL     1       6.949   5.164  15.361  0.00  0.00    +0.000 A 
ATOM     12  C   UNL     1       6.121   4.046  15.257  0.00  0.00    +0.000 A 
ATOM     13  C   UNL     1       5.349   3.654  16.351  0.00  0.00    +0.000 A 
ATOM     14  C   UNL     1       5.384   4.385  17.546  0.00  0.00    +0.000 A 
ATOM     15  C   UNL     1       6.258   5.483  17.640  0.00  0.00    +0.000 A 
BRANCH  10  17
ATOM     16  C   UNL     1       7.769   7.891  17.613  0.00  0.00    +0.000 C 
ATOM     17  O   UNL     1       7.815   7.003  16.501  0.00  0.00    +0.000 OA
ENDBRANCH  10  17
BRANCH  12  18
ATOM     18  O   UNL     1       6.153   3.402  14.050  0.00  0.00    +0.000 OA
ATOM     19  C   UNL     1       6.700   4.154  12.972  0.00  0.00    +0.000 C 
ENDBRANCH  12  18
ENDBRANCH   1  14
BRANCH   7  20
ATOM     20  C   UNL     1       1.747   8.012  19.631  0.00  0.00    +0.000 A 
ATOM     21  C   UNL     1       1.968   8.640  18.399  0.00  0.00    +0.000 A 
ATOM     22  C   UNL     1       1.586   9.966  18.214  0.00  0.00    +0.000 A 
ATOM     23  C   UNL     1       0.990  10.672  19.262  0.00  0.00    +0.000 A 
ATOM     24  C   UNL     1       0.794  10.071  20.509  0.00  0.00    +0.000 A 
ATOM     25  C   UNL     1       1.124   8.723  20.666  0.00  0.00    +0.000 A 
BRANCH  24  26
ATOM     26  N   UNL     1       0.069  10.739  21.505  0.00  0.00    +0.000 N 
ATOM     27  H   UNL     1      -0.812  11.121  21.177  0.00  0.00    +0.000 HD
ATOM     28  H   UNL     1       0.617  11.428  22.011  0.00  0.00    +0.000 HD
ENDBRANCH  24  26
ENDBRANCH   7  20
TORSDOF 5
ENDMDL
MODEL 4
REMARK VINA RESULT:      -8.2      0.950      2.687
REMARK  Name = 
REMARK  7 active torsions:
REMARK  status: ('A' for Active; 'I' for Inactive)
REMARK    1  A    between atoms: C_1  and  O_2
REMARK    2  A    between atoms: O_2  and  C_3
REMARK    3  A    between atoms: C_5  and  O_6
REMARK    4  A    between atoms: O_6  and  C_7
REMARK    5  A    between atoms: C_9  and  C_10
REMARK    6  A    between atoms: C_16  and  C_17
REMARK    7  A    between atoms: C_21  and  N_22
REMARK                            x       y       z     vdW  Elec       q    Type
REMARK                         _______ _______ _______ _____ _____    ______ ____
ROOT
ATOM      1  C   UNL     1       4.444   4.020  18.533  0.00  0.00    +0.000 A 
ATOM      2  C   UNL     1       4.346   2.793  19.175  0.00  0.00    +0.000 A 
ATOM      3  N   UNL     1       3.421   2.804  20.191  0.00  0.00    +0.000 NA
ATOM      4  C   UNL     1       2.944   4.026  20.166  0.00  0.00    +0.000 A 
ATOM      5  C   UNL     1       1.940   4.603  21.014  0.00  0.00    +0.000 A 
ATOM      6  N   UNL     1       1.550   5.844  20.881  0.00  0.00    +0.000 NA
ATOM      7  C   UNL     1       2.127   6.587  19.860  0.00  0.00    +0.000 A 
ATOM      8  C   UNL     1       3.049   6.101  19.010  0.00  0.00    +0.000 A 
ATOM      9  N   UNL     1       3.496   4.800  19.176  0.00  0.00    +0.000 N 
ENDROOT
BRANCH   1  14
ATOM     10  C   UNL     1       6.126   4.062  15.139  0.00  0.00    +0.000 A 
ATOM     11  C   UNL     1       6.970   5.161  15.289  0.00  0.00    +0.000 A 
ATOM     12  C   UNL     1       6.978   5.900  16.472  0.00  0.00    +0.000 A 
ATOM     13  C   UNL     1       6.125   5.540  17.517  0.00  0.00    +0.000 A 
ATOM     14  C   UNL     1       5.276   4.431  17.394  0.00  0.00    +0.000 A 
ATOM     15  C   UNL     1       5.257   3.729  16.176  0.00  0.00    +0.000 A 
BRANCH  10  17
ATOM     16  C   UNL     1       6.713   4.127  12.829  0.00  0.00    +0.000 C 
ATOM     17  O   UNL     1       6.251   3.390  13.956  0.00  0.00    +0.000 OA
ENDBRANCH  10  17
BRANCH  12  18
ATOM     18  O   UNL     1       7.843   6.959  16.498  0.00  0.00    +0.000 OA
ATOM     19  C   UNL     1       7.775   7.774  17.664  0.00  0.00    +0.000 C 
ENDBRANCH  12  18
ENDBRANCH   1  14
BRANCH   7  20
ATOM     20  C   UNL     1       1.715   7.990  19.711  0.00  0.00    +0.000 A 
ATOM     21  C   UNL     1       1.905   8.656  18.494  0.00  0.00    +0.000 A 
ATOM     22  C   UNL     1       1.511   9.984  18.357  0.00  0.00    +0.000 A 
ATOM     23  C   UNL     1       0.933  10.654  19.437  0.00  0.00    +0.000 A 
ATOM     24  C   UNL     1       0.767  10.015  20.670  0.00  0.00    +0.000 A 
ATOM     25  C   UNL     1       1.109   8.666  20.780  0.00  0.00    +0.000 A 
BRANCH  24  26
ATOM     26  N   UNL     1       0.059  10.648  21.700  0.00  0.00    +0.000 N 
ATOM     27  H   UNL     1      -0.058  10.070  22.526  0.00  0.00    +0.000 HD
ATOM     28  H   UNL     1      -0.819  11.059  21.396  0.00  0.00    +0.000 HD
ENDBRANCH  24  26
ENDBRANCH   7  20
TORSDOF 5
ENDMDL
MODEL 5
REMARK VINA RESULT:      -8.0      0.929      1.099
REMARK  Name = 
REMARK  7 active torsions:
REMARK  status: ('A' for Active; 'I' for Inactive)
REMARK    1  A    between atoms: C_1  and  O_2
REMARK    2  A    between atoms: O_2  and  C_3
REMARK    3  A    between atoms: C_5  and  O_6
REMARK    4  A    between atoms: O_6  and  C_7
REMARK    5  A    between atoms: C_9  and  C_10
REMARK    6  A    between atoms: C_16  and  C_17
REMARK    7  A    between atoms: C_21  and  N_22
REMARK                            x       y       z     vdW  Elec       q    Type
REMARK                         _______ _______ _______ _____ _____    ______ ____
ROOT
ATOM      1  C   UNL     1       4.573   4.237  18.926  0.00  0.00    +0.000 A 
ATOM      2  C   UNL     1       4.366   2.892  19.205  0.00  0.00    +0.000 A 
ATOM      3  N   UNL     1       3.226   2.676  19.939  0.00  0.00    +0.000 NA
ATOM      4  C   UNL     1       2.727   3.878  20.101  0.00  0.00    +0.000 A 
ATOM      5  C   UNL     1       1.529   4.255  20.799  0.00  0.00    +0.000 A 
ATOM      6  N   UNL     1       1.139   5.500  20.884  0.00  0.00    +0.000 NA
ATOM      7  C   UNL     1       1.917   6.456  20.245  0.00  0.00    +0.000 A 
ATOM      8  C   UNL     1       3.032   6.171  19.549  0.00  0.00    +0.000 A 
ATOM      9  N   UNL     1       3.471   4.858  19.494  0.00  0.00    +0.000 N 
ENDROOT
BRANCH   1  14
ATOM     10  C   UNL     1       7.465   6.500  17.999  0.00  0.00    +0.000 A 
ATOM     11  C   UNL     1       7.570   6.230  16.636  0.00  0.00    +0.000 A 
ATOM     12  C   UNL     1       6.727   5.302  16.024  0.00  0.00    +0.000 A 
ATOM     13  C   UNL     1       5.770   4.631  16.786  0.00  0.00    +0.000 A 
ATOM     14  C   UNL     1       5.637   4.894  18.157  0.00  0.00    +0.000 A 
ATOM     15  C   UNL     1       6.527   5.802  18.757  0.00  0.00    +0.000 A 
BRANCH  10  17
ATOM     16  C   UNL     1       8.149   8.784  17.953  0.00  0.00    +0.000 C 
ATOM     17  O   UNL     1       8.310   7.466  18.467  0.00  0.00    +0.000 OA
ENDBRANCH  10  17
BRANCH  12  18
ATOM     18  O   UNL     1       6.930   5.118  14.684  0.00  0.00    +0.000 OA
ATOM     19  C   UNL     1       6.266   3.994  14.115  0.00  0.00    +0.000 C 
ENDBRANCH  12  18
ENDBRANCH   1  14
BRANCH   7  20
ATOM     20  C   UNL     1       1.503   7.863  20.351  0.00  0.00    +0.000 A 
ATOM     21  C   UNL     1       1.119   8.394  21.588  0.00  0.00    +0.000 A 
ATOM     22  C   UNL     1       0.731   9.728  21.684  0.00  0.00    +0.000 A 
ATOM     23  C   UNL     1       0.717  10.533  20.543  0.00  0.00    +0.000 A 
ATOM     24  C   UNL     1       1.065  10.010  19.293  0.00  0.00    +0.000 A 
ATOM     25  C   UNL     1       1.511   8.688  19.217  0.00  0.00    +0.000 A 
BRANCH  24  26
ATOM     26  N   UNL     1       1.184  10.858  18.185  0.00  0.00    +0.000 N 
ATOM     27  H   UNL     1       1.741  11.687  18.368  0.00  0.00    +0.000 HD
ATOM     28  H   UNL     1       0.294  11.086  17.751  0.00  0.00    +0.000 HD
ENDBRANCH  24  26
ENDBRANCH   7  20
TORSDOF 5
ENDMDL
MODEL 6
REMARK VINA RESULT:      -7.8      1.389      1.781
REMARK  Name = 
REMARK  7 active torsions:
REMARK  status: ('A' for Active; 'I' for Inactive)
REMARK    1  A    between atoms: C_1  and  O_2
REMARK    2  A    between atoms: O_2  and  C_3
REMARK    3  A    between atoms: C_5  and  O_6
REMARK    4  A    between atoms: O_6  and  C_7
REMARK    5  A    between atoms: C_9  and  C_10
REMARK    6  A    between atoms: C_16  and  C_17
REMARK    7  A    between atoms: C_21  and  N_22
REMARK                            x       y       z     vdW  Elec       q    Type
REMARK                         _______ _______ _______ _____ _____    ______ ____
ROOT
ATOM      1  C   UNL     1       4.622   4.087  19.020  0.00  0.00    +0.000 A 
ATOM      2  C   UNL     1       4.430   2.746  19.327  0.00  0.00    +0.000 A 
ATOM      3  N   UNL     1       3.287   2.533  20.059  0.00  0.00    +0.000 NA
ATOM      4  C   UNL     1       2.773   3.732  20.192  0.00  0.00    +0.000 A 
ATOM      5  C   UNL     1       1.566   4.110  20.873  0.00  0.00    +0.000 A 
ATOM      6  N   UNL     1       1.161   5.352  20.929  0.00  0.00    +0.000 NA
ATOM      7  C   UNL     1       1.931   6.303  20.273  0.00  0.00    +0.000 A 
ATOM      8  C   UNL     1       3.054   6.016  19.591  0.00  0.00    +0.000 A 
ATOM      9  N   UNL     1       3.509   4.707  19.567  0.00  0.00    +0.000 N 
ENDROOT
BRANCH   1  14
ATOM     10  C   UNL     1       7.461   6.397  18.044  0.00  0.00    +0.000 A 
ATOM     11  C   UNL     1       7.609   6.061  16.700  0.00  0.00    +0.000 A 
ATOM     12  C   UNL     1       6.813   5.074  16.118  0.00  0.00    +0.000 A 
ATOM     13  C   UNL     1       5.860   4.410  16.891  0.00  0.00    +0.000 A 
ATOM     14  C   UNL     1       5.684   4.740  18.243  0.00  0.00    +0.000 A 
ATOM     15  C   UNL     1       6.527   5.707  18.816  0.00  0.00    +0.000 A 
BRANCH  10  17
ATOM     16  C   UNL     1       8.067   8.698  17.897  0.00  0.00    +0.000 C 
ATOM     17  O   UNL     1       8.261   7.414  18.481  0.00  0.00    +0.000 OA
ENDBRANCH  10  17
BRANCH  12  18
ATOM     18  O   UNL     1       7.057   4.827  14.794  0.00  0.00    +0.000 OA
ATOM     19  C   UNL     1       6.126   3.961  14.154  0.00  0.00    +0.000 C 
ENDBRANCH  12  18
ENDBRANCH   1  14
BRANCH   7  20
ATOM     20  C   UNL     1       1.501   7.707  20.345  0.00  0.00    +0.000 A 
ATOM     21  C   UNL     1       1.610   8.536  19.223  0.00  0.00    +0.000 A 
ATOM     22  C   UNL     1       1.198   9.864  19.294  0.00  0.00    +0.000 A 
ATOM     23  C   UNL     1       0.684  10.371  20.490  0.00  0.00    +0.000 A 
ATOM     24  C   UNL     1       0.600   9.566  21.630  0.00  0.00    +0.000 A 
ATOM     25  C   UNL     1       0.958   8.220  21.532  0.00  0.00    +0.000 A 
BRANCH  24  26
ATOM     26  N   UNL     1      -0.046  10.040  22.779  0.00  0.00    +0.000 N 
ATOM     27  H   UNL     1      -0.951   9.609  22.942  0.00  0.00    +0.000 HD
ATOM     28  H   UNL     1      -0.095  11.054  22.828  0.00  0.00    +0.000 HD
ENDBRANCH  24  26
ENDBRANCH   7  20
TORSDOF 5
ENDMDL
MODEL 7
REMARK VINA RESULT:      -7.7      0.943      2.573
REMARK  Name = 
REMARK  7 active torsions:
REMARK  status: ('A' for Active; 'I' for Inactive)
REMARK    1  A    between atoms: C_1  and  O_2
REMARK    2  A    between atoms: O_2  and  C_3
REMARK    3  A    between atoms: C_5  and  O_6
REMARK    4  A    between atoms: O_6  and  C_7
REMARK    5  A    between atoms: C_9  and  C_10
REMARK    6  A    between atoms: C_16  and  C_17
REMARK    7  A    between atoms: C_21  and  N_22
REMARK                            x       y       z     vdW  Elec       q    Type
REMARK                         _______ _______ _______ _____ _____    ______ ____
ROOT
ATOM      1  C   UNL     1       4.483   4.389  18.775  0.00  0.00    +0.000 A 
ATOM      2  C   UNL     1       4.309   3.038  19.046  0.00  0.00    +0.000 A 
ATOM      3  N   UNL     1       3.212   2.797  19.837  0.00  0.00    +0.000 NA
ATOM      4  C   UNL     1       2.707   3.990  20.042  0.00  0.00    +0.000 A 
ATOM      5  C   UNL     1       1.543   4.341  20.807  0.00  0.00    +0.000 A 
ATOM      6  N   UNL     1       1.142   5.580  20.930  0.00  0.00    +0.000 NA
ATOM      7  C   UNL     1       1.872   6.555  20.264  0.00  0.00    +0.000 A 
ATOM      8  C   UNL     1       2.952   6.294  19.506  0.00  0.00    +0.000 A 
ATOM      9  N   UNL     1       3.405   4.988  19.410  0.00  0.00    +0.000 N 
ENDROOT
BRANCH   1  14
ATOM     10  C   UNL     1       6.640   5.408  15.834  0.00  0.00    +0.000 A 
ATOM     11  C   UNL     1       7.523   6.286  16.460  0.00  0.00    +0.000 A 
ATOM     12  C   UNL     1       7.406   6.567  17.821  0.00  0.00    +0.000 A 
ATOM     13  C   UNL     1       6.389   5.968  18.565  0.00  0.00    +0.000 A 
ATOM     14  C   UNL     1       5.497   5.072  17.960  0.00  0.00    +0.000 A 
ATOM     15  C   UNL     1       5.610   4.838  16.578  0.00  0.00    +0.000 A 
BRANCH  10  17
ATOM     16  C   UNL     1       6.365   3.980  13.944  0.00  0.00    +0.000 C 
ATOM     17  O   UNL     1       6.893   5.175  14.511  0.00  0.00    +0.000 OA
ENDBRANCH  10  17
BRANCH  12  18
ATOM     18  O   UNL     1       8.325   7.449  18.320  0.00  0.00    +0.000 OA
ATOM     19  C   UNL     1       8.141   8.807  17.933  0.00  0.00    +0.000 C 
ENDBRANCH  12  18
ENDBRANCH   1  14
BRANCH   7  20
ATOM     20  C   UNL     1       1.447   7.954  20.411  0.00  0.00    +0.000 A 
ATOM     21  C   UNL     1       1.094   8.455  21.669  0.00  0.00    +0.000 A 
ATOM     22  C   UNL     1       0.694   9.782  21.804  0.00  0.00    +0.000 A 
ATOM     23  C   UNL     1       0.637  10.610  20.681  0.00  0.00    +0.000 A 
ATOM     24  C   UNL     1       0.953  10.117  19.412  0.00  0.00    +0.000 A 
ATOM     25  C   UNL     1       1.411   8.802  19.295  0.00  0.00    +0.000 A 
BRANCH  24  26
ATOM     26  N   UNL     1       1.030  10.989  18.318  0.00  0.00    +0.000 N 
ATOM     27  H   UNL     1       0.886  10.530  17.423  0.00  0.00    +0.000 HD
ATOM     28  H   UNL     1       1.865  11.567  18.319  0.00  0.00    +0.000 HD
ENDBRANCH  24  26
ENDBRANCH   7  20
TORSDOF 5
ENDMDL
MODEL 8
REMARK VINA RESULT:      -7.5      1.419      2.919
REMARK  Name = 
REMARK  7 active torsions:
REMARK  status: ('A' for Active; 'I' for Inactive)
REMARK    1  A    between atoms: C_1  and  O_2
REMARK    2  A    between atoms: O_2  and  C_3
REMARK    3  A    between atoms: C_5  and  O_6
REMARK    4  A    between atoms: O_6  and  C_7
REMARK    5  A    between atoms: C_9  and  C_10
REMARK    6  A    between atoms: C_16  and  C_17
REMARK    7  A    between atoms: C_21  and  N_22
REMARK                            x       y       z     vdW  Elec       q    Type
REMARK                         _______ _______ _______ _____ _____    ______ ____
ROOT
ATOM      1  C   UNL     1       4.386   4.123  18.714  0.00  0.00    +0.000 A 
ATOM      2  C   UNL     1       4.177   2.768  18.936  0.00  0.00    +0.000 A 
ATOM      3  N   UNL     1       3.067   2.527  19.708  0.00  0.00    +0.000 NA
ATOM      4  C   UNL     1       2.588   3.724  19.950  0.00  0.00    +0.000 A 
ATOM      5  C   UNL     1       1.426   4.077  20.716  0.00  0.00    +0.000 A 
ATOM      6  N   UNL     1       1.054   5.320  20.879  0.00  0.00    +0.000 NA
ATOM      7  C   UNL     1       1.813   6.299  20.254  0.00  0.00    +0.000 A 
ATOM      8  C   UNL     1       2.894   6.038  19.497  0.00  0.00    +0.000 A 
ATOM      9  N   UNL     1       3.317   4.726  19.359  0.00  0.00    +0.000 N 
ENDROOT
BRANCH   1  14
ATOM     10  C   UNL     1       6.662   5.120  15.855  0.00  0.00    +0.000 A 
ATOM     11  C   UNL     1       7.494   6.032  16.501  0.00  0.00    +0.000 A 
ATOM     12  C   UNL     1       7.304   6.344  17.848  0.00  0.00    +0.000 A 
ATOM     13  C   UNL     1       6.265   5.739  18.556  0.00  0.00    +0.000 A 
ATOM     14  C   UNL     1       5.423   4.808  17.931  0.00  0.00    +0.000 A 
ATOM     15  C   UNL     1       5.609   4.544  16.563  0.00  0.00    +0.000 A 
BRANCH  10  17
ATOM     16  C   UNL     1       6.191   3.902  13.860  0.00  0.00    +0.000 C 
ATOM     17  O   UNL     1       6.984   4.860  14.553  0.00  0.00    +0.000 OA
ENDBRANCH  10  17
BRANCH  12  18
ATOM     18  O   UNL     1       8.179   7.258  18.368  0.00  0.00    +0.000 OA
ATOM     19  C   UNL     1       8.060   8.579  17.850  0.00  0.00    +0.000 C 
ENDBRANCH  12  18
ENDBRANCH   1  14
BRANCH   7  20
ATOM     20  C   UNL     1       1.420   7.703  20.446  0.00  0.00    +0.000 A 
ATOM     21  C   UNL     1       1.558   8.622  19.399  0.00  0.00    +0.000 A 
ATOM     22  C   UNL     1       1.182   9.950  19.584  0.00  0.00    +0.000 A 
ATOM     23  C   UNL     1       0.675  10.365  20.817  0.00  0.00    +0.000 A 
ATOM     24  C   UNL     1       0.563   9.468  21.884  0.00  0.00    +0.000 A 
ATOM     25  C   UNL     1       0.885   8.126  21.671  0.00  0.00    +0.000 A 
BRANCH  24  26
ATOM     26  N   UNL     1      -0.077   9.859  23.067  0.00  0.00    +0.000 N 
ATOM     27  H   UNL     1      -0.448  10.803  23.034  0.00  0.00    +0.000 HD
ATOM     28  H   UNL     1       0.481   9.699  23.901  0.00  0.00    +0.000 HD
ENDBRANCH  24  26
ENDBRANCH   7  20
TORSDOF 5
ENDMDL
MODEL 9
REMARK VINA RESULT:      -7.5      3.513      6.108
REMARK  Name = 
REMARK  7 active torsions:
REMARK  status: ('A' for Active; 'I' for Inactive)
REMARK    1  A    between atoms: C_1  and  O_2
REMARK    2  A    between atoms: O_2  and  C_3
REMARK    3  A    between atoms: C_5  and  O_6
REMARK    4  A    between atoms: O_6  and  C_7
REMARK    5  A    between atoms: C_9  and  C_10
REMARK    6  A    between atoms: C_16  and  C_17
REMARK    7  A    between atoms: C_21  and  N_22
REMARK                            x       y       z     vdW  Elec       q    Type
REMARK                         _______ _______ _______ _____ _____    ______ ____
ROOT
ATOM      1  C   UNL     1       6.391   4.320  13.876  0.00  0.00    +0.000 A 
ATOM      2  C   UNL     1       7.559   5.071  13.854  0.00  0.00    +0.000 A 
ATOM      3  N   UNL     1       7.805   5.695  15.052  0.00  0.00    +0.000 NA
ATOM      4  C   UNL     1       6.802   5.321  15.811  0.00  0.00    +0.000 A 
ATOM      5  C   UNL     1       6.544   5.676  17.178  0.00  0.00    +0.000 A 
ATOM      6  N   UNL     1       5.500   5.227  17.826  0.00  0.00    +0.000 NA
ATOM      7  C   UNL     1       4.653   4.362  17.146  0.00  0.00    +0.000 A 
ATOM      8  C   UNL     1       4.851   3.964  15.877  0.00  0.00    +0.000 A 
ATOM      9  N   UNL     1       5.932   4.472  15.175  0.00  0.00    +0.000 N 
ENDROOT
BRANCH   1  14
ATOM     10  C   UNL     1       5.855   1.563  11.334  0.00  0.00    +0.000 A 
ATOM     11  C   UNL     1       4.660   1.984  10.754  0.00  0.00    +0.000 A 
ATOM     12  C   UNL     1       4.017   3.139  11.199  0.00  0.00    +0.000 A 
ATOM     13  C   UNL     1       4.573   3.880  12.242  0.00  0.00    +0.000 A 
ATOM     14  C   UNL     1       5.781   3.484  12.833  0.00  0.00    +0.000 A 
ATOM     15  C   UNL     1       6.386   2.293  12.395  0.00  0.00    +0.000 A 
BRANCH  10  17
ATOM     16  C   UNL     1       6.057  -0.813  11.332  0.00  0.00    +0.000 C 
ATOM     17  O   UNL     1       6.412   0.448  10.774  0.00  0.00    +0.000 OA
ENDBRANCH  10  17
BRANCH  12  18
ATOM     18  O   UNL     1       2.848   3.446  10.557  0.00  0.00    +0.000 OA
ATOM     19  C   UNL     1       2.968   4.371   9.480  0.00  0.00    +0.000 C 
ENDBRANCH  12  18
ENDBRANCH   1  14
BRANCH   7  20
ATOM     20  C   UNL     1       3.463   3.867  17.853  0.00  0.00    +0.000 A 
ATOM     21  C   UNL     1       2.902   2.632  17.509  0.00  0.00    +0.000 A 
ATOM     22  C   UNL     1       1.776   2.165  18.183  0.00  0.00    +0.000 A 
ATOM     23  C   UNL     1       1.203   2.935  19.197  0.00  0.00    +0.000 A 
ATOM     24  C   UNL     1       1.729   4.187  19.530  0.00  0.00    +0.000 A 
ATOM     25  C   UNL     1       2.893   4.619  18.891  0.00  0.00    +0.000 A 
BRANCH  24  26
ATOM     26  N   UNL     1       1.235   4.885  20.639  0.00  0.00    +0.000 N 
ATOM     27  H   UNL     1       1.375   5.889  20.581  0.00  0.00    +0.000 HD
ATOM     28  H   UNL     1       1.550   4.508  21.529  0.00  0.00    +0.000 HD
ENDBRANCH  24  26
ENDBRANCH   7  20
TORSDOF 5
ENDMDL
