MODEL 1
REMARK VINA RESULT:      -7.9      0.000      0.000
REMARK  Name = 
REMARK  4 active torsions:
REMARK  status: ('A' for Active; 'I' for Inactive)
REMARK    1  A    between atoms: C_2  and  C_16
REMARK    2  A    between atoms: N_3  and  C_4
REMARK    3  A    between atoms: C_4  and  C_5
REMARK    4  A    between atoms: C_8  and  N_9
REMARK                            x       y       z     vdW  Elec       q    Type
REMARK                         _______ _______ _______ _____ _____    ______ ____
ROOT
ATOM      1  C   UNL     1       6.386   6.792  17.040  0.00  0.00    +0.000 C 
ENDROOT
BRANCH   1   2
ATOM      2  C   UNL     1       5.263   6.253  17.885  0.00  0.00    +0.000 A 
ATOM      3  C   UNL     1       3.956   6.717  17.705  0.00  0.00    +0.000 A 
ATOM      4  C   UNL     1       2.907   6.231  18.495  0.00  0.00    +0.000 A 
ATOM      5  C   UNL     1       3.125   5.276  19.494  0.00  0.00    +0.000 A 
ATOM      6  C   UNL     1       4.447   4.842  19.686  0.00  0.00    +0.000 A 
ATOM      7  C   UNL     1       5.502   5.319  18.896  0.00  0.00    +0.000 A 
BRANCH   5   8
ATOM      8  N   UNL     1       2.114   4.750  20.296  0.00  0.00    +0.000 N 
ATOM      9  C   UNL     1       2.401   4.177  21.616  0.00  0.00    +0.000 C 
ATOM     10  C   UNL     1       1.903   2.741  21.532  0.00  0.00    +0.000 C 
ATOM     11  C   UNL     1       0.702   2.860  20.611  0.00  0.00    +0.000 C 
ATOM     12  C   UNL     1       1.147   3.897  19.581  0.00  0.00    +0.000 C 
ENDBRANCH   5   8
ENDBRANCH   1   2
BRANCH   1  15
ATOM     13  O   UNL     1       7.688   4.467  16.179  0.00  0.00    +0.000 OA
ATOM     14  C   UNL     1       7.013   5.097  15.370  0.00  0.00    +0.000 C 
ATOM     15  N   UNL     1       6.335   6.246  15.705  0.00  0.00    +0.000 N 
ATOM     16  H   UNL     1       5.774   6.727  15.012  0.00  0.00    +0.000 HD
BRANCH  14  17
ATOM     17  C   UNL     1       6.907   4.623  13.958  0.00  0.00    +0.000 A 
ATOM     18  C   UNL     1       5.899   3.702  13.632  0.00  0.00    +0.000 A 
ATOM     19  C   UNL     1       5.769   3.222  12.325  0.00  0.00    +0.000 A 
ATOM     20  C   UNL     1       6.644   3.656  11.329  0.00  0.00    +0.000 A 
ATOM     21  C   UNL     1       7.646   4.573  11.641  0.00  0.00    +0.000 A 
ATOM     22  C   UNL     1       7.771   5.049  12.947  0.00  0.00    +0.000 A 
ATOM     23  F   UNL     1       8.752   5.930  13.196  0.00  0.00    +0.000 F 
ENDBRANCH  14  17
ENDBRANCH   1  15
TORSDOF 4
ENDMDL
MODEL 2
REMARK VINA RESULT:      -7.9      0.084      1.025
REMARK  Name = 
REMARK  4 active torsions:
REMARK  status: ('A' for Active; 'I' for Inactive)
REMARK    1  A    between atoms: C_2  and  C_16
REMARK    2  A    between atoms: N_3  and  C_4
REMARK    3  A    between atoms: C_4  and  C_5
REMARK    4  A    between atoms: C_8  and  N_9
REMARK                            x       y       z     vdW  Elec       q    Type
REMARK                         _______ _______ _______ _____ _____    ______ ____
ROOT
ATOM      1  C   UNL     1       6.465   6.784  17.081  0.00  0.00    +0.000 C 
ENDROOT
BRANCH   1   2
ATOM      2  C   UNL     1       5.349   6.245  17.935  0.00  0.00    +0.000 A 
ATOM      3  C   UNL     1       5.615   5.305  18.937  0.00  0.00    +0.000 A 
ATOM      4  C   UNL     1       4.581   4.789  19.728  0.00  0.00    +0.000 A 
ATOM      5  C   UNL     1       3.252   5.182  19.543  0.00  0.00    +0.000 A 
ATOM      6  C   UNL     1       2.994   6.101  18.513  0.00  0.00    +0.000 A 
ATOM      7  C   UNL     1       4.023   6.628  17.721  0.00  0.00    +0.000 A 
BRANCH   5   8
ATOM      8  N   UNL     1       2.191   4.708  20.313  0.00  0.00    +0.000 N 
ATOM      9  C   UNL     1       2.407   4.126  21.642  0.00  0.00    +0.000 C 
ATOM     10  C   UNL     1       1.843   2.715  21.543  0.00  0.00    +0.000 C 
ATOM     11  C   UNL     1       0.679   2.889  20.584  0.00  0.00    +0.000 C 
ATOM     12  C   UNL     1       1.208   3.901  19.567  0.00  0.00    +0.000 C 
ENDBRANCH   5   8
ENDBRANCH   1   2
BRANCH   1  15
ATOM     13  O   UNL     1       7.701   4.429  16.204  0.00  0.00    +0.000 OA
ATOM     14  C   UNL     1       7.041   5.082  15.400  0.00  0.00    +0.000 C 
ATOM     15  N   UNL     1       6.396   6.247  15.743  0.00  0.00    +0.000 N 
ATOM     16  H   UNL     1       5.847   6.748  15.054  0.00  0.00    +0.000 HD
BRANCH  14  17
ATOM     17  C   UNL     1       6.919   4.620  13.985  0.00  0.00    +0.000 A 
ATOM     18  C   UNL     1       5.908   3.701  13.664  0.00  0.00    +0.000 A 
ATOM     19  C   UNL     1       5.763   3.232  12.354  0.00  0.00    +0.000 A 
ATOM     20  C   UNL     1       6.627   3.674  11.352  0.00  0.00    +0.000 A 
ATOM     21  C   UNL     1       7.632   4.588  11.660  0.00  0.00    +0.000 A 
ATOM     22  C   UNL     1       7.772   5.054  12.968  0.00  0.00    +0.000 A 
ATOM     23  F   UNL     1       8.756   5.933  13.213  0.00  0.00    +0.000 F 
ENDBRANCH  14  17
ENDBRANCH   1  15
TORSDOF 4
ENDMDL
MODEL 3
REMARK VINA RESULT:      -7.6      6.115      8.490
REMARK  Name = 
REMARK  4 active torsions:
REMARK  status: ('A' for Active; 'I' for Inactive)
REMARK    1  A    between atoms: C_2  and  C_16
REMARK    2  A    between atoms: N_3  and  C_4
REMARK    3  A    between atoms: C_4  and  C_5
REMARK    4  A    between atoms: C_8  and  N_9
REMARK                            x       y       z     vdW  Elec       q    Type
REMARK                         _______ _______ _______ _____ _____    ______ ____
ROOT
ATOM      1  C   UNL     1       1.637  10.092  18.707  0.00  0.00    +0.000 C 
ENDROOT
BRANCH   1   2
ATOM      2  C   UNL     1       1.878   8.637  19.008  0.00  0.00    +0.000 A 
ATOM      3  C   UNL     1       2.289   7.763  17.996  0.00  0.00    +0.000 A 
ATOM      4  C   UNL     1       2.504   6.406  18.265  0.00  0.00    +0.000 A 
ATOM      5  C   UNL     1       2.309   5.872  19.543  0.00  0.00    +0.000 A 
ATOM      6  C   UNL     1       1.865   6.753  20.542  0.00  0.00    +0.000 A 
ATOM      7  C   UNL     1       1.653   8.115  20.284  0.00  0.00    +0.000 A 
BRANCH   5   8
ATOM      8  N   UNL     1       2.522   4.533  19.863  0.00  0.00    +0.000 N 
ATOM      9  C   UNL     1       2.294   3.463  18.884  0.00  0.00    +0.000 C 
ATOM     10  C   UNL     1       1.251   2.563  19.530  0.00  0.00    +0.000 C 
ATOM     11  C   UNL     1       1.594   2.662  21.006  0.00  0.00    +0.000 C 
ATOM     12  C   UNL     1       1.993   4.127  21.178  0.00  0.00    +0.000 C 
ENDBRANCH   5   8
ENDBRANCH   1   2
BRANCH   1  15
ATOM     13  O   UNL     1      -0.894  10.506  19.831  0.00  0.00    +0.000 OA
ATOM     14  C   UNL     1      -0.793  10.464  18.609  0.00  0.00    +0.000 C 
ATOM     15  N   UNL     1       0.409  10.270  17.970  0.00  0.00    +0.000 N 
ATOM     16  H   UNL     1       0.452  10.259  16.958  0.00  0.00    +0.000 HD
BRANCH  14  17
ATOM     17  C   UNL     1      -2.008  10.623  17.755  0.00  0.00    +0.000 A 
ATOM     18  C   UNL     1      -2.079   9.909  16.548  0.00  0.00    +0.000 A 
ATOM     19  C   UNL     1      -3.192  10.036  15.711  0.00  0.00    +0.000 A 
ATOM     20  C   UNL     1      -4.245  10.877  16.068  0.00  0.00    +0.000 A 
ATOM     21  C   UNL     1      -4.185  11.589  17.265  0.00  0.00    +0.000 A 
ATOM     22  C   UNL     1      -3.073  11.458  18.098  0.00  0.00    +0.000 A 
ATOM     23  F   UNL     1      -3.064  12.165  19.238  0.00  0.00    +0.000 F 
ENDBRANCH  14  17
ENDBRANCH   1  15
TORSDOF 4
ENDMDL
MODEL 4
REMARK VINA RESULT:      -7.4      1.020      1.441
REMARK  Name = 
REMARK  4 active torsions:
REMARK  status: ('A' for Active; 'I' for Inactive)
REMARK    1  A    between atoms: C_2  and  C_16
REMARK    2  A    between atoms: N_3  and  C_4
REMARK    3  A    between atoms: C_4  and  C_5
REMARK    4  A    between atoms: C_8  and  N_9
REMARK                            x       y       z     vdW  Elec       q    Type
REMARK                         _______ _______ _______ _____ _____    ______ ____
ROOT
ATOM      1  C   UNL     1       6.323   6.928  17.215  0.00  0.00    +0.000 C 
ENDROOT
BRANCH   1   2
ATOM      2  C   UNL     1       5.193   6.337  18.014  0.00  0.00    +0.000 A 
ATOM      3  C   UNL     1       3.878   6.768  17.809  0.00  0.00    +0.000 A 
ATOM      4  C   UNL     1       2.823   6.232  18.558  0.00  0.00    +0.000 A 
ATOM      5  C   UNL     1       3.042   5.259  19.539  0.00  0.00    +0.000 A 
ATOM      6  C   UNL     1       4.370   4.859  19.758  0.00  0.00    +0.000 A 
ATOM      7  C   UNL     1       5.432   5.385  19.009  0.00  0.00    +0.000 A 
BRANCH   5   8
ATOM      8  N   UNL     1       2.025   4.685  20.299  0.00  0.00    +0.000 N 
ATOM      9  C   UNL     1       2.284   4.126  21.632  0.00  0.00    +0.000 C 
ATOM     10  C   UNL     1       1.860   2.668  21.529  0.00  0.00    +0.000 C 
ATOM     11  C   UNL     1       0.694   2.729  20.559  0.00  0.00    +0.000 C 
ATOM     12  C   UNL     1       1.131   3.786  19.546  0.00  0.00    +0.000 C 
ENDBRANCH   5   8
ENDBRANCH   1   2
BRANCH   1  15
ATOM     13  O   UNL     1       7.653   4.601  16.405  0.00  0.00    +0.000 OA
ATOM     14  C   UNL     1       7.027   5.243  15.566  0.00  0.00    +0.000 C 
ATOM     15  N   UNL     1       6.341   6.394  15.874  0.00  0.00    +0.000 N 
ATOM     16  H   UNL     1       5.821   6.885  15.156  0.00  0.00    +0.000 HD
BRANCH  14  17
ATOM     17  C   UNL     1       6.995   4.782  14.146  0.00  0.00    +0.000 A 
ATOM     18  C   UNL     1       7.824   5.424  13.213  0.00  0.00    +0.000 A 
ATOM     19  C   UNL     1       7.819   5.033  11.870  0.00  0.00    +0.000 A 
ATOM     20  C   UNL     1       6.986   3.999  11.444  0.00  0.00    +0.000 A 
ATOM     21  C   UNL     1       6.161   3.354  12.363  0.00  0.00    +0.000 A 
ATOM     22  C   UNL     1       6.170   3.746  13.702  0.00  0.00    +0.000 A 
ATOM     23  F   UNL     1       5.357   3.094  14.547  0.00  0.00    +0.000 F 
ENDBRANCH  14  17
ENDBRANCH   1  15
TORSDOF 4
ENDMDL
MODEL 5
REMARK VINA RESULT:      -7.3      1.021      1.766
REMARK  Name = 
REMARK  4 active torsions:
REMARK  status: ('A' for Active; 'I' for Inactive)
REMARK    1  A    between atoms: C_2  and  C_16
REMARK    2  A    between atoms: N_3  and  C_4
REMARK    3  A    between atoms: C_4  and  C_5
REMARK    4  A    between atoms: C_8  and  N_9
REMARK                            x       y       z     vdW  Elec       q    Type
REMARK                         _______ _______ _______ _____ _____    ______ ____
ROOT
ATOM      1  C   UNL     1       6.551   6.833  17.305  0.00  0.00    +0.000 C 
ENDROOT
BRANCH   1   2
ATOM      2  C   UNL     1       5.401   6.267  18.094  0.00  0.00    +0.000 A 
ATOM      3  C   UNL     1       5.621   5.271  19.051  0.00  0.00    +0.000 A 
ATOM      4  C   UNL     1       4.556   4.730  19.781  0.00  0.00    +0.000 A 
ATOM      5  C   UNL     1       3.238   5.154  19.577  0.00  0.00    +0.000 A 
ATOM      6  C   UNL     1       3.027   6.131  18.590  0.00  0.00    +0.000 A 
ATOM      7  C   UNL     1       4.088   6.683  17.859  0.00  0.00    +0.000 A 
BRANCH   5   8
ATOM      8  N   UNL     1       2.147   4.658  20.287  0.00  0.00    +0.000 N 
ATOM      9  C   UNL     1       2.306   4.044  21.610  0.00  0.00    +0.000 C 
ATOM     10  C   UNL     1       1.755   2.634  21.452  0.00  0.00    +0.000 C 
ATOM     11  C   UNL     1       0.634   2.827  20.446  0.00  0.00    +0.000 C 
ATOM     12  C   UNL     1       1.202   3.864  19.479  0.00  0.00    +0.000 C 
ENDBRANCH   5   8
ENDBRANCH   1   2
BRANCH   1  15
ATOM     13  O   UNL     1       7.743   4.468  16.393  0.00  0.00    +0.000 OA
ATOM     14  C   UNL     1       7.149   5.177  15.586  0.00  0.00    +0.000 C 
ATOM     15  N   UNL     1       6.530   6.352  15.945  0.00  0.00    +0.000 N 
ATOM     16  H   UNL     1       6.035   6.899  15.251  0.00  0.00    +0.000 HD
BRANCH  14  17
ATOM     17  C   UNL     1       7.081   4.775  14.150  0.00  0.00    +0.000 A 
ATOM     18  C   UNL     1       7.874   5.467  13.220  0.00  0.00    +0.000 A 
ATOM     19  C   UNL     1       7.834   5.132  11.863  0.00  0.00    +0.000 A 
ATOM     20  C   UNL     1       7.003   4.105  11.418  0.00  0.00    +0.000 A 
ATOM     21  C   UNL     1       6.214   3.410  12.333  0.00  0.00    +0.000 A 
ATOM     22  C   UNL     1       6.257   3.747  13.686  0.00  0.00    +0.000 A 
ATOM     23  F   UNL     1       5.477   3.048  14.526  0.00  0.00    +0.000 F 
ENDBRANCH  14  17
ENDBRANCH   1  15
TORSDOF 4
ENDMDL
MODEL 6
REMARK VINA RESULT:      -7.3      6.097      8.476
REMARK  Name = 
REMARK  4 active torsions:
REMARK  status: ('A' for Active; 'I' for Inactive)
REMARK    1  A    between atoms: C_2  and  C_16
REMARK    2  A    between atoms: N_3  and  C_4
REMARK    3  A    between atoms: C_4  and  C_5
REMARK    4  A    between atoms: C_8  and  N_9
REMARK                            x       y       z     vdW  Elec       q    Type
REMARK                         _______ _______ _______ _____ _____    ______ ____
ROOT
ATOM      1  C   UNL     1       1.653   9.985  18.866  0.00  0.00    +0.000 C 
ENDROOT
BRANCH   1   2
ATOM      2  C   UNL     1       2.076   8.540  18.856  0.00  0.00    +0.000 A 
ATOM      3  C   UNL     1       1.825   7.721  19.961  0.00  0.00    +0.000 A 
ATOM      4  C   UNL     1       2.225   6.379  19.965  0.00  0.00    +0.000 A 
ATOM      5  C   UNL     1       2.895   5.812  18.876  0.00  0.00    +0.000 A 
ATOM      6  C   UNL     1       3.170   6.653  17.786  0.00  0.00    +0.000 A 
ATOM      7  C   UNL     1       2.767   7.996  17.770  0.00  0.00    +0.000 A 
BRANCH   5   8
ATOM      8  N   UNL     1       3.301   4.480  18.826  0.00  0.00    +0.000 N 
ATOM      9  C   UNL     1       3.474   3.778  17.548  0.00  0.00    +0.000 C 
ATOM     10  C   UNL     1       2.524   2.591  17.627  0.00  0.00    +0.000 C 
ATOM     11  C   UNL     1       2.558   2.236  19.102  0.00  0.00    +0.000 C 
ATOM     12  C   UNL     1       2.623   3.597  19.793  0.00  0.00    +0.000 C 
ENDBRANCH   5   8
ENDBRANCH   1   2
BRANCH   1  15
ATOM     13  O   UNL     1      -0.936  10.345  19.871  0.00  0.00    +0.000 OA
ATOM     14  C   UNL     1      -0.771  10.346  18.654  0.00  0.00    +0.000 C 
ATOM     15  N   UNL     1       0.464  10.181  18.073  0.00  0.00    +0.000 N 
ATOM     16  H   UNL     1       0.560  10.205  17.064  0.00  0.00    +0.000 HD
BRANCH  14  17
ATOM     17  C   UNL     1      -1.941  10.527  17.744  0.00  0.00    +0.000 A 
ATOM     18  C   UNL     1      -1.987   9.784  16.553  0.00  0.00    +0.000 A 
ATOM     19  C   UNL     1      -3.058   9.930  15.665  0.00  0.00    +0.000 A 
ATOM     20  C   UNL     1      -4.093  10.819  15.955  0.00  0.00    +0.000 A 
ATOM     21  C   UNL     1      -4.057  11.559  17.135  0.00  0.00    +0.000 A 
ATOM     22  C   UNL     1      -2.988  11.410  18.019  0.00  0.00    +0.000 A 
ATOM     23  F   UNL     1      -3.001  12.146  19.140  0.00  0.00    +0.000 F 
ENDBRANCH  14  17
ENDBRANCH   1  15
TORSDOF 4
ENDMDL
MODEL 7
REMARK VINA RESULT:      -7.3      2.647      7.824
REMARK  Name = 
REMARK  4 active torsions:
REMARK  status: ('A' for Active; 'I' for Inactive)
REMARK    1  A    between atoms: C_2  and  C_16
REMARK    2  A    between atoms: N_3  and  C_4
REMARK    3  A    between atoms: C_4  and  C_5
REMARK    4  A    between atoms: C_8  and  N_9
REMARK                            x       y       z     vdW  Elec       q    Type
REMARK                         _______ _______ _______ _____ _____    ______ ____
ROOT
ATOM      1  C   UNL     1       6.017   5.821  17.290  0.00  0.00    +0.000 C 
ENDROOT
BRANCH   1   2
ATOM      2  C   UNL     1       6.095   5.193  15.924  0.00  0.00    +0.000 A 
ATOM      3  C   UNL     1       7.260   5.308  15.158  0.00  0.00    +0.000 A 
ATOM      4  C   UNL     1       7.337   4.738  13.881  0.00  0.00    +0.000 A 
ATOM      5  C   UNL     1       6.258   4.045  13.322  0.00  0.00    +0.000 A 
ATOM      6  C   UNL     1       5.084   3.966  14.088  0.00  0.00    +0.000 A 
ATOM      7  C   UNL     1       4.999   4.527  15.369  0.00  0.00    +0.000 A 
BRANCH   5   8
ATOM      8  N   UNL     1       6.290   3.449  12.063  0.00  0.00    +0.000 N 
ATOM      9  C   UNL     1       5.206   2.574  11.600  0.00  0.00    +0.000 C 
ATOM     10  C   UNL     1       5.884   1.244  11.302  0.00  0.00    +0.000 C 
ATOM     11  C   UNL     1       7.253   1.672  10.805  0.00  0.00    +0.000 C 
ATOM     12  C   UNL     1       7.594   2.867  11.695  0.00  0.00    +0.000 C 
ENDBRANCH   5   8
ENDBRANCH   1   2
BRANCH   1  15
ATOM     13  O   UNL     1       5.874   3.922  19.343  0.00  0.00    +0.000 OA
ATOM     14  C   UNL     1       4.839   4.468  18.974  0.00  0.00    +0.000 C 
ATOM     15  N   UNL     1       4.814   5.414  17.976  0.00  0.00    +0.000 N 
ATOM     16  H   UNL     1       3.941   5.855  17.712  0.00  0.00    +0.000 HD
BRANCH  14  17
ATOM     17  C   UNL     1       3.537   4.108  19.611  0.00  0.00    +0.000 A 
ATOM     18  C   UNL     1       2.711   5.140  20.081  0.00  0.00    +0.000 A 
ATOM     19  C   UNL     1       1.489   4.850  20.696  0.00  0.00    +0.000 A 
ATOM     20  C   UNL     1       1.078   3.525  20.847  0.00  0.00    +0.000 A 
ATOM     21  C   UNL     1       1.890   2.493  20.381  0.00  0.00    +0.000 A 
ATOM     22  C   UNL     1       3.108   2.788  19.769  0.00  0.00    +0.000 A 
ATOM     23  F   UNL     1       3.853   1.758  19.338  0.00  0.00    +0.000 F 
ENDBRANCH  14  17
ENDBRANCH   1  15
TORSDOF 4
ENDMDL
MODEL 8
REMARK VINA RESULT:      -7.2      5.603      8.221
REMARK  Name = 
REMARK  4 active torsions:
REMARK  status: ('A' for Active; 'I' for Inactive)
REMARK    1  A    between atoms: C_2  and  C_16
REMARK    2  A    between atoms: N_3  and  C_4
REMARK    3  A    between atoms: C_4  and  C_5
REMARK    4  A    between atoms: C_8  and  N_9
REMARK                            x       y       z     vdW  Elec       q    Type
REMARK                         _______ _______ _______ _____ _____    ______ ____
ROOT
ATOM      1  C   UNL     1       1.798   8.642  20.833  0.00  0.00    +0.000 C 
ENDROOT
BRANCH   1   2
ATOM      2  C   UNL     1       0.735   9.354  20.040  0.00  0.00    +0.000 A 
ATOM      3  C   UNL     1       0.809   9.407  18.644  0.00  0.00    +0.000 A 
ATOM      4  C   UNL     1      -0.169  10.078  17.900  0.00  0.00    +0.000 A 
ATOM      5  C   UNL     1      -1.245  10.724  18.518  0.00  0.00    +0.000 A 
ATOM      6  C   UNL     1      -1.290  10.691  19.920  0.00  0.00    +0.000 A 
ATOM      7  C   UNL     1      -0.319  10.017  20.674  0.00  0.00    +0.000 A 
BRANCH   5   8
ATOM      8  N   UNL     1      -2.250  11.392  17.821  0.00  0.00    +0.000 N 
ATOM      9  C   UNL     1      -3.532  11.726  18.454  0.00  0.00    +0.000 C 
ATOM     10  C   UNL     1      -4.580  11.034  17.594  0.00  0.00    +0.000 C 
ATOM     11  C   UNL     1      -3.975  11.113  16.204  0.00  0.00    +0.000 C 
ATOM     12  C   UNL     1      -2.484  10.890  16.454  0.00  0.00    +0.000 C 
ENDBRANCH   5   8
ENDBRANCH   1   2
BRANCH   1  15
ATOM     13  O   UNL     1       3.105   6.816  19.161  0.00  0.00    +0.000 OA
ATOM     14  C   UNL     1       2.271   6.393  19.956  0.00  0.00    +0.000 C 
ATOM     15  N   UNL     1       1.584   7.215  20.818  0.00  0.00    +0.000 N 
ATOM     16  H   UNL     1       0.916   6.824  21.472  0.00  0.00    +0.000 HD
BRANCH  14  17
ATOM     17  C   UNL     1       1.966   4.932  20.010  0.00  0.00    +0.000 A 
ATOM     18  C   UNL     1       2.092   4.265  21.239  0.00  0.00    +0.000 A 
ATOM     19  C   UNL     1       1.828   2.894  21.334  0.00  0.00    +0.000 A 
ATOM     20  C   UNL     1       1.436   2.176  20.205  0.00  0.00    +0.000 A 
ATOM     21  C   UNL     1       1.306   2.830  18.981  0.00  0.00    +0.000 A 
ATOM     22  C   UNL     1       1.570   4.197  18.890  0.00  0.00    +0.000 A 
ATOM     23  F   UNL     1       1.430   4.779  17.690  0.00  0.00    +0.000 F 
ENDBRANCH  14  17
ENDBRANCH   1  15
TORSDOF 4
ENDMDL
MODEL 9
REMARK VINA RESULT:      -7.2      4.096      5.312
REMARK  Name = 
REMARK  4 active torsions:
REMARK  status: ('A' for Active; 'I' for Inactive)
REMARK    1  A    between atoms: C_2  and  C_16
REMARK    2  A    between atoms: N_3  and  C_4
REMARK    3  A    between atoms: C_4  and  C_5
REMARK    4  A    between atoms: C_8  and  N_9
REMARK                            x       y       z     vdW  Elec       q    Type
REMARK                         _______ _______ _______ _____ _____    ______ ____
ROOT
ATOM      1  C   UNL     1       3.061   6.172  19.493  0.00  0.00    +0.000 C 
ENDROOT
BRANCH   1   2
ATOM      2  C   UNL     1       2.254   7.437  19.382  0.00  0.00    +0.000 A 
ATOM      3  C   UNL     1       2.171   8.120  18.163  0.00  0.00    +0.000 A 
ATOM      4  C   UNL     1       1.433   9.304  18.054  0.00  0.00    +0.000 A 
ATOM      5  C   UNL     1       0.761   9.853  19.152  0.00  0.00    +0.000 A 
ATOM      6  C   UNL     1       0.879   9.176  20.376  0.00  0.00    +0.000 A 
ATOM      7  C   UNL     1       1.610   7.986  20.494  0.00  0.00    +0.000 A 
BRANCH   5   8
ATOM      8  N   UNL     1       0.002  11.020  19.090  0.00  0.00    +0.000 N 
ATOM      9  C   UNL     1      -0.065  11.952  20.222  0.00  0.00    +0.000 C 
ATOM     10  C   UNL     1      -1.545  12.028  20.572  0.00  0.00    +0.000 C 
ATOM     11  C   UNL     1      -2.215  11.876  19.219  0.00  0.00    +0.000 C 
ATOM     12  C   UNL     1      -1.340  10.846  18.505  0.00  0.00    +0.000 C 
ENDBRANCH   5   8
ENDBRANCH   1   2
BRANCH   1  15
ATOM     13  O   UNL     1       5.053   4.230  19.175  0.00  0.00    +0.000 OA
ATOM     14  C   UNL     1       4.786   4.959  18.225  0.00  0.00    +0.000 C 
ATOM     15  N   UNL     1       3.820   5.936  18.288  0.00  0.00    +0.000 N 
ATOM     16  H   UNL     1       3.617   6.506  17.475  0.00  0.00    +0.000 HD
BRANCH  14  17
ATOM     17  C   UNL     1       5.524   4.806  16.936  0.00  0.00    +0.000 A 
ATOM     18  C   UNL     1       4.837   4.292  15.825  0.00  0.00    +0.000 A 
ATOM     19  C   UNL     1       5.491   4.120  14.601  0.00  0.00    +0.000 A 
ATOM     20  C   UNL     1       6.838   4.458  14.473  0.00  0.00    +0.000 A 
ATOM     21  C   UNL     1       7.528   4.972  15.569  0.00  0.00    +0.000 A 
ATOM     22  C   UNL     1       6.872   5.142  16.788  0.00  0.00    +0.000 A 
ATOM     23  F   UNL     1       7.581   5.639  17.813  0.00  0.00    +0.000 F 
ENDBRANCH  14  17
ENDBRANCH   1  15
TORSDOF 4
ENDMDL
