MODEL 1
REMARK VINA RESULT:      -9.3      0.000      0.000
REMARK  Name = 
REMARK  6 active torsions:
REMARK  status: ('A' for Active; 'I' for Inactive)
REMARK    1  A    between atoms: C_1  and  O_2
REMARK    2  A    between atoms: O_2  and  C_3
REMARK    3  A    between atoms: C_8  and  O_9
REMARK    4  A    between atoms: O_9  and  C_10
REMARK    5  A    between atoms: N_14  and  C_15
REMARK    6  A    between atoms: C_15  and  C_16
REMARK                            x       y       z     vdW  Elec       q    Type
REMARK                         _______ _______ _______ _____ _____    ______ ____
ROOT
ATOM      1  C   UNL     1       6.417   4.984  16.019  0.00  0.00    +0.000 A 
ATOM      2  C   UNL     1       5.503   3.945  16.218  0.00  0.00    +0.000 A 
ATOM      3  C   UNL     1       4.442   4.054  17.132  0.00  0.00    +0.000 A 
ATOM      4  C   UNL     1       4.251   5.240  17.840  0.00  0.00    +0.000 A 
ATOM      5  C   UNL     1       5.116   6.315  17.553  0.00  0.00    +0.000 A 
ATOM      6  C   UNL     1       6.183   6.205  16.651  0.00  0.00    +0.000 A 
ATOM      7  C   UNL     1       3.164   5.329  18.847  0.00  0.00    +0.000 A 
ATOM      8  C   UNL     1       2.986   6.444  19.568  0.00  0.00    +0.000 A 
ATOM      9  C   UNL     1       1.854   6.461  20.512  0.00  0.00    +0.000 A 
ATOM     10  N   UNL     1       1.611   7.616  21.216  0.00  0.00    +0.000 N 
ATOM     11  N   UNL     1       1.076   5.442  20.693  0.00  0.00    +0.000 NA
ATOM     12  C   UNL     1       1.289   4.286  20.001  0.00  0.00    +0.000 A 
ATOM     13  O   UNL     1       0.569   3.307  20.197  0.00  0.00    +0.000 OA
ATOM     14  N   UNL     1       2.328   4.248  19.062  0.00  0.00    +0.000 N 
ATOM     15  C   UNL     1       2.467   2.984  18.364  0.00  0.00    +0.000 C 
ATOM     16  C   UNL     1       3.577   2.850  17.337  0.00  0.00    +0.000 C 
ATOM     17  H   UNL     1       2.117   8.452  20.948  0.00  0.00    +0.000 HD
ENDROOT
BRANCH   1  19
ATOM     18  C   UNL     1       7.300   4.856  13.840  0.00  0.00    +0.000 C 
ATOM     19  O   UNL     1       7.537   4.824  15.249  0.00  0.00    +0.000 OA
ENDBRANCH   1  19
BRANCH   6  20
ATOM     20  O   UNL     1       6.930   7.350  16.576  0.00  0.00    +0.000 OA
ATOM     21  C   UNL     1       7.713   7.688  17.713  0.00  0.00    +0.000 C 
ENDBRANCH   6  20
BRANCH  10  22
ATOM     22  C   UNL     1       0.268   7.872  21.691  0.00  0.00    +0.000 C 
BRANCH  22  23
ATOM     23  C   UNL     1      -0.084   9.324  21.531  0.00  0.00    +0.000 A 
ATOM     24  C   UNL     1      -0.140   9.907  20.244  0.00  0.00    +0.000 A 
ATOM     25  C   UNL     1      -0.711  11.167  20.058  0.00  0.00    +0.000 A 
ATOM     26  C   UNL     1      -1.231  11.795  21.168  0.00  0.00    +0.000 A 
ATOM     27  C   UNL     1      -1.113  11.261  22.432  0.00  0.00    +0.000 A 
ATOM     28  C   UNL     1      -0.521  10.045  22.654  0.00  0.00    +0.000 A 
ATOM     29  O   UNL     1      -1.744  12.016  23.373  0.00  0.00    +0.000 OA
ATOM     30  C   UNL     1      -2.515  12.870  22.509  0.00  0.00    +0.000 C 
ATOM     31  O   UNL     1      -1.977  12.934  21.169  0.00  0.00    +0.000 OA
ENDBRANCH  22  23
ENDBRANCH  10  22
TORSDOF 4
ENDMDL
MODEL 2
REMARK VINA RESULT:      -9.2      1.019      1.523
REMARK  Name = 
REMARK  6 active torsions:
REMARK  status: ('A' for Active; 'I' for Inactive)
REMARK    1  A    between atoms: C_1  and  O_2
REMARK    2  A    between atoms: O_2  and  C_3
REMARK    3  A    between atoms: C_8  and  O_9
REMARK    4  A    between atoms: O_9  and  C_10
REMARK    5  A    between atoms: N_14  and  C_15
REMARK    6  A    between atoms: C_15  and  C_16
REMARK                            x       y       z     vdW  Elec       q    Type
REMARK                         _______ _______ _______ _____ _____    ______ ____
ROOT
ATOM      1  C   UNL     1       6.361   4.856  15.956  0.00  0.00    +0.000 A 
ATOM      2  C   UNL     1       5.446   3.826  16.193  0.00  0.00    +0.000 A 
ATOM      3  C   UNL     1       4.399   3.961  17.119  0.00  0.00    +0.000 A 
ATOM      4  C   UNL     1       4.224   5.164  17.803  0.00  0.00    +0.000 A 
ATOM      5  C   UNL     1       5.089   6.228  17.478  0.00  0.00    +0.000 A 
ATOM      6  C   UNL     1       6.143   6.092  16.563  0.00  0.00    +0.000 A 
ATOM      7  C   UNL     1       3.152   5.281  18.823  0.00  0.00    +0.000 A 
ATOM      8  C   UNL     1       2.989   6.414  19.520  0.00  0.00    +0.000 A 
ATOM      9  C   UNL     1       1.871   6.457  20.480  0.00  0.00    +0.000 A 
ATOM     10  N   UNL     1       1.643   7.630  21.160  0.00  0.00    +0.000 N 
ATOM     11  N   UNL     1       1.092   5.447  20.696  0.00  0.00    +0.000 NA
ATOM     12  C   UNL     1       1.289   4.274  20.028  0.00  0.00    +0.000 A 
ATOM     13  O   UNL     1       0.568   3.303  20.257  0.00  0.00    +0.000 OA
ATOM     14  N   UNL     1       2.314   4.209  19.074  0.00  0.00    +0.000 N 
ATOM     15  C   UNL     1       2.438   2.929  18.405  0.00  0.00    +0.000 C 
ATOM     16  C   UNL     1       3.532   2.766  17.365  0.00  0.00    +0.000 C 
ATOM     17  H   UNL     1       2.149   8.457  20.866  0.00  0.00    +0.000 HD
ENDROOT
BRANCH   1  19
ATOM     18  C   UNL     1       7.225   4.751  13.769  0.00  0.00    +0.000 C 
ATOM     19  O   UNL     1       7.470   4.673  15.174  0.00  0.00    +0.000 OA
ENDBRANCH   1  19
BRANCH   6  20
ATOM     20  O   UNL     1       6.893   7.232  16.451  0.00  0.00    +0.000 OA
ATOM     21  C   UNL     1       7.576   7.674  17.616  0.00  0.00    +0.000 C 
ENDBRANCH   6  20
BRANCH  10  22
ATOM     22  C   UNL     1       0.309   7.903  21.649  0.00  0.00    +0.000 C 
BRANCH  22  23
ATOM     23  C   UNL     1       0.010   9.374  21.581  0.00  0.00    +0.000 A 
ATOM     24  C   UNL     1      -0.709  10.004  22.623  0.00  0.00    +0.000 A 
ATOM     25  C   UNL     1      -0.769  11.396  22.705  0.00  0.00    +0.000 A 
ATOM     26  C   UNL     1      -0.086  12.116  21.749  0.00  0.00    +0.000 A 
ATOM     27  C   UNL     1       0.554  11.505  20.694  0.00  0.00    +0.000 A 
ATOM     28  C   UNL     1       0.597  10.140  20.563  0.00  0.00    +0.000 A 
ATOM     29  O   UNL     1       1.211  12.395  19.901  0.00  0.00    +0.000 OA
ATOM     30  C   UNL     1       1.169  13.548  20.762  0.00  0.00    +0.000 C 
ATOM     31  O   UNL     1       0.122  13.461  21.755  0.00  0.00    +0.000 OA
ENDBRANCH  22  23
ENDBRANCH  10  22
TORSDOF 4
ENDMDL
MODEL 3
REMARK VINA RESULT:      -8.7      1.255      1.630
REMARK  Name = 
REMARK  6 active torsions:
REMARK  status: ('A' for Active; 'I' for Inactive)
REMARK    1  A    between atoms: C_1  and  O_2
REMARK    2  A    between atoms: O_2  and  C_3
REMARK    3  A    between atoms: C_8  and  O_9
REMARK    4  A    between atoms: O_9  and  C_10
REMARK    5  A    between atoms: N_14  and  C_15
REMARK    6  A    between atoms: C_15  and  C_16
REMARK                            x       y       z     vdW  Elec       q    Type
REMARK                         _______ _______ _______ _____ _____    ______ ____
ROOT
ATOM      1  C   UNL     1       6.376   4.817  15.979  0.00  0.00    +0.000 A 
ATOM      2  C   UNL     1       5.424   3.824  16.226  0.00  0.00    +0.000 A 
ATOM      3  C   UNL     1       4.377   4.011  17.143  0.00  0.00    +0.000 A 
ATOM      4  C   UNL     1       4.240   5.230  17.806  0.00  0.00    +0.000 A 
ATOM      5  C   UNL     1       5.145   6.257  17.470  0.00  0.00    +0.000 A 
ATOM      6  C   UNL     1       6.198   6.070  16.564  0.00  0.00    +0.000 A 
ATOM      7  C   UNL     1       3.167   5.402  18.817  0.00  0.00    +0.000 A 
ATOM      8  C   UNL     1       3.040   6.550  19.495  0.00  0.00    +0.000 A 
ATOM      9  C   UNL     1       1.919   6.649  20.447  0.00  0.00    +0.000 A 
ATOM     10  N   UNL     1       1.728   7.840  21.106  0.00  0.00    +0.000 N 
ATOM     11  N   UNL     1       1.103   5.670  20.673  0.00  0.00    +0.000 NA
ATOM     12  C   UNL     1       1.262   4.480  20.026  0.00  0.00    +0.000 A 
ATOM     13  O   UNL     1       0.506   3.540  20.265  0.00  0.00    +0.000 OA
ATOM     14  N   UNL     1       2.290   4.364  19.080  0.00  0.00    +0.000 N 
ATOM     15  C   UNL     1       2.372   3.070  18.432  0.00  0.00    +0.000 C 
ATOM     16  C   UNL     1       3.466   2.852  17.402  0.00  0.00    +0.000 C 
ATOM     17  H   UNL     1       2.265   8.643  20.803  0.00  0.00    +0.000 HD
ENDROOT
BRANCH   1  19
ATOM     18  C   UNL     1       7.302   4.846  13.814  0.00  0.00    +0.000 C 
ATOM     19  O   UNL     1       7.483   4.583  15.207  0.00  0.00    +0.000 OA
ENDBRANCH   1  19
BRANCH   6  20
ATOM     20  O   UNL     1       6.989   7.180  16.439  0.00  0.00    +0.000 OA
ATOM     21  C   UNL     1       7.583   7.690  17.626  0.00  0.00    +0.000 C 
ENDBRANCH   6  20
BRANCH  10  22
ATOM     22  C   UNL     1       0.402   8.167  21.582  0.00  0.00    +0.000 C 
BRANCH  22  23
ATOM     23  C   UNL     1       0.019   9.561  21.171  0.00  0.00    +0.000 A 
ATOM     24  C   UNL     1       0.616  10.679  21.798  0.00  0.00    +0.000 A 
ATOM     25  C   UNL     1       0.471  11.959  21.260  0.00  0.00    +0.000 A 
ATOM     26  C   UNL     1      -0.250  12.075  20.092  0.00  0.00    +0.000 A 
ATOM     27  C   UNL     1      -0.891  10.998  19.518  0.00  0.00    +0.000 A 
ATOM     28  C   UNL     1      -0.802   9.736  20.047  0.00  0.00    +0.000 A 
ATOM     29  O   UNL     1      -1.497  11.322  18.344  0.00  0.00    +0.000 OA
ATOM     30  C   UNL     1      -0.887  12.606  18.114  0.00  0.00    +0.000 C 
ATOM     31  O   UNL     1      -0.357  13.193  19.323  0.00  0.00    +0.000 OA
ENDBRANCH  22  23
ENDBRANCH  10  22
TORSDOF 4
ENDMDL
MODEL 4
REMARK VINA RESULT:      -8.3      2.829      4.673
REMARK  Name = 
REMARK  6 active torsions:
REMARK  status: ('A' for Active; 'I' for Inactive)
REMARK    1  A    between atoms: C_1  and  O_2
REMARK    2  A    between atoms: O_2  and  C_3
REMARK    3  A    between atoms: C_8  and  O_9
REMARK    4  A    between atoms: O_9  and  C_10
REMARK    5  A    between atoms: N_14  and  C_15
REMARK    6  A    between atoms: C_15  and  C_16
REMARK                            x       y       z     vdW  Elec       q    Type
REMARK                         _______ _______ _______ _____ _____    ______ ____
ROOT
ATOM      1  C   UNL     1       3.623   3.433  19.717  0.00  0.00    +0.000 A 
ATOM      2  C   UNL     1       3.947   4.338  18.702  0.00  0.00    +0.000 A 
ATOM      3  C   UNL     1       3.443   5.648  18.686  0.00  0.00    +0.000 A 
ATOM      4  C   UNL     1       2.628   6.095  19.726  0.00  0.00    +0.000 A 
ATOM      5  C   UNL     1       2.395   5.206  20.795  0.00  0.00    +0.000 A 
ATOM      6  C   UNL     1       2.886   3.894  20.808  0.00  0.00    +0.000 A 
ATOM      7  C   UNL     1       2.051   7.461  19.675  0.00  0.00    +0.000 A 
ATOM      8  C   UNL     1       1.234   7.898  20.642  0.00  0.00    +0.000 A 
ATOM      9  C   UNL     1       0.743   9.284  20.533  0.00  0.00    +0.000 A 
ATOM     10  N   UNL     1      -0.044   9.777  21.546  0.00  0.00    +0.000 N 
ATOM     11  N   UNL     1       1.034  10.054  19.535  0.00  0.00    +0.000 NA
ATOM     12  C   UNL     1       1.821   9.594  18.520  0.00  0.00    +0.000 A 
ATOM     13  O   UNL     1       2.071  10.317  17.556  0.00  0.00    +0.000 OA
ATOM     14  N   UNL     1       2.343   8.297  18.611  0.00  0.00    +0.000 N 
ATOM     15  C   UNL     1       3.179   7.902  17.495  0.00  0.00    +0.000 C 
ATOM     16  C   UNL     1       3.777   6.506  17.506  0.00  0.00    +0.000 C 
ATOM     17  H   UNL     1      -0.129   9.228  22.393  0.00  0.00    +0.000 HD
ENDROOT
BRANCH   1  19
ATOM     18  C   UNL     1       3.555   1.437  18.471  0.00  0.00    +0.000 C 
ATOM     19  O   UNL     1       3.984   2.114  19.654  0.00  0.00    +0.000 OA
ENDBRANCH   1  19
BRANCH   6  20
ATOM     20  O   UNL     1       2.484   3.191  21.912  0.00  0.00    +0.000 OA
ATOM     21  C   UNL     1       1.244   2.501  21.823  0.00  0.00    +0.000 C 
ENDBRANCH   6  20
BRANCH  10  22
ATOM     22  C   UNL     1      -0.078  11.206  21.769  0.00  0.00    +0.000 C 
BRANCH  22  23
ATOM     23  C   UNL     1      -1.487  11.674  22.003  0.00  0.00    +0.000 A 
ATOM     24  C   UNL     1      -2.055  11.608  23.295  0.00  0.00    +0.000 A 
ATOM     25  C   UNL     1      -3.251  12.270  23.581  0.00  0.00    +0.000 A 
ATOM     26  C   UNL     1      -3.829  12.997  22.565  0.00  0.00    +0.000 A 
ATOM     27  C   UNL     1      -3.315  13.004  21.287  0.00  0.00    +0.000 A 
ATOM     28  C   UNL     1      -2.164  12.331  20.964  0.00  0.00    +0.000 A 
ATOM     29  O   UNL     1      -4.006  13.830  20.455  0.00  0.00    +0.000 OA
ATOM     30  C   UNL     1      -4.775  14.554  21.433  0.00  0.00    +0.000 C 
ATOM     31  O   UNL     1      -4.887  13.845  22.687  0.00  0.00    +0.000 OA
ENDBRANCH  22  23
ENDBRANCH  10  22
TORSDOF 4
ENDMDL
MODEL 5
REMARK VINA RESULT:      -8.1      2.925      4.696
REMARK  Name = 
REMARK  6 active torsions:
REMARK  status: ('A' for Active; 'I' for Inactive)
REMARK    1  A    between atoms: C_1  and  O_2
REMARK    2  A    between atoms: O_2  and  C_3
REMARK    3  A    between atoms: C_8  and  O_9
REMARK    4  A    between atoms: O_9  and  C_10
REMARK    5  A    between atoms: N_14  and  C_15
REMARK    6  A    between atoms: C_15  and  C_16
REMARK                            x       y       z     vdW  Elec       q    Type
REMARK                         _______ _______ _______ _____ _____    ______ ____
ROOT
ATOM      1  C   UNL     1       3.323   3.614  19.789  0.00  0.00    +0.000 A 
ATOM      2  C   UNL     1       3.658   4.477  18.742  0.00  0.00    +0.000 A 
ATOM      3  C   UNL     1       3.215   5.809  18.708  0.00  0.00    +0.000 A 
ATOM      4  C   UNL     1       2.453   6.318  19.759  0.00  0.00    +0.000 A 
ATOM      5  C   UNL     1       2.210   5.468  20.856  0.00  0.00    +0.000 A 
ATOM      6  C   UNL     1       2.640   4.134  20.888  0.00  0.00    +0.000 A 
ATOM      7  C   UNL     1       1.938   7.708  19.689  0.00  0.00    +0.000 A 
ATOM      8  C   UNL     1       1.171   8.207  20.668  0.00  0.00    +0.000 A 
ATOM      9  C   UNL     1       0.742   9.611  20.537  0.00  0.00    +0.000 A 
ATOM     10  N   UNL     1       0.008  10.164  21.560  0.00  0.00    +0.000 N 
ATOM     11  N   UNL     1       1.038  10.343  19.512  0.00  0.00    +0.000 NA
ATOM     12  C   UNL     1       1.773   9.822  18.487  0.00  0.00    +0.000 A 
ATOM     13  O   UNL     1       2.028  10.509  17.499  0.00  0.00    +0.000 OA
ATOM     14  N   UNL     1       2.237   8.504  18.596  0.00  0.00    +0.000 N 
ATOM     15  C   UNL     1       3.021   8.043  17.468  0.00  0.00    +0.000 C 
ATOM     16  C   UNL     1       3.553   6.621  17.497  0.00  0.00    +0.000 C 
ATOM     17  H   UNL     1      -0.077   9.641  22.422  0.00  0.00    +0.000 HD
ENDROOT
BRANCH   1  19
ATOM     18  C   UNL     1       3.397   1.658  18.481  0.00  0.00    +0.000 C 
ATOM     19  O   UNL     1       3.620   2.278  19.749  0.00  0.00    +0.000 OA
ENDBRANCH   1  19
BRANCH   6  20
ATOM     20  O   UNL     1       2.239   3.477  22.020  0.00  0.00    +0.000 OA
ATOM     21  C   UNL     1       1.186   2.533  21.881  0.00  0.00    +0.000 C 
ENDBRANCH   6  20
BRANCH  10  22
ATOM     22  C   UNL     1       0.048  11.599  21.747  0.00  0.00    +0.000 C 
BRANCH  22  23
ATOM     23  C   UNL     1      -1.337  12.145  21.951  0.00  0.00    +0.000 A 
ATOM     24  C   UNL     1      -2.208  12.311  20.849  0.00  0.00    +0.000 A 
ATOM     25  C   UNL     1      -3.566  12.567  21.048  0.00  0.00    +0.000 A 
ATOM     26  C   UNL     1      -4.014  12.625  22.349  0.00  0.00    +0.000 A 
ATOM     27  C   UNL     1      -3.155  12.536  23.423  0.00  0.00    +0.000 A 
ATOM     28  C   UNL     1      -1.810  12.326  23.260  0.00  0.00    +0.000 A 
ATOM     29  O   UNL     1      -3.812  12.562  24.614  0.00  0.00    +0.000 OA
ATOM     30  C   UNL     1      -5.156  12.351  24.144  0.00  0.00    +0.000 C 
ATOM     31  O   UNL     1      -5.314  12.688  22.747  0.00  0.00    +0.000 OA
ENDBRANCH  22  23
ENDBRANCH  10  22
TORSDOF 4
ENDMDL
MODEL 6
REMARK VINA RESULT:      -8.1      2.919      5.328
REMARK  Name = 
REMARK  6 active torsions:
REMARK  status: ('A' for Active; 'I' for Inactive)
REMARK    1  A    between atoms: C_1  and  O_2
REMARK    2  A    between atoms: O_2  and  C_3
REMARK    3  A    between atoms: C_8  and  O_9
REMARK    4  A    between atoms: O_9  and  C_10
REMARK    5  A    between atoms: N_14  and  C_15
REMARK    6  A    between atoms: C_15  and  C_16
REMARK                            x       y       z     vdW  Elec       q    Type
REMARK                         _______ _______ _______ _____ _____    ______ ____
ROOT
ATOM      1  C   UNL     1       3.123   5.081  19.237  0.00  0.00    +0.000 A 
ATOM      2  C   UNL     1       3.192   6.179  18.375  0.00  0.00    +0.000 A 
ATOM      3  C   UNL     1       2.532   7.386  18.656  0.00  0.00    +0.000 A 
ATOM      4  C   UNL     1       1.816   7.530  19.843  0.00  0.00    +0.000 A 
ATOM      5  C   UNL     1       1.841   6.452  20.751  0.00  0.00    +0.000 A 
ATOM      6  C   UNL     1       2.489   5.241  20.469  0.00  0.00    +0.000 A 
ATOM      7  C   UNL     1       1.072   8.786  20.107  0.00  0.00    +0.000 A 
ATOM      8  C   UNL     1       0.346   8.933  21.223  0.00  0.00    +0.000 A 
ATOM      9  C   UNL     1      -0.324  10.231  21.424  0.00  0.00    +0.000 A 
ATOM     10  N   UNL     1      -1.022  10.429  22.592  0.00  0.00    +0.000 N 
ATOM     11  N   UNL     1      -0.268  11.191  20.558  0.00  0.00    +0.000 NA
ATOM     12  C   UNL     1       0.425  11.025  19.395  0.00  0.00    +0.000 A 
ATOM     13  O   UNL     1       0.452  11.926  18.558  0.00  0.00    +0.000 OA
ATOM     14  N   UNL     1       1.112   9.821  19.189  0.00  0.00    +0.000 N 
ATOM     15  C   UNL     1       1.833   9.743  17.934  0.00  0.00    +0.000 C 
ATOM     16  C   UNL     1       2.594   8.467  17.622  0.00  0.00    +0.000 C 
ATOM     17  H   UNL     1      -0.922   9.741  23.328  0.00  0.00    +0.000 HD
ENDROOT
BRANCH   1  19
ATOM     18  C   UNL     1       4.472   3.867  17.738  0.00  0.00    +0.000 C 
ATOM     19  O   UNL     1       3.633   3.858  18.894  0.00  0.00    +0.000 OA
ENDBRANCH   1  19
BRANCH   6  20
ATOM     20  O   UNL     1       2.330   4.314  21.463  0.00  0.00    +0.000 OA
ATOM     21  C   UNL     1       1.442   3.234  21.205  0.00  0.00    +0.000 C 
ENDBRANCH   6  20
BRANCH  10  22
ATOM     22  C   UNL     1      -1.202  11.781  23.075  0.00  0.00    +0.000 C 
BRANCH  22  23
ATOM     23  C   UNL     1      -2.650  12.178  23.014  0.00  0.00    +0.000 A 
ATOM     24  C   UNL     1      -3.418  12.256  24.198  0.00  0.00    +0.000 A 
ATOM     25  C   UNL     1      -4.674  12.866  24.193  0.00  0.00    +0.000 A 
ATOM     26  C   UNL     1      -5.111  13.401  23.001  0.00  0.00    +0.000 A 
ATOM     27  C   UNL     1      -4.396  13.262  21.831  0.00  0.00    +0.000 A 
ATOM     28  C   UNL     1      -3.179  12.632  21.796  0.00  0.00    +0.000 A 
ATOM     29  O   UNL     1      -4.980  13.912  20.788  0.00  0.00    +0.000 OA
ATOM     30  C   UNL     1      -5.931  14.712  21.514  0.00  0.00    +0.000 C 
ATOM     31  O   UNL     1      -6.213  14.181  22.828  0.00  0.00    +0.000 OA
ENDBRANCH  22  23
ENDBRANCH  10  22
TORSDOF 4
ENDMDL
MODEL 7
REMARK VINA RESULT:      -8.1      3.481      9.707
REMARK  Name = 
REMARK  6 active torsions:
REMARK  status: ('A' for Active; 'I' for Inactive)
REMARK    1  A    between atoms: C_1  and  O_2
REMARK    2  A    between atoms: O_2  and  C_3
REMARK    3  A    between atoms: C_8  and  O_9
REMARK    4  A    between atoms: O_9  and  C_10
REMARK    5  A    between atoms: N_14  and  C_15
REMARK    6  A    between atoms: C_15  and  C_16
REMARK                            x       y       z     vdW  Elec       q    Type
REMARK                         _______ _______ _______ _____ _____    ______ ____
ROOT
ATOM      1  C   UNL     1      -4.746  11.921  17.348  0.00  0.00    +0.000 A 
ATOM      2  C   UNL     1      -4.174  12.300  18.565  0.00  0.00    +0.000 A 
ATOM      3  C   UNL     1      -2.927  11.808  18.985  0.00  0.00    +0.000 A 
ATOM      4  C   UNL     1      -2.203  10.948  18.160  0.00  0.00    +0.000 A 
ATOM      5  C   UNL     1      -2.744  10.656  16.891  0.00  0.00    +0.000 A 
ATOM      6  C   UNL     1      -3.993  11.136  16.474  0.00  0.00    +0.000 A 
ATOM      7  C   UNL     1      -0.915  10.384  18.634  0.00  0.00    +0.000 A 
ATOM      8  C   UNL     1      -0.220   9.526  17.875  0.00  0.00    +0.000 A 
ATOM      9  C   UNL     1       1.071   9.052  18.406  0.00  0.00    +0.000 A 
ATOM     10  N   UNL     1       1.832   8.222  17.618  0.00  0.00    +0.000 N 
ATOM     11  N   UNL     1       1.520   9.396  19.569  0.00  0.00    +0.000 NA
ATOM     12  C   UNL     1       0.790  10.227  20.368  0.00  0.00    +0.000 A 
ATOM     13  O   UNL     1       1.203  10.528  21.487  0.00  0.00    +0.000 OA
ATOM     14  N   UNL     1      -0.422  10.733  19.879  0.00  0.00    +0.000 N 
ATOM     15  C   UNL     1      -1.119  11.619  20.790  0.00  0.00    +0.000 C 
ATOM     16  C   UNL     1      -2.448  12.204  20.346  0.00  0.00    +0.000 C 
ATOM     17  H   UNL     1       1.553   8.092  16.653  0.00  0.00    +0.000 HD
ENDROOT
BRANCH   1  19
ATOM     18  C   UNL     1      -7.009  11.963  17.996  0.00  0.00    +0.000 C 
ATOM     19  O   UNL     1      -6.024  12.274  17.008  0.00  0.00    +0.000 OA
ENDBRANCH   1  19
BRANCH   6  20
ATOM     20  O   UNL     1      -4.348  10.676  15.235  0.00  0.00    +0.000 OA
ATOM     21  C   UNL     1      -3.316  10.120  14.431  0.00  0.00    +0.000 C 
ENDBRANCH   6  20
BRANCH  10  22
ATOM     22  C   UNL     1       3.264   8.189  17.822  0.00  0.00    +0.000 C 
BRANCH  22  23
ATOM     23  C   UNL     1       3.754   6.772  17.922  0.00  0.00    +0.000 A 
ATOM     24  C   UNL     1       5.104   6.462  17.637  0.00  0.00    +0.000 A 
ATOM     25  C   UNL     1       5.634   5.214  17.972  0.00  0.00    +0.000 A 
ATOM     26  C   UNL     1       4.797   4.322  18.605  0.00  0.00    +0.000 A 
ATOM     27  C   UNL     1       3.464   4.595  18.818  0.00  0.00    +0.000 A 
ATOM     28  C   UNL     1       2.903   5.796  18.463  0.00  0.00    +0.000 A 
ATOM     29  O   UNL     1       2.836   3.604  19.507  0.00  0.00    +0.000 OA
ATOM     30  C   UNL     1       3.988   2.869  19.960  0.00  0.00    +0.000 C 
ATOM     31  O   UNL     1       5.164   3.136  19.164  0.00  0.00    +0.000 OA
ENDBRANCH  22  23
ENDBRANCH  10  22
TORSDOF 4
ENDMDL
MODEL 8
REMARK VINA RESULT:      -8.0      3.910      8.132
REMARK  Name = 
REMARK  6 active torsions:
REMARK  status: ('A' for Active; 'I' for Inactive)
REMARK    1  A    between atoms: C_1  and  O_2
REMARK    2  A    between atoms: O_2  and  C_3
REMARK    3  A    between atoms: C_8  and  O_9
REMARK    4  A    between atoms: O_9  and  C_10
REMARK    5  A    between atoms: N_14  and  C_15
REMARK    6  A    between atoms: C_15  and  C_16
REMARK                            x       y       z     vdW  Elec       q    Type
REMARK                         _______ _______ _______ _____ _____    ______ ____
ROOT
ATOM      1  C   UNL     1       1.816   3.948  19.125  0.00  0.00    +0.000 A 
ATOM      2  C   UNL     1       2.620   3.345  18.153  0.00  0.00    +0.000 A 
ATOM      3  C   UNL     1       3.772   3.971  17.650  0.00  0.00    +0.000 A 
ATOM      4  C   UNL     1       4.167   5.210  18.151  0.00  0.00    +0.000 A 
ATOM      5  C   UNL     1       3.406   5.758  19.203  0.00  0.00    +0.000 A 
ATOM      6  C   UNL     1       2.249   5.142  19.699  0.00  0.00    +0.000 A 
ATOM      7  C   UNL     1       5.352   5.893  17.574  0.00  0.00    +0.000 A 
ATOM      8  C   UNL     1       5.728   7.102  18.012  0.00  0.00    +0.000 A 
ATOM      9  C   UNL     1       6.943   7.686  17.415  0.00  0.00    +0.000 A 
ATOM     10  N   UNL     1       7.386   8.896  17.893  0.00  0.00    +0.000 N 
ATOM     11  N   UNL     1       7.613   7.101  16.475  0.00  0.00    +0.000 NA
ATOM     12  C   UNL     1       7.202   5.895  15.987  0.00  0.00    +0.000 A 
ATOM     13  O   UNL     1       7.821   5.355  15.072  0.00  0.00    +0.000 OA
ATOM     14  N   UNL     1       6.076   5.288  16.562  0.00  0.00    +0.000 N 
ATOM     15  C   UNL     1       5.724   4.003  15.991  0.00  0.00    +0.000 C 
ATOM     16  C   UNL     1       4.509   3.281  16.545  0.00  0.00    +0.000 C 
ATOM     17  H   UNL     1       6.955   9.263  18.733  0.00  0.00    +0.000 HD
ENDROOT
BRANCH   1  19
ATOM     18  C   UNL     1       0.397   2.070  19.066  0.00  0.00    +0.000 C 
ATOM     19  O   UNL     1       0.613   3.414  19.502  0.00  0.00    +0.000 OA
ENDBRANCH   1  19
BRANCH   6  20
ATOM     20  O   UNL     1       1.634   5.882  20.674  0.00  0.00    +0.000 OA
ATOM     21  C   UNL     1       1.711   7.296  20.558  0.00  0.00    +0.000 C 
ENDBRANCH   6  20
BRANCH  10  22
ATOM     22  C   UNL     1       8.790   9.223  17.765  0.00  0.00    +0.000 C 
BRANCH  22  23
ATOM     23  C   UNL     1       9.110  10.489  18.509  0.00  0.00    +0.000 A 
ATOM     24  C   UNL     1       9.504  10.439  19.866  0.00  0.00    +0.000 A 
ATOM     25  C   UNL     1      10.050  11.562  20.490  0.00  0.00    +0.000 A 
ATOM     26  C   UNL     1      10.204  12.698  19.726  0.00  0.00    +0.000 A 
ATOM     27  C   UNL     1       9.754  12.770  18.426  0.00  0.00    +0.000 A 
ATOM     28  C   UNL     1       9.177  11.697  17.797  0.00  0.00    +0.000 A 
ATOM     29  O   UNL     1      10.057  13.960  17.839  0.00  0.00    +0.000 OA
ATOM     30  C   UNL     1      11.005  14.459  18.800  0.00  0.00    +0.000 C 
ATOM     31  O   UNL     1      10.869  13.828  20.093  0.00  0.00    +0.000 OA
ENDBRANCH  22  23
ENDBRANCH  10  22
TORSDOF 4
ENDMDL
MODEL 9
REMARK VINA RESULT:      -8.0      3.424     10.038
REMARK  Name = 
REMARK  6 active torsions:
REMARK  status: ('A' for Active; 'I' for Inactive)
REMARK    1  A    between atoms: C_1  and  O_2
REMARK    2  A    between atoms: O_2  and  C_3
REMARK    3  A    between atoms: C_8  and  O_9
REMARK    4  A    between atoms: O_9  and  C_10
REMARK    5  A    between atoms: N_14  and  C_15
REMARK    6  A    between atoms: C_15  and  C_16
REMARK                            x       y       z     vdW  Elec       q    Type
REMARK                         _______ _______ _______ _____ _____    ______ ____
ROOT
ATOM      1  C   UNL     1      -4.821  11.802  17.336  0.00  0.00    +0.000 A 
ATOM      2  C   UNL     1      -4.279  12.202  18.561  0.00  0.00    +0.000 A 
ATOM      3  C   UNL     1      -3.015  11.766  18.991  0.00  0.00    +0.000 A 
ATOM      4  C   UNL     1      -2.244  10.944  18.169  0.00  0.00    +0.000 A 
ATOM      5  C   UNL     1      -2.758  10.634  16.894  0.00  0.00    +0.000 A 
ATOM      6  C   UNL     1      -4.024  11.057  16.467  0.00  0.00    +0.000 A 
ATOM      7  C   UNL     1      -0.936  10.438  18.654  0.00  0.00    +0.000 A 
ATOM      8  C   UNL     1      -0.195   9.616  17.899  0.00  0.00    +0.000 A 
ATOM      9  C   UNL     1       1.111   9.200  18.441  0.00  0.00    +0.000 A 
ATOM     10  N   UNL     1       1.918   8.409  17.657  0.00  0.00    +0.000 N 
ATOM     11  N   UNL     1       1.533   9.560  19.610  0.00  0.00    +0.000 NA
ATOM     12  C   UNL     1       0.757  10.352  20.405  0.00  0.00    +0.000 A 
ATOM     13  O   UNL     1       1.144  10.667  21.529  0.00  0.00    +0.000 OA
ATOM     14  N   UNL     1      -0.472  10.804  19.906  0.00  0.00    +0.000 N 
ATOM     15  C   UNL     1      -1.218  11.653  20.813  0.00  0.00    +0.000 C 
ATOM     16  C   UNL     1      -2.569  12.177  20.358  0.00  0.00    +0.000 C 
ATOM     17  H   UNL     1       1.654   8.271  16.689  0.00  0.00    +0.000 HD
ENDROOT
BRANCH   1  19
ATOM     18  C   UNL     1      -6.438  13.487  17.037  0.00  0.00    +0.000 C 
ATOM     19  O   UNL     1      -6.111  12.097  16.985  0.00  0.00    +0.000 OA
ENDBRANCH   1  19
BRANCH   6  20
ATOM     20  O   UNL     1      -4.345  10.587  15.222  0.00  0.00    +0.000 OA
ATOM     21  C   UNL     1      -3.271  10.159  14.395  0.00  0.00    +0.000 C 
ENDBRANCH   6  20
BRANCH  10  22
ATOM     22  C   UNL     1       3.348   8.442  17.875  0.00  0.00    +0.000 C 
BRANCH  22  23
ATOM     23  C   UNL     1       3.962   7.105  17.569  0.00  0.00    +0.000 A 
ATOM     24  C   UNL     1       3.376   5.919  18.068  0.00  0.00    +0.000 A 
ATOM     25  C   UNL     1       3.774   4.671  17.586  0.00  0.00    +0.000 A 
ATOM     26  C   UNL     1       4.734   4.652  16.599  0.00  0.00    +0.000 A 
ATOM     27  C   UNL     1       5.357   5.800  16.163  0.00  0.00    +0.000 A 
ATOM     28  C   UNL     1       5.017   7.038  16.646  0.00  0.00    +0.000 A 
ATOM     29  O   UNL     1       6.229   5.562  15.146  0.00  0.00    +0.000 OA
ATOM     30  C   UNL     1       5.830   4.221  14.806  0.00  0.00    +0.000 C 
ATOM     31  O   UNL     1       5.126   3.562  15.882  0.00  0.00    +0.000 OA
ENDBRANCH  22  23
ENDBRANCH  10  22
TORSDOF 4
ENDMDL
