MODEL 1
REMARK VINA RESULT:      -7.6      0.000      0.000
REMARK  Name = 
REMARK  4 active torsions:
REMARK  status: ('A' for Active; 'I' for Inactive)
REMARK    1  A    between atoms: C_1  and  S_2
REMARK    2  A    between atoms: S_2  and  C_5
REMARK    3  A    between atoms: N_14  and  C_15
REMARK    4  A    between atoms: C_15  and  C_16
REMARK                            x       y       z     vdW  Elec       q    Type
REMARK                         _______ _______ _______ _____ _____    ______ ____
ROOT
ATOM      1  C   UNL     1      -1.780  12.284  21.657  0.00  0.00    +0.000 A 
ATOM      2  C   UNL     1      -1.809  11.700  22.923  0.00  0.00    +0.000 A 
ATOM      3  C   UNL     1      -1.044  10.553  23.180  0.00  0.00    +0.000 A 
ATOM      4  C   UNL     1      -0.239   9.997  22.163  0.00  0.00    +0.000 A 
ATOM      5  N   UNL     1       0.581   8.880  22.280  0.00  0.00    +0.000 NA
ATOM      6  C   UNL     1       1.150   8.627  21.122  0.00  0.00    +0.000 A 
ATOM      7  N   UNL     1       2.005   7.560  20.953  0.00  0.00    +0.000 N 
ATOM      8  C   UNL     1       2.386   7.034  19.747  0.00  0.00    +0.000 C 
ATOM      9  O   UNL     1       2.044   7.422  18.636  0.00  0.00    +0.000 OA
ATOM     10  N   UNL     1       3.201   5.926  19.892  0.00  0.00    +0.000 N 
ATOM     11  S   UNL     1       0.808   9.728  19.869  0.00  0.00    +0.000 S 
ATOM     12  C   UNL     1      -0.238  10.606  20.908  0.00  0.00    +0.000 A 
ATOM     13  C   UNL     1      -0.996  11.755  20.626  0.00  0.00    +0.000 A 
ATOM     14  H   UNL     1       2.146   7.011  21.787  0.00  0.00    +0.000 HD
ATOM     15  H   UNL     1       3.799   5.909  20.704  0.00  0.00    +0.000 HD
ENDROOT
BRANCH   1  17
ATOM     16  C   UNL     1      -4.166  13.241  20.555  0.00  0.00    +0.000 C 
ATOM     17  S   UNL     1      -2.685  13.790  21.359  0.00  0.00    +0.000 S 
ATOM     18  O   UNL     1      -1.919  14.574  20.410  0.00  0.00    +0.000 OA
ATOM     19  O   UNL     1      -3.049  14.338  22.651  0.00  0.00    +0.000 OA
ENDBRANCH   1  17
BRANCH  10  20
ATOM     20  C   UNL     1       3.720   5.295  18.691  0.00  0.00    +0.000 C 
BRANCH  20  21
ATOM     21  C   UNL     1       5.074   5.808  18.304  0.00  0.00    +0.000 A 
ATOM     22  C   UNL     1       6.228   5.435  19.001  0.00  0.00    +0.000 A 
ATOM     23  C   UNL     1       7.474   5.875  18.563  0.00  0.00    +0.000 A 
ATOM     24  C   UNL     1       7.528   6.679  17.438  0.00  0.00    +0.000 A 
ATOM     25  N   UNL     1       6.438   7.059  16.735  0.00  0.00    +0.000 NA
ATOM     26  C   UNL     1       5.242   6.609  17.179  0.00  0.00    +0.000 A 
ENDBRANCH  20  21
ENDBRANCH  10  20
TORSDOF 3
ENDMDL
MODEL 2
REMARK VINA RESULT:      -7.4      3.579      9.728
REMARK  Name = 
REMARK  4 active torsions:
REMARK  status: ('A' for Active; 'I' for Inactive)
REMARK    1  A    between atoms: C_1  and  S_2
REMARK    2  A    between atoms: S_2  and  C_5
REMARK    3  A    between atoms: N_14  and  C_15
REMARK    4  A    between atoms: C_15  and  C_16
REMARK                            x       y       z     vdW  Elec       q    Type
REMARK                         _______ _______ _______ _____ _____    ______ ____
ROOT
ATOM      1  C   UNL     1       5.590   5.547  17.537  0.00  0.00    +0.000 A 
ATOM      2  C   UNL     1       5.290   4.864  18.716  0.00  0.00    +0.000 A 
ATOM      3  C   UNL     1       4.238   5.307  19.530  0.00  0.00    +0.000 A 
ATOM      4  C   UNL     1       3.476   6.433  19.153  0.00  0.00    +0.000 A 
ATOM      5  N   UNL     1       2.398   6.969  19.848  0.00  0.00    +0.000 NA
ATOM      6  C   UNL     1       1.958   8.039  19.224  0.00  0.00    +0.000 A 
ATOM      7  N   UNL     1       0.899   8.776  19.708  0.00  0.00    +0.000 N 
ATOM      8  C   UNL     1       0.579  10.051  19.320  0.00  0.00    +0.000 C 
ATOM      9  O   UNL     1       1.163  10.732  18.487  0.00  0.00    +0.000 OA
ATOM     10  N   UNL     1      -0.496  10.559  20.026  0.00  0.00    +0.000 N 
ATOM     11  S   UNL     1       2.738   8.418  17.759  0.00  0.00    +0.000 S 
ATOM     12  C   UNL     1       3.807   7.092  17.968  0.00  0.00    +0.000 A 
ATOM     13  C   UNL     1       4.857   6.670  17.137  0.00  0.00    +0.000 A 
ATOM     14  H   UNL     1       0.508   8.418  20.566  0.00  0.00    +0.000 HD
ATOM     15  H   UNL     1      -1.190   9.894  20.332  0.00  0.00    +0.000 HD
ENDROOT
BRANCH   1  17
ATOM     16  C   UNL     1       6.063   3.661  15.527  0.00  0.00    +0.000 C 
ATOM     17  S   UNL     1       6.872   4.932  16.463  0.00  0.00    +0.000 S 
ATOM     18  O   UNL     1       7.875   4.306  17.302  0.00  0.00    +0.000 OA
ATOM     19  O   UNL     1       7.227   6.004  15.555  0.00  0.00    +0.000 OA
ENDBRANCH   1  17
BRANCH  10  20
ATOM     20  C   UNL     1      -0.976  11.886  19.683  0.00  0.00    +0.000 C 
BRANCH  20  21
ATOM     21  C   UNL     1      -2.334  11.868  19.050  0.00  0.00    +0.000 A 
ATOM     22  C   UNL     1      -2.548  11.303  17.788  0.00  0.00    +0.000 A 
ATOM     23  C   UNL     1      -3.838  11.240  17.267  0.00  0.00    +0.000 A 
ATOM     24  C   UNL     1      -4.877  11.748  18.027  0.00  0.00    +0.000 A 
ATOM     25  N   UNL     1      -4.713  12.298  19.249  0.00  0.00    +0.000 NA
ATOM     26  C   UNL     1      -3.450  12.337  19.734  0.00  0.00    +0.000 A 
ENDBRANCH  20  21
ENDBRANCH  10  20
TORSDOF 3
ENDMDL
MODEL 3
REMARK VINA RESULT:      -7.4      1.311      1.558
REMARK  Name = 
REMARK  4 active torsions:
REMARK  status: ('A' for Active; 'I' for Inactive)
REMARK    1  A    between atoms: C_1  and  S_2
REMARK    2  A    between atoms: S_2  and  C_5
REMARK    3  A    between atoms: N_14  and  C_15
REMARK    4  A    between atoms: C_15  and  C_16
REMARK                            x       y       z     vdW  Elec       q    Type
REMARK                         _______ _______ _______ _____ _____    ______ ____
ROOT
ATOM      1  C   UNL     1      -1.400  12.213  21.553  0.00  0.00    +0.000 A 
ATOM      2  C   UNL     1      -1.366  11.568  22.789  0.00  0.00    +0.000 A 
ATOM      3  C   UNL     1      -0.639  10.377  22.935  0.00  0.00    +0.000 A 
ATOM      4  C   UNL     1       0.065   9.838  21.837  0.00  0.00    +0.000 A 
ATOM      5  N   UNL     1       0.838   8.683  21.841  0.00  0.00    +0.000 NA
ATOM      6  C   UNL     1       1.311   8.464  20.633  0.00  0.00    +0.000 A 
ATOM      7  N   UNL     1       2.101   7.371  20.352  0.00  0.00    +0.000 N 
ATOM      8  C   UNL     1       2.371   6.890  19.098  0.00  0.00    +0.000 C 
ATOM      9  O   UNL     1       1.969   7.348  18.035  0.00  0.00    +0.000 OA
ATOM     10  N   UNL     1       3.141   5.742  19.130  0.00  0.00    +0.000 N 
ATOM     11  S   UNL     1       0.933   9.640  19.462  0.00  0.00    +0.000 S 
ATOM     12  C   UNL     1       0.005  10.510  20.615  0.00  0.00    +0.000 A 
ATOM     13  C   UNL     1      -0.716  11.703  20.443  0.00  0.00    +0.000 A 
ATOM     14  H   UNL     1       2.275   6.775  21.147  0.00  0.00    +0.000 HD
ATOM     15  H   UNL     1       3.794   5.658  19.895  0.00  0.00    +0.000 HD
ENDROOT
BRANCH   1  17
ATOM     16  C   UNL     1      -2.720  14.167  23.057  0.00  0.00    +0.000 C 
ATOM     17  S   UNL     1      -2.252  13.770  21.394  0.00  0.00    +0.000 S 
ATOM     18  O   UNL     1      -3.461  13.524  20.630  0.00  0.00    +0.000 OA
ATOM     19  O   UNL     1      -1.281  14.751  20.951  0.00  0.00    +0.000 OA
ENDBRANCH   1  17
BRANCH  10  20
ATOM     20  C   UNL     1       3.544   5.151  17.867  0.00  0.00    +0.000 C 
BRANCH  20  21
ATOM     21  C   UNL     1       5.018   4.895  17.788  0.00  0.00    +0.000 A 
ATOM     22  C   UNL     1       5.645   4.584  16.576  0.00  0.00    +0.000 A 
ATOM     23  C   UNL     1       7.028   4.426  16.533  0.00  0.00    +0.000 A 
ATOM     24  C   UNL     1       7.743   4.583  17.708  0.00  0.00    +0.000 A 
ATOM     25  N   UNL     1       7.176   4.886  18.896  0.00  0.00    +0.000 NA
ATOM     26  C   UNL     1       5.832   5.043  18.906  0.00  0.00    +0.000 A 
ENDBRANCH  20  21
ENDBRANCH  10  20
TORSDOF 3
ENDMDL
MODEL 4
REMARK VINA RESULT:      -7.3      1.806      2.730
REMARK  Name = 
REMARK  4 active torsions:
REMARK  status: ('A' for Active; 'I' for Inactive)
REMARK    1  A    between atoms: C_1  and  S_2
REMARK    2  A    between atoms: S_2  and  C_5
REMARK    3  A    between atoms: N_14  and  C_15
REMARK    4  A    between atoms: C_15  and  C_16
REMARK                            x       y       z     vdW  Elec       q    Type
REMARK                         _______ _______ _______ _____ _____    ______ ____
ROOT
ATOM      1  C   UNL     1      -2.096  12.471  21.567  0.00  0.00    +0.000 A 
ATOM      2  C   UNL     1      -2.076  11.903  22.840  0.00  0.00    +0.000 A 
ATOM      3  C   UNL     1      -1.251  10.798  23.099  0.00  0.00    +0.000 A 
ATOM      4  C   UNL     1      -0.435  10.270  22.076  0.00  0.00    +0.000 A 
ATOM      5  N   UNL     1       0.442   9.198  22.193  0.00  0.00    +0.000 NA
ATOM      6  C   UNL     1       1.006   8.958  21.029  0.00  0.00    +0.000 A 
ATOM      7  N   UNL     1       1.911   7.934  20.860  0.00  0.00    +0.000 N 
ATOM      8  C   UNL     1       2.299   7.412  19.654  0.00  0.00    +0.000 C 
ATOM      9  O   UNL     1       1.921   7.768  18.544  0.00  0.00    +0.000 OA
ATOM     10  N   UNL     1       3.170   6.348  19.799  0.00  0.00    +0.000 N 
ATOM     11  S   UNL     1       0.590  10.025  19.769  0.00  0.00    +0.000 S 
ATOM     12  C   UNL     1      -0.483  10.863  20.814  0.00  0.00    +0.000 A 
ATOM     13  C   UNL     1      -1.302  11.968  20.530  0.00  0.00    +0.000 A 
ATOM     14  H   UNL     1       2.092   7.403  21.698  0.00  0.00    +0.000 HD
ATOM     15  H   UNL     1       3.781   6.371  20.602  0.00  0.00    +0.000 HD
ENDROOT
BRANCH   1  17
ATOM     16  C   UNL     1      -3.797  14.286  22.847  0.00  0.00    +0.000 C 
ATOM     17  S   UNL     1      -3.080  13.926  21.266  0.00  0.00    +0.000 S 
ATOM     18  O   UNL     1      -4.148  13.546  20.361  0.00  0.00    +0.000 OA
ATOM     19  O   UNL     1      -2.169  15.001  20.928  0.00  0.00    +0.000 OA
ENDBRANCH   1  17
BRANCH  10  20
ATOM     20  C   UNL     1       3.702   5.728  18.598  0.00  0.00    +0.000 C 
BRANCH  20  21
ATOM     21  C   UNL     1       3.515   4.242  18.578  0.00  0.00    +0.000 A 
ATOM     22  C   UNL     1       2.739   3.612  17.599  0.00  0.00    +0.000 A 
ATOM     23  C   UNL     1       2.651   2.223  17.572  0.00  0.00    +0.000 A 
ATOM     24  C   UNL     1       3.345   1.504  18.531  0.00  0.00    +0.000 A 
ATOM     25  N   UNL     1       4.106   2.073  19.490  0.00  0.00    +0.000 NA
ATOM     26  C   UNL     1       4.180   3.424  19.485  0.00  0.00    +0.000 A 
ENDBRANCH  20  21
ENDBRANCH  10  20
TORSDOF 3
ENDMDL
MODEL 5
REMARK VINA RESULT:      -7.3      7.051      9.393
REMARK  Name = 
REMARK  4 active torsions:
REMARK  status: ('A' for Active; 'I' for Inactive)
REMARK    1  A    between atoms: C_1  and  S_2
REMARK    2  A    between atoms: S_2  and  C_5
REMARK    3  A    between atoms: N_14  and  C_15
REMARK    4  A    between atoms: C_15  and  C_16
REMARK                            x       y       z     vdW  Elec       q    Type
REMARK                         _______ _______ _______ _____ _____    ______ ____
ROOT
ATOM      1  C   UNL     1      10.343  14.767  19.190  0.00  0.00    +0.000 A 
ATOM      2  C   UNL     1      10.564  14.430  20.525  0.00  0.00    +0.000 A 
ATOM      3  C   UNL     1      10.352  13.112  20.956  0.00  0.00    +0.000 A 
ATOM      4  C   UNL     1       9.928  12.127  20.038  0.00  0.00    +0.000 A 
ATOM      5  N   UNL     1       9.699  10.785  20.318  0.00  0.00    +0.000 NA
ATOM      6  C   UNL     1       9.276  10.173  19.234  0.00  0.00    +0.000 A 
ATOM      7  N   UNL     1       8.958   8.832  19.235  0.00  0.00    +0.000 N 
ATOM      8  C   UNL     1       8.224   8.192  18.272  0.00  0.00    +0.000 C 
ATOM      9  O   UNL     1       7.744   8.692  17.262  0.00  0.00    +0.000 OA
ATOM     10  N   UNL     1       8.011   6.859  18.575  0.00  0.00    +0.000 N 
ATOM     11  S   UNL     1       9.201  11.126  17.825  0.00  0.00    +0.000 S 
ATOM     12  C   UNL     1       9.716  12.502  18.711  0.00  0.00    +0.000 A 
ATOM     13  C   UNL     1       9.919  13.815  18.256  0.00  0.00    +0.000 A 
ATOM     14  H   UNL     1       9.083   8.382  20.129  0.00  0.00    +0.000 HD
ATOM     15  H   UNL     1       8.735   6.396  19.104  0.00  0.00    +0.000 HD
ENDROOT
BRANCH   1  17
ATOM     16  C   UNL     1      11.157  16.202  16.931  0.00  0.00    +0.000 C 
ATOM     17  S   UNL     1      10.696  16.421  18.629  0.00  0.00    +0.000 S 
ATOM     18  O   UNL     1      11.861  16.885  19.357  0.00  0.00    +0.000 OA
ATOM     19  O   UNL     1       9.452  17.165  18.666  0.00  0.00    +0.000 OA
ENDBRANCH   1  17
BRANCH  10  20
ATOM     20  C   UNL     1       7.288   6.045  17.614  0.00  0.00    +0.000 C 
BRANCH  20  21
ATOM     21  C   UNL     1       5.875   5.770  18.032  0.00  0.00    +0.000 A 
ATOM     22  C   UNL     1       4.795   6.454  17.465  0.00  0.00    +0.000 A 
ATOM     23  C   UNL     1       3.494   6.116  17.827  0.00  0.00    +0.000 A 
ATOM     24  C   UNL     1       3.313   5.101  18.751  0.00  0.00    +0.000 A 
ATOM     25  N   UNL     1       4.328   4.414  19.318  0.00  0.00    +0.000 NA
ATOM     26  C   UNL     1       5.581   4.758  18.940  0.00  0.00    +0.000 A 
ENDBRANCH  20  21
ENDBRANCH  10  20
TORSDOF 3
ENDMDL
MODEL 6
REMARK VINA RESULT:      -7.3      1.370      1.697
REMARK  Name = 
REMARK  4 active torsions:
REMARK  status: ('A' for Active; 'I' for Inactive)
REMARK    1  A    between atoms: C_1  and  S_2
REMARK    2  A    between atoms: S_2  and  C_5
REMARK    3  A    between atoms: N_14  and  C_15
REMARK    4  A    between atoms: C_15  and  C_16
REMARK                            x       y       z     vdW  Elec       q    Type
REMARK                         _______ _______ _______ _____ _____    ______ ____
ROOT
ATOM      1  C   UNL     1      -0.991  12.386  21.743  0.00  0.00    +0.000 A 
ATOM      2  C   UNL     1      -1.146  11.626  22.902  0.00  0.00    +0.000 A 
ATOM      3  C   UNL     1      -0.571  10.349  22.980  0.00  0.00    +0.000 A 
ATOM      4  C   UNL     1       0.173   9.840  21.895  0.00  0.00    +0.000 A 
ATOM      5  N   UNL     1       0.813   8.606  21.841  0.00  0.00    +0.000 NA
ATOM      6  C   UNL     1       1.374   8.451  20.662  0.00  0.00    +0.000 A 
ATOM      7  N   UNL     1       2.064   7.305  20.334  0.00  0.00    +0.000 N 
ATOM      8  C   UNL     1       2.400   6.920  19.062  0.00  0.00    +0.000 C 
ATOM      9  O   UNL     1       2.155   7.522  18.025  0.00  0.00    +0.000 OA
ATOM     10  N   UNL     1       3.034   5.691  19.038  0.00  0.00    +0.000 N 
ATOM     11  S   UNL     1       1.240   9.772  19.596  0.00  0.00    +0.000 S 
ATOM     12  C   UNL     1       0.305  10.628  20.752  0.00  0.00    +0.000 A 
ATOM     13  C   UNL     1      -0.262  11.909  20.648  0.00  0.00    +0.000 A 
ATOM     14  H   UNL     1       2.095   6.619  21.072  0.00  0.00    +0.000 HD
ATOM     15  H   UNL     1       3.597   5.457  19.842  0.00  0.00    +0.000 HD
ENDROOT
BRANCH   1  17
ATOM     16  C   UNL     1      -0.438  14.943  20.752  0.00  0.00    +0.000 C 
ATOM     17  S   UNL     1      -1.650  14.041  21.680  0.00  0.00    +0.000 S 
ATOM     18  O   UNL     1      -1.657  14.555  23.036  0.00  0.00    +0.000 OA
ATOM     19  O   UNL     1      -2.870  13.990  20.899  0.00  0.00    +0.000 OA
ENDBRANCH   1  17
BRANCH  10  20
ATOM     20  C   UNL     1       3.491   5.182  17.757  0.00  0.00    +0.000 C 
BRANCH  20  21
ATOM     21  C   UNL     1       4.967   4.927  17.725  0.00  0.00    +0.000 A 
ATOM     22  C   UNL     1       5.642   4.667  16.527  0.00  0.00    +0.000 A 
ATOM     23  C   UNL     1       7.025   4.508  16.531  0.00  0.00    +0.000 A 
ATOM     24  C   UNL     1       7.693   4.614  17.739  0.00  0.00    +0.000 A 
ATOM     25  N   UNL     1       7.080   4.867  18.915  0.00  0.00    +0.000 NA
ATOM     26  C   UNL     1       5.737   5.025  18.879  0.00  0.00    +0.000 A 
ENDBRANCH  20  21
ENDBRANCH  10  20
TORSDOF 3
ENDMDL
MODEL 7
REMARK VINA RESULT:      -7.2      1.111      1.314
REMARK  Name = 
REMARK  4 active torsions:
REMARK  status: ('A' for Active; 'I' for Inactive)
REMARK    1  A    between atoms: C_1  and  S_2
REMARK    2  A    between atoms: S_2  and  C_5
REMARK    3  A    between atoms: N_14  and  C_15
REMARK    4  A    between atoms: C_15  and  C_16
REMARK                            x       y       z     vdW  Elec       q    Type
REMARK                         _______ _______ _______ _____ _____    ______ ____
ROOT
ATOM      1  C   UNL     1      -1.738  11.941  21.669  0.00  0.00    +0.000 A 
ATOM      2  C   UNL     1      -1.495  11.403  22.932  0.00  0.00    +0.000 A 
ATOM      3  C   UNL     1      -0.621  10.315  23.072  0.00  0.00    +0.000 A 
ATOM      4  C   UNL     1       0.022   9.774  21.938  0.00  0.00    +0.000 A 
ATOM      5  N   UNL     1       0.924   8.716  21.930  0.00  0.00    +0.000 NA
ATOM      6  C   UNL     1       1.289   8.457  20.693  0.00  0.00    +0.000 A 
ATOM      7  N   UNL     1       2.170   7.441  20.396  0.00  0.00    +0.000 N 
ATOM      8  C   UNL     1       2.361   6.897  19.152  0.00  0.00    +0.000 C 
ATOM      9  O   UNL     1       1.797   7.222  18.115  0.00  0.00    +0.000 OA
ATOM     10  N   UNL     1       3.261   5.848  19.172  0.00  0.00    +0.000 N 
ATOM     11  S   UNL     1       0.651   9.489  19.498  0.00  0.00    +0.000 S 
ATOM     12  C   UNL     1      -0.246  10.337  20.690  0.00  0.00    +0.000 A 
ATOM     13  C   UNL     1      -1.119  11.425  20.524  0.00  0.00    +0.000 A 
ATOM     14  H   UNL     1       2.497   6.932  21.202  0.00  0.00    +0.000 HD
ATOM     15  H   UNL     1       3.997   5.897  19.861  0.00  0.00    +0.000 HD
ENDROOT
BRANCH   1  17
ATOM     16  C   UNL     1      -3.934  12.919  20.239  0.00  0.00    +0.000 C 
ATOM     17  S   UNL     1      -2.782  13.376  21.506  0.00  0.00    +0.000 S 
ATOM     18  O   UNL     1      -1.956  14.455  20.999  0.00  0.00    +0.000 OA
ATOM     19  O   UNL     1      -3.512  13.522  22.750  0.00  0.00    +0.000 OA
ENDBRANCH   1  17
BRANCH  10  20
ATOM     20  C   UNL     1       3.596   5.208  17.912  0.00  0.00    +0.000 C 
BRANCH  20  21
ATOM     21  C   UNL     1       5.063   4.938  17.768  0.00  0.00    +0.000 A 
ATOM     22  C   UNL     1       5.675   4.858  16.512  0.00  0.00    +0.000 A 
ATOM     23  C   UNL     1       7.053   4.678  16.424  0.00  0.00    +0.000 A 
ATOM     24  C   UNL     1       7.779   4.583  17.599  0.00  0.00    +0.000 A 
ATOM     25  N   UNL     1       7.227   4.659  18.829  0.00  0.00    +0.000 NA
ATOM     26  C   UNL     1       5.887   4.842  18.884  0.00  0.00    +0.000 A 
ENDBRANCH  20  21
ENDBRANCH  10  20
TORSDOF 3
ENDMDL
MODEL 8
REMARK VINA RESULT:      -7.2      3.255      9.932
REMARK  Name = 
REMARK  4 active torsions:
REMARK  status: ('A' for Active; 'I' for Inactive)
REMARK    1  A    between atoms: C_1  and  S_2
REMARK    2  A    between atoms: S_2  and  C_5
REMARK    3  A    between atoms: N_14  and  C_15
REMARK    4  A    between atoms: C_15  and  C_16
REMARK                            x       y       z     vdW  Elec       q    Type
REMARK                         _______ _______ _______ _____ _____    ______ ____
ROOT
ATOM      1  C   UNL     1       5.733   5.330  17.327  0.00  0.00    +0.000 A 
ATOM      2  C   UNL     1       5.446   4.583  18.468  0.00  0.00    +0.000 A 
ATOM      3  C   UNL     1       4.410   4.985  19.324  0.00  0.00    +0.000 A 
ATOM      4  C   UNL     1       3.652   6.136  19.024  0.00  0.00    +0.000 A 
ATOM      5  N   UNL     1       2.589   6.639  19.766  0.00  0.00    +0.000 NA
ATOM      6  C   UNL     1       2.148   7.747  19.212  0.00  0.00    +0.000 A 
ATOM      7  N   UNL     1       1.103   8.462  19.755  0.00  0.00    +0.000 N 
ATOM      8  C   UNL     1       0.787   9.759  19.446  0.00  0.00    +0.000 C 
ATOM      9  O   UNL     1       1.364  10.484  18.644  0.00  0.00    +0.000 OA
ATOM     10  N   UNL     1      -0.272  10.234  20.197  0.00  0.00    +0.000 N 
ATOM     11  S   UNL     1       2.908   8.204  17.758  0.00  0.00    +0.000 S 
ATOM     12  C   UNL     1       3.969   6.861  17.875  0.00  0.00    +0.000 A 
ATOM     13  C   UNL     1       5.003   6.480  17.003  0.00  0.00    +0.000 A 
ATOM     14  H   UNL     1       0.723   8.058  20.596  0.00  0.00    +0.000 HD
ATOM     15  H   UNL     1      -0.968   9.557  20.475  0.00  0.00    +0.000 HD
ENDROOT
BRANCH   1  17
ATOM     16  C   UNL     1       6.154   3.577  15.189  0.00  0.00    +0.000 C 
ATOM     17  S   UNL     1       6.993   4.769  16.198  0.00  0.00    +0.000 S 
ATOM     18  O   UNL     1       7.995   4.072  16.981  0.00  0.00    +0.000 OA
ATOM     19  O   UNL     1       7.356   5.895  15.360  0.00  0.00    +0.000 OA
ENDBRANCH   1  17
BRANCH  10  20
ATOM     20  C   UNL     1      -0.746  11.582  19.939  0.00  0.00    +0.000 C 
BRANCH  20  21
ATOM     21  C   UNL     1      -1.744  12.052  20.953  0.00  0.00    +0.000 A 
ATOM     22  C   UNL     1      -2.907  12.733  20.578  0.00  0.00    +0.000 A 
ATOM     23  C   UNL     1      -3.844  13.088  21.545  0.00  0.00    +0.000 A 
ATOM     24  C   UNL     1      -3.587  12.751  22.863  0.00  0.00    +0.000 A 
ATOM     25  N   UNL     1      -2.479  12.092  23.265  0.00  0.00    +0.000 NA
ATOM     26  C   UNL     1      -1.591  11.752  22.302  0.00  0.00    +0.000 A 
ENDBRANCH  20  21
ENDBRANCH  10  20
TORSDOF 3
ENDMDL
MODEL 9
REMARK VINA RESULT:      -7.1      3.653      9.428
REMARK  Name = 
REMARK  4 active torsions:
REMARK  status: ('A' for Active; 'I' for Inactive)
REMARK    1  A    between atoms: C_1  and  S_2
REMARK    2  A    between atoms: S_2  and  C_5
REMARK    3  A    between atoms: N_14  and  C_15
REMARK    4  A    between atoms: C_15  and  C_16
REMARK                            x       y       z     vdW  Elec       q    Type
REMARK                         _______ _______ _______ _____ _____    ______ ____
ROOT
ATOM      1  C   UNL     1       3.521   4.051  19.049  0.00  0.00    +0.000 A 
ATOM      2  C   UNL     1       4.117   4.357  17.825  0.00  0.00    +0.000 A 
ATOM      3  C   UNL     1       3.963   5.637  17.275  0.00  0.00    +0.000 A 
ATOM      4  C   UNL     1       3.217   6.618  17.962  0.00  0.00    +0.000 A 
ATOM      5  N   UNL     1       2.999   7.927  17.548  0.00  0.00    +0.000 NA
ATOM      6  C   UNL     1       2.226   8.542  18.417  0.00  0.00    +0.000 A 
ATOM      7  N   UNL     1       1.839   9.853  18.242  0.00  0.00    +0.000 N 
ATOM      8  C   UNL     1       0.806  10.468  18.899  0.00  0.00    +0.000 C 
ATOM      9  O   UNL     1       0.073   9.968  19.744  0.00  0.00    +0.000 OA
ATOM     10  N   UNL     1       0.611  11.767  18.469  0.00  0.00    +0.000 N 
ATOM     11  S   UNL     1       1.785   7.637  19.790  0.00  0.00    +0.000 S 
ATOM     12  C   UNL     1       2.633   6.275  19.182  0.00  0.00    +0.000 A 
ATOM     13  C   UNL     1       2.771   4.999  19.754  0.00  0.00    +0.000 A 
ATOM     14  H   UNL     1       2.201  10.279  17.403  0.00  0.00    +0.000 HD
ATOM     15  H   UNL     1       1.430  12.267  18.158  0.00  0.00    +0.000 HD
ENDROOT
BRANCH   1  17
ATOM     16  C   UNL     1       2.798   2.490  21.254  0.00  0.00    +0.000 C 
ATOM     17  S   UNL     1       3.790   2.451  19.785  0.00  0.00    +0.000 S 
ATOM     18  O   UNL     1       5.183   2.387  20.183  0.00  0.00    +0.000 OA
ATOM     19  O   UNL     1       3.229   1.461  18.887  0.00  0.00    +0.000 OA
ENDBRANCH   1  17
BRANCH  10  20
ATOM     20  C   UNL     1      -0.422  12.556  19.117  0.00  0.00    +0.000 C 
BRANCH  20  21
ATOM     21  C   UNL     1      -1.806  12.153  18.706  0.00  0.00    +0.000 A 
ATOM     22  C   UNL     1      -2.902  12.315  19.560  0.00  0.00    +0.000 A 
ATOM     23  C   UNL     1      -4.181  11.996  19.113  0.00  0.00    +0.000 A 
ATOM     24  C   UNL     1      -4.325  11.523  17.820  0.00  0.00    +0.000 A 
ATOM     25  N   UNL     1      -3.294  11.355  16.964  0.00  0.00    +0.000 NA
ATOM     26  C   UNL     1      -2.064  11.682  17.423  0.00  0.00    +0.000 A 
ENDBRANCH  20  21
ENDBRANCH  10  20
TORSDOF 3
ENDMDL
