MODEL 1
REMARK VINA RESULT:      -7.5      0.000      0.000
REMARK  Name = 
REMARK  8 active torsions:
REMARK  status: ('A' for Active; 'I' for Inactive)
REMARK    1  A    between atoms: C_2  and  O_3
REMARK    2  A    between atoms: C_2  and  C_4
REMARK    3  A    between atoms: C_4  and  N_5
REMARK    4  A    between atoms: N_5  and  S_6
REMARK    5  A    between atoms: S_6  and  C_9
REMARK    6  A    between atoms: C_12  and  N_13
REMARK    7  A    between atoms: C_14  and  C_16
REMARK    8  A    between atoms: C_19  and  N_20
REMARK                            x       y       z     vdW  Elec       q    Type
REMARK                         _______ _______ _______ _____ _____    ______ ____
ROOT
ATOM      1  C   UNL     1       3.876   5.331  18.178  0.00  0.00    +0.000 A 
ATOM      2  C   UNL     1       3.115   4.824  19.227  0.00  0.00    +0.000 A 
ATOM      3  C   UNL     1       2.298   5.689  19.964  0.00  0.00    +0.000 A 
ATOM      4  C   UNL     1       2.228   7.053  19.666  0.00  0.00    +0.000 A 
ATOM      5  C   UNL     1       2.976   7.544  18.588  0.00  0.00    +0.000 A 
ATOM      6  C   UNL     1       3.818   6.693  17.860  0.00  0.00    +0.000 A 
ENDROOT
BRANCH   4   7
ATOM      7  N   UNL     1       1.427   7.964  20.397  0.00  0.00    +0.000 N 
ATOM      8  C   UNL     1       0.864   9.123  19.882  0.00  0.00    +0.000 C 
ATOM      9  O   UNL     1       0.893   9.463  18.703  0.00  0.00    +0.000 OA
ATOM     10  H   UNL     1       1.233   7.714  21.356  0.00  0.00    +0.000 HD
BRANCH   8  11
ATOM     11  C   UNL     1       0.168  10.038  20.833  0.00  0.00    +0.000 A 
ATOM     12  C   UNL     1      -0.249  11.281  20.321  0.00  0.00    +0.000 A 
ATOM     13  C   UNL     1      -0.905  12.210  21.131  0.00  0.00    +0.000 A 
ATOM     14  C   UNL     1      -1.154  11.892  22.468  0.00  0.00    +0.000 A 
ATOM     15  C   UNL     1      -0.765  10.647  22.989  0.00  0.00    +0.000 A 
ATOM     16  C   UNL     1      -0.107   9.719  22.169  0.00  0.00    +0.000 A 
BRANCH  14  17
ATOM     17  N   UNL     1      -1.831  12.869  23.330  0.00  0.00    +0.000 N 
ATOM     18  O   UNL     1      -1.172  13.839  23.733  0.00  0.00    +0.000 OA
ATOM     19  O   UNL     1      -3.021  12.659  23.610  0.00  0.00    +0.000 OA
ENDBRANCH  14  17
ENDBRANCH   8  11
ENDBRANCH   4   7
BRANCH   1  20
ATOM     20  S   UNL     1       4.979   4.263  17.282  0.00  0.00    +0.000 S 
ATOM     21  O   UNL     1       5.440   4.951  16.099  0.00  0.00    +0.000 OA
ATOM     22  O   UNL     1       4.354   2.963  17.232  0.00  0.00    +0.000 OA
BRANCH  20  23
ATOM     23  N   UNL     1       6.305   4.122  18.349  0.00  0.00    +0.000 NA
ATOM     24  H   UNL     1       6.016   4.448  19.277  0.00  0.00    +0.000 HD
BRANCH  23  25
ATOM     25  C   UNL     1       7.537   4.837  17.888  0.00  0.00    +0.000 C 
BRANCH  25  27
ATOM     26  O   UNL     1       8.133   7.095  18.553  0.00  0.00    +0.000 OA
ATOM     27  C   UNL     1       7.836   5.955  18.870  0.00  0.00    +0.000 C 
BRANCH  27  28
ATOM     28  O   UNL     1       7.750   5.544  20.160  0.00  0.00    +0.000 OA
ATOM     29  H   UNL     1       8.412   4.834  20.325  0.00  0.00    +0.000 HD
ENDBRANCH  27  28
ENDBRANCH  25  27
ENDBRANCH  23  25
ENDBRANCH  20  23
ENDBRANCH   1  20
TORSDOF 8
ENDMDL
MODEL 2
REMARK VINA RESULT:      -7.5      1.061      1.452
REMARK  Name = 
REMARK  8 active torsions:
REMARK  status: ('A' for Active; 'I' for Inactive)
REMARK    1  A    between atoms: C_2  and  O_3
REMARK    2  A    between atoms: C_2  and  C_4
REMARK    3  A    between atoms: C_4  and  N_5
REMARK    4  A    between atoms: N_5  and  S_6
REMARK    5  A    between atoms: S_6  and  C_9
REMARK    6  A    between atoms: C_12  and  N_13
REMARK    7  A    between atoms: C_14  and  C_16
REMARK    8  A    between atoms: C_19  and  N_20
REMARK                            x       y       z     vdW  Elec       q    Type
REMARK                         _______ _______ _______ _____ _____    ______ ____
ROOT
ATOM      1  C   UNL     1       3.378   4.928  18.821  0.00  0.00    +0.000 A 
ATOM      2  C   UNL     1       3.154   6.109  18.119  0.00  0.00    +0.000 A 
ATOM      3  C   UNL     1       2.445   7.147  18.732  0.00  0.00    +0.000 A 
ATOM      4  C   UNL     1       1.959   7.026  20.037  0.00  0.00    +0.000 A 
ATOM      5  C   UNL     1       2.218   5.844  20.742  0.00  0.00    +0.000 A 
ATOM      6  C   UNL     1       2.903   4.785  20.130  0.00  0.00    +0.000 A 
ENDROOT
BRANCH   4   7
ATOM      7  N   UNL     1       1.224   8.048  20.686  0.00  0.00    +0.000 N 
ATOM      8  C   UNL     1       1.034   9.330  20.192  0.00  0.00    +0.000 C 
ATOM      9  O   UNL     1       1.383   9.723  19.083  0.00  0.00    +0.000 OA
ATOM     10  H   UNL     1       0.782   7.792  21.557  0.00  0.00    +0.000 HD
BRANCH   8  11
ATOM     11  C   UNL     1       0.352  10.321  21.076  0.00  0.00    +0.000 A 
ATOM     12  C   UNL     1       0.352  11.659  20.641  0.00  0.00    +0.000 A 
ATOM     13  C   UNL     1      -0.255  12.662  21.399  0.00  0.00    +0.000 A 
ATOM     14  C   UNL     1      -0.876  12.324  22.603  0.00  0.00    +0.000 A 
ATOM     15  C   UNL     1      -0.905  10.990  23.040  0.00  0.00    +0.000 A 
ATOM     16  C   UNL     1      -0.293   9.988  22.273  0.00  0.00    +0.000 A 
BRANCH  14  17
ATOM     17  N   UNL     1      -1.505  13.376  23.413  0.00  0.00    +0.000 N 
ATOM     18  O   UNL     1      -0.795  14.322  23.783  0.00  0.00    +0.000 OA
ATOM     19  O   UNL     1      -2.708  13.248  23.684  0.00  0.00    +0.000 OA
ENDBRANCH  14  17
ENDBRANCH   8  11
ENDBRANCH   4   7
BRANCH   1  20
ATOM     20  S   UNL     1       4.206   3.567  18.031  0.00  0.00    +0.000 S 
ATOM     21  O   UNL     1       4.325   3.845  16.619  0.00  0.00    +0.000 OA
ATOM     22  O   UNL     1       3.602   2.358  18.539  0.00  0.00    +0.000 OA
BRANCH  20  23
ATOM     23  N   UNL     1       5.773   3.646  18.707  0.00  0.00    +0.000 NA
ATOM     24  H   UNL     1       5.741   3.256  19.655  0.00  0.00    +0.000 HD
BRANCH  23  25
ATOM     25  C   UNL     1       6.367   5.019  18.711  0.00  0.00    +0.000 C 
BRANCH  25  27
ATOM     26  O   UNL     1       7.538   5.959  16.802  0.00  0.00    +0.000 OA
ATOM     27  C   UNL     1       7.442   5.077  17.641  0.00  0.00    +0.000 C 
BRANCH  27  28
ATOM     28  O   UNL     1       8.292   4.023  17.707  0.00  0.00    +0.000 OA
ATOM     29  H   UNL     1       8.059   3.367  17.010  0.00  0.00    +0.000 HD
ENDBRANCH  27  28
ENDBRANCH  25  27
ENDBRANCH  23  25
ENDBRANCH  20  23
ENDBRANCH   1  20
TORSDOF 8
ENDMDL
MODEL 3
REMARK VINA RESULT:      -7.5      1.475      1.986
REMARK  Name = 
REMARK  8 active torsions:
REMARK  status: ('A' for Active; 'I' for Inactive)
REMARK    1  A    between atoms: C_2  and  O_3
REMARK    2  A    between atoms: C_2  and  C_4
REMARK    3  A    between atoms: C_4  and  N_5
REMARK    4  A    between atoms: N_5  and  S_6
REMARK    5  A    between atoms: S_6  and  C_9
REMARK    6  A    between atoms: C_12  and  N_13
REMARK    7  A    between atoms: C_14  and  C_16
REMARK    8  A    between atoms: C_19  and  N_20
REMARK                            x       y       z     vdW  Elec       q    Type
REMARK                         _______ _______ _______ _____ _____    ______ ____
ROOT
ATOM      1  C   UNL     1       3.130   5.237  18.919  0.00  0.00    +0.000 A 
ATOM      2  C   UNL     1       2.407   4.978  20.080  0.00  0.00    +0.000 A 
ATOM      3  C   UNL     1       1.738   6.026  20.721  0.00  0.00    +0.000 A 
ATOM      4  C   UNL     1       1.778   7.330  20.218  0.00  0.00    +0.000 A 
ATOM      5  C   UNL     1       2.484   7.571  19.033  0.00  0.00    +0.000 A 
ATOM      6  C   UNL     1       3.181   6.535  18.396  0.00  0.00    +0.000 A 
ENDROOT
BRANCH   4   7
ATOM      7  N   UNL     1       1.128   8.420  20.846  0.00  0.00    +0.000 N 
ATOM      8  C   UNL     1       0.543   9.489  20.183  0.00  0.00    +0.000 C 
ATOM      9  O   UNL     1       0.413   9.586  18.966  0.00  0.00    +0.000 OA
ATOM     10  H   UNL     1       1.066   8.381  21.853  0.00  0.00    +0.000 HD
BRANCH   8  11
ATOM     11  C   UNL     1       0.029  10.621  21.009  0.00  0.00    +0.000 A 
ATOM     12  C   UNL     1      -0.646  10.280  22.196  0.00  0.00    +0.000 A 
ATOM     13  C   UNL     1      -1.169  11.266  23.035  0.00  0.00    +0.000 A 
ATOM     14  C   UNL     1      -1.011  12.609  22.689  0.00  0.00    +0.000 A 
ATOM     15  C   UNL     1      -0.321  12.967  21.519  0.00  0.00    +0.000 A 
ATOM     16  C   UNL     1       0.202  11.972  20.681  0.00  0.00    +0.000 A 
BRANCH  14  17
ATOM     17  N   UNL     1      -1.570  13.652  23.559  0.00  0.00    +0.000 N 
ATOM     18  O   UNL     1      -2.802  13.700  23.686  0.00  0.00    +0.000 OA
ATOM     19  O   UNL     1      -0.774  14.428  24.109  0.00  0.00    +0.000 OA
ENDBRANCH  14  17
ENDBRANCH   8  11
ENDBRANCH   4   7
BRANCH   1  20
ATOM     20  S   UNL     1       4.051   3.935  18.135  0.00  0.00    +0.000 S 
ATOM     21  O   UNL     1       3.129   2.938  17.642  0.00  0.00    +0.000 OA
ATOM     22  O   UNL     1       5.150   3.612  19.013  0.00  0.00    +0.000 OA
BRANCH  20  23
ATOM     23  N   UNL     1       4.730   4.725  16.781  0.00  0.00    +0.000 NA
ATOM     24  H   UNL     1       3.981   4.931  16.112  0.00  0.00    +0.000 HD
BRANCH  23  25
ATOM     25  C   UNL     1       5.842   3.968  16.127  0.00  0.00    +0.000 C 
BRANCH  25  27
ATOM     26  O   UNL     1       7.382   5.816  15.801  0.00  0.00    +0.000 OA
ATOM     27  C   UNL     1       7.131   4.744  16.326  0.00  0.00    +0.000 C 
BRANCH  27  28
ATOM     28  O   UNL     1       7.994   4.105  17.154  0.00  0.00    +0.000 OA
ATOM     29  H   UNL     1       8.498   3.428  16.648  0.00  0.00    +0.000 HD
ENDBRANCH  27  28
ENDBRANCH  25  27
ENDBRANCH  23  25
ENDBRANCH  20  23
ENDBRANCH   1  20
TORSDOF 8
ENDMDL
MODEL 4
REMARK VINA RESULT:      -7.5      6.554      8.605
REMARK  Name = 
REMARK  8 active torsions:
REMARK  status: ('A' for Active; 'I' for Inactive)
REMARK    1  A    between atoms: C_2  and  O_3
REMARK    2  A    between atoms: C_2  and  C_4
REMARK    3  A    between atoms: C_4  and  N_5
REMARK    4  A    between atoms: N_5  and  S_6
REMARK    5  A    between atoms: S_6  and  C_9
REMARK    6  A    between atoms: C_12  and  N_13
REMARK    7  A    between atoms: C_14  and  C_16
REMARK    8  A    between atoms: C_19  and  N_20
REMARK                            x       y       z     vdW  Elec       q    Type
REMARK                         _______ _______ _______ _____ _____    ______ ____
ROOT
ATOM      1  C   UNL     1       6.326   5.987  18.040  0.00  0.00    +0.000 A 
ATOM      2  C   UNL     1       7.551   6.070  18.696  0.00  0.00    +0.000 A 
ATOM      3  C   UNL     1       8.302   7.246  18.603  0.00  0.00    +0.000 A 
ATOM      4  C   UNL     1       7.846   8.344  17.867  0.00  0.00    +0.000 A 
ATOM      5  C   UNL     1       6.598   8.259  17.238  0.00  0.00    +0.000 A 
ATOM      6  C   UNL     1       5.848   7.076  17.300  0.00  0.00    +0.000 A 
ENDROOT
BRANCH   4   7
ATOM      7  N   UNL     1       8.583   9.546  17.735  0.00  0.00    +0.000 N 
ATOM      8  C   UNL     1       9.094  10.288  18.790  0.00  0.00    +0.000 C 
ATOM      9  O   UNL     1       9.070   9.954  19.971  0.00  0.00    +0.000 OA
ATOM     10  H   UNL     1       8.772   9.851  16.791  0.00  0.00    +0.000 HD
BRANCH   8  11
ATOM     11  C   UNL     1       9.722  11.604  18.473  0.00  0.00    +0.000 A 
ATOM     12  C   UNL     1       9.089  12.748  18.996  0.00  0.00    +0.000 A 
ATOM     13  C   UNL     1       9.596  14.026  18.752  0.00  0.00    +0.000 A 
ATOM     14  C   UNL     1      10.753  14.164  17.983  0.00  0.00    +0.000 A 
ATOM     15  C   UNL     1      11.410  13.032  17.473  0.00  0.00    +0.000 A 
ATOM     16  C   UNL     1      10.895  11.752  17.722  0.00  0.00    +0.000 A 
BRANCH  14  17
ATOM     17  N   UNL     1      11.285  15.506  17.710  0.00  0.00    +0.000 N 
ATOM     18  O   UNL     1      11.085  16.390  18.556  0.00  0.00    +0.000 OA
ATOM     19  O   UNL     1      11.896  15.675  16.644  0.00  0.00    +0.000 OA
ENDBRANCH  14  17
ENDBRANCH   8  11
ENDBRANCH   4   7
BRANCH   1  20
ATOM     20  S   UNL     1       5.395   4.473  18.081  0.00  0.00    +0.000 S 
ATOM     21  O   UNL     1       4.011   4.765  17.790  0.00  0.00    +0.000 OA
ATOM     22  O   UNL     1       5.808   3.760  19.266  0.00  0.00    +0.000 OA
BRANCH  20  23
ATOM     23  N   UNL     1       6.032   3.612  16.751  0.00  0.00    +0.000 NA
ATOM     24  H   UNL     1       7.053   3.710  16.755  0.00  0.00    +0.000 HD
BRANCH  23  25
ATOM     25  C   UNL     1       5.458   4.018  15.430  0.00  0.00    +0.000 C 
BRANCH  25  27
ATOM     26  O   UNL     1       7.445   5.199  14.685  0.00  0.00    +0.000 OA
ATOM     27  C   UNL     1       6.605   4.336  14.488  0.00  0.00    +0.000 C 
BRANCH  27  28
ATOM     28  O   UNL     1       6.591   3.556  13.378  0.00  0.00    +0.000 OA
ATOM     29  H   UNL     1       7.127   3.980  12.670  0.00  0.00    +0.000 HD
ENDBRANCH  27  28
ENDBRANCH  25  27
ENDBRANCH  23  25
ENDBRANCH  20  23
ENDBRANCH   1  20
TORSDOF 8
ENDMDL
MODEL 5
REMARK VINA RESULT:      -7.5      1.398      1.646
REMARK  Name = 
REMARK  8 active torsions:
REMARK  status: ('A' for Active; 'I' for Inactive)
REMARK    1  A    between atoms: C_2  and  O_3
REMARK    2  A    between atoms: C_2  and  C_4
REMARK    3  A    between atoms: C_4  and  N_5
REMARK    4  A    between atoms: N_5  and  S_6
REMARK    5  A    between atoms: S_6  and  C_9
REMARK    6  A    between atoms: C_12  and  N_13
REMARK    7  A    between atoms: C_14  and  C_16
REMARK    8  A    between atoms: C_19  and  N_20
REMARK                            x       y       z     vdW  Elec       q    Type
REMARK                         _______ _______ _______ _____ _____    ______ ____
ROOT
ATOM      1  C   UNL     1       4.835   5.418  16.602  0.00  0.00    +0.000 A 
ATOM      2  C   UNL     1       3.823   4.777  17.310  0.00  0.00    +0.000 A 
ATOM      3  C   UNL     1       2.934   5.538  18.077  0.00  0.00    +0.000 A 
ATOM      4  C   UNL     1       3.039   6.930  18.146  0.00  0.00    +0.000 A 
ATOM      5  C   UNL     1       4.043   7.564  17.404  0.00  0.00    +0.000 A 
ATOM      6  C   UNL     1       4.957   6.812  16.653  0.00  0.00    +0.000 A 
ENDROOT
BRANCH   4   7
ATOM      7  N   UNL     1       2.170   7.733  18.923  0.00  0.00    +0.000 N 
ATOM      8  C   UNL     1       1.620   8.939  18.515  0.00  0.00    +0.000 C 
ATOM      9  O   UNL     1       1.723   9.423  17.392  0.00  0.00    +0.000 OA
ATOM     10  H   UNL     1       1.914   7.365  19.828  0.00  0.00    +0.000 HD
BRANCH   8  11
ATOM     11  C   UNL     1       0.839   9.722  19.518  0.00  0.00    +0.000 A 
ATOM     12  C   UNL     1       0.442  11.017  19.137  0.00  0.00    +0.000 A 
ATOM     13  C   UNL     1      -0.288  11.831  20.006  0.00  0.00    +0.000 A 
ATOM     14  C   UNL     1      -0.632  11.343  21.268  0.00  0.00    +0.000 A 
ATOM     15  C   UNL     1      -0.263  10.045  21.655  0.00  0.00    +0.000 A 
ATOM     16  C   UNL     1       0.470   9.233  20.777  0.00  0.00    +0.000 A 
BRANCH  14  17
ATOM     17  N   UNL     1      -1.387  12.199  22.193  0.00  0.00    +0.000 N 
ATOM     18  O   UNL     1      -2.211  12.988  21.708  0.00  0.00    +0.000 OA
ATOM     19  O   UNL     1      -1.149  12.083  23.404  0.00  0.00    +0.000 OA
ENDBRANCH  14  17
ENDBRANCH   8  11
ENDBRANCH   4   7
BRANCH   1  20
ATOM     20  S   UNL     1       6.023   4.464  15.686  0.00  0.00    +0.000 S 
ATOM     21  O   UNL     1       5.993   4.880  14.303  0.00  0.00    +0.000 OA
ATOM     22  O   UNL     1       5.854   3.088  16.088  0.00  0.00    +0.000 OA
BRANCH  20  23
ATOM     23  N   UNL     1       7.507   4.984  16.351  0.00  0.00    +0.000 NA
ATOM     24  H   UNL     1       8.267   4.689  15.728  0.00  0.00    +0.000 HD
BRANCH  23  25
ATOM     25  C   UNL     1       7.746   4.514  17.751  0.00  0.00    +0.000 C 
BRANCH  25  27
ATOM     26  O   UNL     1       8.050   6.812  18.474  0.00  0.00    +0.000 OA
ATOM     27  C   UNL     1       7.595   5.700  18.686  0.00  0.00    +0.000 C 
BRANCH  27  28
ATOM     28  O   UNL     1       6.900   5.386  19.807  0.00  0.00    +0.000 OA
ATOM     29  H   UNL     1       5.975   5.151  19.568  0.00  0.00    +0.000 HD
ENDBRANCH  27  28
ENDBRANCH  25  27
ENDBRANCH  23  25
ENDBRANCH  20  23
ENDBRANCH   1  20
TORSDOF 8
ENDMDL
MODEL 6
REMARK VINA RESULT:      -7.4      1.649      2.529
REMARK  Name = 
REMARK  8 active torsions:
REMARK  status: ('A' for Active; 'I' for Inactive)
REMARK    1  A    between atoms: C_2  and  O_3
REMARK    2  A    between atoms: C_2  and  C_4
REMARK    3  A    between atoms: C_4  and  N_5
REMARK    4  A    between atoms: N_5  and  S_6
REMARK    5  A    between atoms: S_6  and  C_9
REMARK    6  A    between atoms: C_12  and  N_13
REMARK    7  A    between atoms: C_14  and  C_16
REMARK    8  A    between atoms: C_19  and  N_20
REMARK                            x       y       z     vdW  Elec       q    Type
REMARK                         _______ _______ _______ _____ _____    ______ ____
ROOT
ATOM      1  C   UNL     1       3.724   5.527  18.811  0.00  0.00    +0.000 A 
ATOM      2  C   UNL     1       2.967   5.350  19.965  0.00  0.00    +0.000 A 
ATOM      3  C   UNL     1       2.085   6.359  20.369  0.00  0.00    +0.000 A 
ATOM      4  C   UNL     1       1.946   7.540  19.635  0.00  0.00    +0.000 A 
ATOM      5  C   UNL     1       2.692   7.692  18.459  0.00  0.00    +0.000 A 
ATOM      6  C   UNL     1       3.598   6.701  18.058  0.00  0.00    +0.000 A 
ENDROOT
BRANCH   4   7
ATOM      7  N   UNL     1       1.077   8.591  20.019  0.00  0.00    +0.000 N 
ATOM      8  C   UNL     1       1.037   9.172  21.278  0.00  0.00    +0.000 C 
ATOM      9  O   UNL     1       1.815   8.932  22.197  0.00  0.00    +0.000 OA
ATOM     10  H   UNL     1       0.473   8.955  19.296  0.00  0.00    +0.000 HD
BRANCH   8  11
ATOM     11  C   UNL     1      -0.039  10.170  21.548  0.00  0.00    +0.000 A 
ATOM     12  C   UNL     1      -0.546  10.212  22.861  0.00  0.00    +0.000 A 
ATOM     13  C   UNL     1      -1.558  11.107  23.213  0.00  0.00    +0.000 A 
ATOM     14  C   UNL     1      -2.066  11.976  22.246  0.00  0.00    +0.000 A 
ATOM     15  C   UNL     1      -1.556  11.963  20.937  0.00  0.00    +0.000 A 
ATOM     16  C   UNL     1      -0.539  11.061  20.590  0.00  0.00    +0.000 A 
BRANCH  14  17
ATOM     17  N   UNL     1      -3.140  12.912  22.605  0.00  0.00    +0.000 N 
ATOM     18  O   UNL     1      -4.127  12.456  23.200  0.00  0.00    +0.000 OA
ATOM     19  O   UNL     1      -2.996  14.100  22.283  0.00  0.00    +0.000 OA
ENDBRANCH  14  17
ENDBRANCH   8  11
ENDBRANCH   4   7
BRANCH   1  20
ATOM     20  S   UNL     1       4.907   4.292  18.325  0.00  0.00    +0.000 S 
ATOM     21  O   UNL     1       4.224   3.033  18.140  0.00  0.00    +0.000 OA
ATOM     22  O   UNL     1       6.047   4.438  19.199  0.00  0.00    +0.000 OA
BRANCH  20  23
ATOM     23  N   UNL     1       5.404   4.841  16.786  0.00  0.00    +0.000 NA
ATOM     24  H   UNL     1       4.728   4.516  16.088  0.00  0.00    +0.000 HD
BRANCH  23  25
ATOM     25  C   UNL     1       6.797   4.438  16.416  0.00  0.00    +0.000 C 
BRANCH  25  27
ATOM     26  O   UNL     1       7.781   5.449  14.439  0.00  0.00    +0.000 OA
ATOM     27  C   UNL     1       6.981   4.668  14.926  0.00  0.00    +0.000 C 
BRANCH  27  28
ATOM     28  O   UNL     1       6.139   3.910  14.181  0.00  0.00    +0.000 OA
ATOM     29  H   UNL     1       6.187   2.973  14.478  0.00  0.00    +0.000 HD
ENDBRANCH  27  28
ENDBRANCH  25  27
ENDBRANCH  23  25
ENDBRANCH  20  23
ENDBRANCH   1  20
TORSDOF 8
ENDMDL
MODEL 7
REMARK VINA RESULT:      -7.4      1.438      1.995
REMARK  Name = 
REMARK  8 active torsions:
REMARK  status: ('A' for Active; 'I' for Inactive)
REMARK    1  A    between atoms: C_2  and  O_3
REMARK    2  A    between atoms: C_2  and  C_4
REMARK    3  A    between atoms: C_4  and  N_5
REMARK    4  A    between atoms: N_5  and  S_6
REMARK    5  A    between atoms: S_6  and  C_9
REMARK    6  A    between atoms: C_12  and  N_13
REMARK    7  A    between atoms: C_14  and  C_16
REMARK    8  A    between atoms: C_19  and  N_20
REMARK                            x       y       z     vdW  Elec       q    Type
REMARK                         _______ _______ _______ _____ _____    ______ ____
ROOT
ATOM      1  C   UNL     1       3.381   4.236  19.557  0.00  0.00    +0.000 A 
ATOM      2  C   UNL     1       2.156   3.981  20.167  0.00  0.00    +0.000 A 
ATOM      3  C   UNL     1       1.391   5.051  20.642  0.00  0.00    +0.000 A 
ATOM      4  C   UNL     1       1.828   6.372  20.514  0.00  0.00    +0.000 A 
ATOM      5  C   UNL     1       3.049   6.616  19.872  0.00  0.00    +0.000 A 
ATOM      6  C   UNL     1       3.838   5.551  19.416  0.00  0.00    +0.000 A 
ENDROOT
BRANCH   4   7
ATOM      7  N   UNL     1       1.091   7.481  20.996  0.00  0.00    +0.000 N 
ATOM      8  C   UNL     1       0.997   8.712  20.364  0.00  0.00    +0.000 C 
ATOM      9  O   UNL     1       1.449   8.977  19.254  0.00  0.00    +0.000 OA
ATOM     10  H   UNL     1       0.571   7.333  21.850  0.00  0.00    +0.000 HD
BRANCH   8  11
ATOM     11  C   UNL     1       0.293   9.812  21.086  0.00  0.00    +0.000 A 
ATOM     12  C   UNL     1      -0.221   9.503  22.360  0.00  0.00    +0.000 A 
ATOM     13  C   UNL     1      -0.900  10.461  23.114  0.00  0.00    +0.000 A 
ATOM     14  C   UNL     1      -1.063  11.747  22.595  0.00  0.00    +0.000 A 
ATOM     15  C   UNL     1      -0.538  12.079  21.335  0.00  0.00    +0.000 A 
ATOM     16  C   UNL     1       0.144  11.111  20.583  0.00  0.00    +0.000 A 
BRANCH  14  17
ATOM     17  N   UNL     1      -1.789  12.757  23.376  0.00  0.00    +0.000 N 
ATOM     18  O   UNL     1      -1.219  13.835  23.598  0.00  0.00    +0.000 OA
ATOM     19  O   UNL     1      -2.927  12.465  23.775  0.00  0.00    +0.000 OA
ENDBRANCH  14  17
ENDBRANCH   8  11
ENDBRANCH   4   7
BRANCH   1  20
ATOM     20  S   UNL     1       4.405   2.886  19.018  0.00  0.00    +0.000 S 
ATOM     21  O   UNL     1       3.749   2.205  17.926  0.00  0.00    +0.000 OA
ATOM     22  O   UNL     1       4.851   2.198  20.207  0.00  0.00    +0.000 OA
BRANCH  20  23
ATOM     23  N   UNL     1       5.771   3.688  18.382  0.00  0.00    +0.000 NA
ATOM     24  H   UNL     1       6.005   4.476  18.996  0.00  0.00    +0.000 HD
BRANCH  23  25
ATOM     25  C   UNL     1       5.608   4.141  16.966  0.00  0.00    +0.000 C 
BRANCH  25  27
ATOM     26  O   UNL     1       6.685   6.179  16.201  0.00  0.00    +0.000 OA
ATOM     27  C   UNL     1       6.783   5.034  16.610  0.00  0.00    +0.000 C 
BRANCH  27  28
ATOM     28  O   UNL     1       7.975   4.410  16.787  0.00  0.00    +0.000 OA
ATOM     29  H   UNL     1       8.248   3.976  15.946  0.00  0.00    +0.000 HD
ENDBRANCH  27  28
ENDBRANCH  25  27
ENDBRANCH  23  25
ENDBRANCH  20  23
ENDBRANCH   1  20
TORSDOF 8
ENDMDL
MODEL 8
REMARK VINA RESULT:      -7.4      1.645      2.083
REMARK  Name = 
REMARK  8 active torsions:
REMARK  status: ('A' for Active; 'I' for Inactive)
REMARK    1  A    between atoms: C_2  and  O_3
REMARK    2  A    between atoms: C_2  and  C_4
REMARK    3  A    between atoms: C_4  and  N_5
REMARK    4  A    between atoms: N_5  and  S_6
REMARK    5  A    between atoms: S_6  and  C_9
REMARK    6  A    between atoms: C_12  and  N_13
REMARK    7  A    between atoms: C_14  and  C_16
REMARK    8  A    between atoms: C_19  and  N_20
REMARK                            x       y       z     vdW  Elec       q    Type
REMARK                         _______ _______ _______ _____ _____    ______ ____
ROOT
ATOM      1  C   UNL     1       3.053   4.905  18.836  0.00  0.00    +0.000 A 
ATOM      2  C   UNL     1       2.473   4.854  20.101  0.00  0.00    +0.000 A 
ATOM      3  C   UNL     1       1.986   6.030  20.680  0.00  0.00    +0.000 A 
ATOM      4  C   UNL     1       2.066   7.257  20.014  0.00  0.00    +0.000 A 
ATOM      5  C   UNL     1       2.624   7.289  18.730  0.00  0.00    +0.000 A 
ATOM      6  C   UNL     1       3.141   6.122  18.150  0.00  0.00    +0.000 A 
ENDROOT
BRANCH   4   7
ATOM      7  N   UNL     1       1.599   8.472  20.573  0.00  0.00    +0.000 N 
ATOM      8  C   UNL     1       0.374   8.641  21.204  0.00  0.00    +0.000 C 
ATOM      9  O   UNL     1      -0.424   7.744  21.457  0.00  0.00    +0.000 OA
ATOM     10  H   UNL     1       2.236   9.254  20.532  0.00  0.00    +0.000 HD
BRANCH   8  11
ATOM     11  C   UNL     1      -0.013  10.024  21.607  0.00  0.00    +0.000 A 
ATOM     12  C   UNL     1      -0.845  10.142  22.737  0.00  0.00    +0.000 A 
ATOM     13  C   UNL     1      -1.267  11.393  23.192  0.00  0.00    +0.000 A 
ATOM     14  C   UNL     1      -0.850  12.541  22.515  0.00  0.00    +0.000 A 
ATOM     15  C   UNL     1      -0.002  12.442  21.400  0.00  0.00    +0.000 A 
ATOM     16  C   UNL     1       0.419  11.183  20.949  0.00  0.00    +0.000 A 
BRANCH  14  17
ATOM     17  N   UNL     1      -1.301  13.859  22.979  0.00  0.00    +0.000 N 
ATOM     18  O   UNL     1      -2.114  13.895  23.915  0.00  0.00    +0.000 OA
ATOM     19  O   UNL     1      -0.847  14.857  22.400  0.00  0.00    +0.000 OA
ENDBRANCH  14  17
ENDBRANCH   8  11
ENDBRANCH   4   7
BRANCH   1  20
ATOM     20  S   UNL     1       3.750   3.436  18.117  0.00  0.00    +0.000 S 
ATOM     21  O   UNL     1       3.118   3.193  16.841  0.00  0.00    +0.000 OA
ATOM     22  O   UNL     1       3.800   2.442  19.162  0.00  0.00    +0.000 OA
BRANCH  20  23
ATOM     23  N   UNL     1       5.364   3.903  17.814  0.00  0.00    +0.000 NA
ATOM     24  H   UNL     1       5.581   4.725  18.387  0.00  0.00    +0.000 HD
BRANCH  23  25
ATOM     25  C   UNL     1       5.665   4.159  16.371  0.00  0.00    +0.000 C 
BRANCH  25  27
ATOM     26  O   UNL     1       7.483   5.451  15.412  0.00  0.00    +0.000 OA
ATOM     27  C   UNL     1       7.090   4.670  16.262  0.00  0.00    +0.000 C 
BRANCH  27  28
ATOM     28  O   UNL     1       7.898   4.148  17.219  0.00  0.00    +0.000 OA
ATOM     29  H   UNL     1       7.909   3.167  17.144  0.00  0.00    +0.000 HD
ENDBRANCH  27  28
ENDBRANCH  25  27
ENDBRANCH  23  25
ENDBRANCH  20  23
ENDBRANCH   1  20
TORSDOF 8
ENDMDL
MODEL 9
REMARK VINA RESULT:      -7.4      1.734      2.581
REMARK  Name = 
REMARK  8 active torsions:
REMARK  status: ('A' for Active; 'I' for Inactive)
REMARK    1  A    between atoms: C_2  and  O_3
REMARK    2  A    between atoms: C_2  and  C_4
REMARK    3  A    between atoms: C_4  and  N_5
REMARK    4  A    between atoms: N_5  and  S_6
REMARK    5  A    between atoms: S_6  and  C_9
REMARK    6  A    between atoms: C_12  and  N_13
REMARK    7  A    between atoms: C_14  and  C_16
REMARK    8  A    between atoms: C_19  and  N_20
REMARK                            x       y       z     vdW  Elec       q    Type
REMARK                         _______ _______ _______ _____ _____    ______ ____
ROOT
ATOM      1  C   UNL     1       3.705   5.883  18.584  0.00  0.00    +0.000 A 
ATOM      2  C   UNL     1       3.564   7.029  17.808  0.00  0.00    +0.000 A 
ATOM      3  C   UNL     1       2.689   8.037  18.226  0.00  0.00    +0.000 A 
ATOM      4  C   UNL     1       1.955   7.919  19.410  0.00  0.00    +0.000 A 
ATOM      5  C   UNL     1       2.129   6.774  20.196  0.00  0.00    +0.000 A 
ATOM      6  C   UNL     1       2.982   5.744  19.775  0.00  0.00    +0.000 A 
ENDROOT
BRANCH   4   7
ATOM      7  N   UNL     1       1.047   8.909  19.859  0.00  0.00    +0.000 N 
ATOM      8  C   UNL     1       0.964   9.384  21.160  0.00  0.00    +0.000 C 
ATOM      9  O   UNL     1       1.730   9.092  22.073  0.00  0.00    +0.000 OA
ATOM     10  H   UNL     1       0.447   9.314  19.155  0.00  0.00    +0.000 HD
BRANCH   8  11
ATOM     11  C   UNL     1      -0.147  10.325  21.486  0.00  0.00    +0.000 A 
ATOM     12  C   UNL     1      -0.588  10.341  22.823  0.00  0.00    +0.000 A 
ATOM     13  C   UNL     1      -1.626  11.183  23.228  0.00  0.00    +0.000 A 
ATOM     14  C   UNL     1      -2.227  12.024  22.289  0.00  0.00    +0.000 A 
ATOM     15  C   UNL     1      -1.784  12.037  20.957  0.00  0.00    +0.000 A 
ATOM     16  C   UNL     1      -0.741  11.188  20.557  0.00  0.00    +0.000 A 
BRANCH  14  17
ATOM     17  N   UNL     1      -3.328  12.903  22.705  0.00  0.00    +0.000 N 
ATOM     18  O   UNL     1      -3.282  14.091  22.357  0.00  0.00    +0.000 OA
ATOM     19  O   UNL     1      -4.235  12.402  23.387  0.00  0.00    +0.000 OA
ENDBRANCH  14  17
ENDBRANCH   8  11
ENDBRANCH   4   7
BRANCH   1  20
ATOM     20  S   UNL     1       4.751   4.556  18.029  0.00  0.00    +0.000 S 
ATOM     21  O   UNL     1       4.047   3.790  17.028  0.00  0.00    +0.000 OA
ATOM     22  O   UNL     1       5.325   3.955  19.209  0.00  0.00    +0.000 OA
BRANCH  20  23
ATOM     23  N   UNL     1       6.020   5.389  17.245  0.00  0.00    +0.000 NA
ATOM     24  H   UNL     1       5.617   6.001  16.528  0.00  0.00    +0.000 HD
BRANCH  23  25
ATOM     25  C   UNL     1       7.067   4.494  16.662  0.00  0.00    +0.000 C 
BRANCH  25  27
ATOM     26  O   UNL     1       6.335   3.761  14.465  0.00  0.00    +0.000 OA
ATOM     27  C   UNL     1       6.960   4.556  15.149  0.00  0.00    +0.000 C 
BRANCH  27  28
ATOM     28  O   UNL     1       7.653   5.597  14.626  0.00  0.00    +0.000 OA
ATOM     29  H   UNL     1       8.490   5.269  14.223  0.00  0.00    +0.000 HD
ENDBRANCH  27  28
ENDBRANCH  25  27
ENDBRANCH  23  25
ENDBRANCH  20  23
ENDBRANCH   1  20
TORSDOF 8
ENDMDL
