MODEL 1
REMARK VINA RESULT:      -8.8      0.000      0.000
REMARK  Name = 
REMARK  7 active torsions:
REMARK  status: ('A' for Active; 'I' for Inactive)
REMARK    1  A    between atoms: C_1  and  S_2
REMARK    2  A    between atoms: S_2  and  C_3
REMARK    3  A    between atoms: C_5  and  C_6
REMARK    4  A    between atoms: C_13  and  C_14
REMARK    5  A    between atoms: C_18  and  O_19
REMARK    6  A    between atoms: O_19  and  C_20
REMARK    7  A    between atoms: C_23  and  C_24
REMARK                            x       y       z     vdW  Elec       q    Type
REMARK                         _______ _______ _______ _____ _____    ______ ____
ROOT
ATOM      1  C   UNL     1       4.588   5.721  16.766  0.00  0.00    +0.000 A 
ATOM      2  N   UNL     1       4.267   4.672  17.479  0.00  0.00    +0.000 NA
ATOM      3  C   UNL     1       3.309   5.124  18.368  0.00  0.00    +0.000 A 
ATOM      4  C   UNL     1       3.099   6.496  18.226  0.00  0.00    +0.000 A 
ATOM      5  N   UNL     1       3.911   6.832  17.161  0.00  0.00    +0.000 N 
ATOM      6  H   UNL     1       4.018   7.745  16.747  0.00  0.00    +0.000 HD
ENDROOT
BRANCH   3   7
ATOM      7  C   UNL     1       2.670   4.241  19.331  0.00  0.00    +0.000 A 
ATOM      8  C   UNL     1       3.416   3.680  20.375  0.00  0.00    +0.000 A 
ATOM      9  C   UNL     1       2.788   2.939  21.374  0.00  0.00    +0.000 A 
ATOM     10  C   UNL     1       1.413   2.766  21.336  0.00  0.00    +0.000 A 
ATOM     11  F   UNL     1       0.799   2.103  22.328  0.00  0.00    +0.000 F 
ATOM     12  C   UNL     1       0.654   3.276  20.292  0.00  0.00    +0.000 A 
ATOM     13  C   UNL     1       1.293   3.966  19.270  0.00  0.00    +0.000 A 
ENDBRANCH   3   7
BRANCH   4  14
ATOM     14  C   UNL     1       2.287   7.491  18.935  0.00  0.00    +0.000 A 
ATOM     15  C   UNL     1       2.123   7.405  20.321  0.00  0.00    +0.000 A 
ATOM     16  C   UNL     1       1.355   8.359  20.960  0.00  0.00    +0.000 A 
ATOM     17  N   UNL     1       0.768   9.388  20.327  0.00  0.00    +0.000 NA
ATOM     18  C   UNL     1       0.975   9.498  18.998  0.00  0.00    +0.000 A 
ATOM     19  C   UNL     1       1.679   8.557  18.262  0.00  0.00    +0.000 A 
BRANCH  18  20
ATOM     20  O   UNL     1       0.480  10.601  18.306  0.00  0.00    +0.000 OA
BRANCH  20  21
ATOM     21  C   UNL     1      -0.886  10.692  18.130  0.00  0.00    +0.000 A 
ATOM     22  C   UNL     1      -1.610   9.852  17.281  0.00  0.00    +0.000 A 
ATOM     23  C   UNL     1      -2.985  10.025  17.119  0.00  0.00    +0.000 A 
ATOM     24  C   UNL     1      -3.663  11.008  17.846  0.00  0.00    +0.000 A 
ATOM     25  C   UNL     1      -5.139  11.200  17.671  0.00  0.00    +0.000 C 
ATOM     26  C   UNL     1      -2.943  11.807  18.746  0.00  0.00    +0.000 A 
ATOM     27  C   UNL     1      -1.561  11.646  18.890  0.00  0.00    +0.000 A 
ENDBRANCH  20  21
ENDBRANCH  18  20
ENDBRANCH   4  14
BRANCH   1  29
ATOM     28  C   UNL     1       6.365   4.149  15.444  0.00  0.00    +0.000 C 
ATOM     29  S   UNL     1       5.695   5.826  15.452  0.00  0.00    +0.000 S 
ENDBRANCH   1  29
TORSDOF 5
ENDMDL
MODEL 2
REMARK VINA RESULT:      -8.6      3.323      7.604
REMARK  Name = 
REMARK  7 active torsions:
REMARK  status: ('A' for Active; 'I' for Inactive)
REMARK    1  A    between atoms: C_1  and  S_2
REMARK    2  A    between atoms: S_2  and  C_3
REMARK    3  A    between atoms: C_5  and  C_6
REMARK    4  A    between atoms: C_13  and  C_14
REMARK    5  A    between atoms: C_18  and  O_19
REMARK    6  A    between atoms: O_19  and  C_20
REMARK    7  A    between atoms: C_23  and  C_24
REMARK                            x       y       z     vdW  Elec       q    Type
REMARK                         _______ _______ _______ _____ _____    ______ ____
ROOT
ATOM      1  C   UNL     1       2.245   8.355  18.074  0.00  0.00    +0.000 A 
ATOM      2  N   UNL     1       1.593   7.256  18.350  0.00  0.00    +0.000 NA
ATOM      3  C   UNL     1       2.555   6.262  18.358  0.00  0.00    +0.000 A 
ATOM      4  C   UNL     1       3.807   6.772  18.013  0.00  0.00    +0.000 A 
ATOM      5  N   UNL     1       3.571   8.126  17.876  0.00  0.00    +0.000 N 
ATOM      6  H   UNL     1       4.247   8.837  17.646  0.00  0.00    +0.000 HD
ENDROOT
BRANCH   3   7
ATOM      7  C   UNL     1       2.233   4.875  18.656  0.00  0.00    +0.000 A 
ATOM      8  C   UNL     1       1.611   4.542  19.866  0.00  0.00    +0.000 A 
ATOM      9  C   UNL     1       1.183   3.238  20.105  0.00  0.00    +0.000 A 
ATOM     10  C   UNL     1       1.366   2.268  19.131  0.00  0.00    +0.000 A 
ATOM     11  F   UNL     1       0.903   1.025  19.334  0.00  0.00    +0.000 F 
ATOM     12  C   UNL     1       2.016   2.560  17.940  0.00  0.00    +0.000 A 
ATOM     13  C   UNL     1       2.490   3.850  17.731  0.00  0.00    +0.000 A 
ENDBRANCH   3   7
BRANCH   4  14
ATOM     14  C   UNL     1       5.131   6.182  17.788  0.00  0.00    +0.000 A 
ATOM     15  C   UNL     1       5.758   5.455  18.804  0.00  0.00    +0.000 A 
ATOM     16  C   UNL     1       7.004   4.910  18.560  0.00  0.00    +0.000 A 
ATOM     17  N   UNL     1       7.646   5.018  17.385  0.00  0.00    +0.000 NA
ATOM     18  C   UNL     1       7.013   5.673  16.390  0.00  0.00    +0.000 A 
ATOM     19  C   UNL     1       5.790   6.305  16.559  0.00  0.00    +0.000 A 
BRANCH  18  20
ATOM     20  O   UNL     1       7.581   5.726  15.120  0.00  0.00    +0.000 OA
BRANCH  20  21
ATOM     21  C   UNL     1       7.031   4.931  14.134  0.00  0.00    +0.000 A 
ATOM     22  C   UNL     1       7.613   4.750  12.877  0.00  0.00    +0.000 A 
ATOM     23  C   UNL     1       6.981   3.965  11.912  0.00  0.00    +0.000 A 
ATOM     24  C   UNL     1       5.786   3.306  12.211  0.00  0.00    +0.000 A 
ATOM     25  C   UNL     1       5.102   2.465  11.174  0.00  0.00    +0.000 C 
ATOM     26  C   UNL     1       5.238   3.438  13.494  0.00  0.00    +0.000 A 
ATOM     27  C   UNL     1       5.860   4.243  14.454  0.00  0.00    +0.000 A 
ENDBRANCH  20  21
ENDBRANCH  18  20
ENDBRANCH   4  14
BRANCH   1  29
ATOM     28  C   UNL     1       0.721  10.084  19.511  0.00  0.00    +0.000 C 
ATOM     29  S   UNL     1       1.638   9.962  17.960  0.00  0.00    +0.000 S 
ENDBRANCH   1  29
TORSDOF 5
ENDMDL
MODEL 3
REMARK VINA RESULT:      -8.6      3.386      7.633
REMARK  Name = 
REMARK  7 active torsions:
REMARK  status: ('A' for Active; 'I' for Inactive)
REMARK    1  A    between atoms: C_1  and  S_2
REMARK    2  A    between atoms: S_2  and  C_3
REMARK    3  A    between atoms: C_5  and  C_6
REMARK    4  A    between atoms: C_13  and  C_14
REMARK    5  A    between atoms: C_18  and  O_19
REMARK    6  A    between atoms: O_19  and  C_20
REMARK    7  A    between atoms: C_23  and  C_24
REMARK                            x       y       z     vdW  Elec       q    Type
REMARK                         _______ _______ _______ _____ _____    ______ ____
ROOT
ATOM      1  C   UNL     1       2.155   8.436  18.013  0.00  0.00    +0.000 A 
ATOM      2  N   UNL     1       1.504   7.323  18.225  0.00  0.00    +0.000 NA
ATOM      3  C   UNL     1       2.477   6.341  18.259  0.00  0.00    +0.000 A 
ATOM      4  C   UNL     1       3.738   6.874  17.994  0.00  0.00    +0.000 A 
ATOM      5  N   UNL     1       3.492   8.228  17.880  0.00  0.00    +0.000 N 
ATOM      6  H   UNL     1       4.170   8.953  17.704  0.00  0.00    +0.000 HD
ENDROOT
BRANCH   3   7
ATOM      7  C   UNL     1       2.157   4.943  18.503  0.00  0.00    +0.000 A 
ATOM      8  C   UNL     1       2.369   3.987  17.501  0.00  0.00    +0.000 A 
ATOM      9  C   UNL     1       2.189   2.632  17.768  0.00  0.00    +0.000 A 
ATOM     10  C   UNL     1       1.805   2.229  19.038  0.00  0.00    +0.000 A 
ATOM     11  F   UNL     1       1.687   0.921  19.314  0.00  0.00    +0.000 F 
ATOM     12  C   UNL     1       1.548   3.156  20.038  0.00  0.00    +0.000 A 
ATOM     13  C   UNL     1       1.676   4.510  19.751  0.00  0.00    +0.000 A 
ENDBRANCH   3   7
BRANCH   4  14
ATOM     14  C   UNL     1       5.080   6.306  17.824  0.00  0.00    +0.000 A 
ATOM     15  C   UNL     1       5.717   5.676  18.896  0.00  0.00    +0.000 A 
ATOM     16  C   UNL     1       6.980   5.148  18.703  0.00  0.00    +0.000 A 
ATOM     17  N   UNL     1       7.629   5.184  17.528  0.00  0.00    +0.000 NA
ATOM     18  C   UNL     1       6.987   5.744  16.481  0.00  0.00    +0.000 A 
ATOM     19  C   UNL     1       5.746   6.353  16.593  0.00  0.00    +0.000 A 
BRANCH  18  20
ATOM     20  O   UNL     1       7.566   5.716  15.215  0.00  0.00    +0.000 OA
BRANCH  20  21
ATOM     21  C   UNL     1       6.983   4.910  14.258  0.00  0.00    +0.000 A 
ATOM     22  C   UNL     1       5.821   4.167  14.482  0.00  0.00    +0.000 A 
ATOM     23  C   UNL     1       5.308   3.339  13.483  0.00  0.00    +0.000 A 
ATOM     24  C   UNL     1       5.921   3.284  12.228  0.00  0.00    +0.000 A 
ATOM     25  C   UNL     1       5.375   2.392  11.154  0.00  0.00    +0.000 C 
ATOM     26  C   UNL     1       7.049   4.080  11.986  0.00  0.00    +0.000 A 
ATOM     27  C   UNL     1       7.576   4.893  12.996  0.00  0.00    +0.000 A 
ENDBRANCH  20  21
ENDBRANCH  18  20
ENDBRANCH   4  14
BRANCH   1  29
ATOM     28  C   UNL     1       0.909  10.265  19.588  0.00  0.00    +0.000 C 
ATOM     29  S   UNL     1       1.533  10.039  17.909  0.00  0.00    +0.000 S 
ENDBRANCH   1  29
TORSDOF 5
ENDMDL
MODEL 4
REMARK VINA RESULT:      -8.2      0.681      1.431
REMARK  Name = 
REMARK  7 active torsions:
REMARK  status: ('A' for Active; 'I' for Inactive)
REMARK    1  A    between atoms: C_1  and  S_2
REMARK    2  A    between atoms: S_2  and  C_3
REMARK    3  A    between atoms: C_5  and  C_6
REMARK    4  A    between atoms: C_13  and  C_14
REMARK    5  A    between atoms: C_18  and  O_19
REMARK    6  A    between atoms: O_19  and  C_20
REMARK    7  A    between atoms: C_23  and  C_24
REMARK                            x       y       z     vdW  Elec       q    Type
REMARK                         _______ _______ _______ _____ _____    ______ ____
ROOT
ATOM      1  C   UNL     1       4.403   5.983  17.139  0.00  0.00    +0.000 A 
ATOM      2  N   UNL     1       4.062   4.967  17.888  0.00  0.00    +0.000 NA
ATOM      3  C   UNL     1       3.072   5.454  18.722  0.00  0.00    +0.000 A 
ATOM      4  C   UNL     1       2.861   6.817  18.509  0.00  0.00    +0.000 A 
ATOM      5  N   UNL     1       3.709   7.108  17.458  0.00  0.00    +0.000 N 
ATOM      6  H   UNL     1       3.827   8.001  17.006  0.00  0.00    +0.000 HD
ENDROOT
BRANCH   3   7
ATOM      7  C   UNL     1       2.403   4.613  19.702  0.00  0.00    +0.000 A 
ATOM      8  C   UNL     1       1.231   3.928  19.358  0.00  0.00    +0.000 A 
ATOM      9  C   UNL     1       0.656   3.022  20.246  0.00  0.00    +0.000 A 
ATOM     10  C   UNL     1       1.256   2.792  21.474  0.00  0.00    +0.000 A 
ATOM     11  F   UNL     1       0.737   1.877  22.308  0.00  0.00    +0.000 F 
ATOM     12  C   UNL     1       2.394   3.487  21.858  0.00  0.00    +0.000 A 
ATOM     13  C   UNL     1       2.932   4.430  20.991  0.00  0.00    +0.000 A 
ENDBRANCH   3   7
BRANCH   4  14
ATOM     14  C   UNL     1       2.021   7.839  19.143  0.00  0.00    +0.000 A 
ATOM     15  C   UNL     1       1.849   7.845  20.530  0.00  0.00    +0.000 A 
ATOM     16  C   UNL     1       1.054   8.823  21.097  0.00  0.00    +0.000 A 
ATOM     17  N   UNL     1       0.449   9.792  20.390  0.00  0.00    +0.000 NA
ATOM     18  C   UNL     1       0.663   9.814  19.058  0.00  0.00    +0.000 A 
ATOM     19  C   UNL     1       1.394   8.842  18.393  0.00  0.00    +0.000 A 
BRANCH  18  20
ATOM     20  O   UNL     1       0.149  10.855  18.289  0.00  0.00    +0.000 OA
BRANCH  20  21
ATOM     21  C   UNL     1      -1.223  10.954  18.175  0.00  0.00    +0.000 A 
ATOM     22  C   UNL     1      -1.987  11.898  18.866  0.00  0.00    +0.000 A 
ATOM     23  C   UNL     1      -3.375  11.916  18.736  0.00  0.00    +0.000 A 
ATOM     24  C   UNL     1      -4.015  11.025  17.870  0.00  0.00    +0.000 A 
ATOM     25  C   UNL     1      -5.508  11.039  17.731  0.00  0.00    +0.000 C 
ATOM     26  C   UNL     1      -3.240  10.122  17.129  0.00  0.00    +0.000 A 
ATOM     27  C   UNL     1      -1.850  10.090  17.277  0.00  0.00    +0.000 A 
ENDBRANCH  20  21
ENDBRANCH  18  20
ENDBRANCH   4  14
BRANCH   1  29
ATOM     28  C   UNL     1       7.094   6.130  16.800  0.00  0.00    +0.000 C 
ATOM     29  S   UNL     1       5.555   6.033  15.860  0.00  0.00    +0.000 S 
ENDBRANCH   1  29
TORSDOF 5
ENDMDL
MODEL 5
REMARK VINA RESULT:      -8.2      2.182      2.837
REMARK  Name = 
REMARK  7 active torsions:
REMARK  status: ('A' for Active; 'I' for Inactive)
REMARK    1  A    between atoms: C_1  and  S_2
REMARK    2  A    between atoms: S_2  and  C_3
REMARK    3  A    between atoms: C_5  and  C_6
REMARK    4  A    between atoms: C_13  and  C_14
REMARK    5  A    between atoms: C_18  and  O_19
REMARK    6  A    between atoms: O_19  and  C_20
REMARK    7  A    between atoms: C_23  and  C_24
REMARK                            x       y       z     vdW  Elec       q    Type
REMARK                         _______ _______ _______ _____ _____    ______ ____
ROOT
ATOM      1  C   UNL     1       5.232   4.620  16.514  0.00  0.00    +0.000 A 
ATOM      2  N   UNL     1       4.740   3.732  17.339  0.00  0.00    +0.000 NA
ATOM      3  C   UNL     1       3.780   4.413  18.065  0.00  0.00    +0.000 A 
ATOM      4  C   UNL     1       3.744   5.762  17.710  0.00  0.00    +0.000 A 
ATOM      5  N   UNL     1       4.665   5.843  16.684  0.00  0.00    +0.000 N 
ATOM      6  H   UNL     1       4.907   6.666  16.154  0.00  0.00    +0.000 HD
ENDROOT
BRANCH   3   7
ATOM      7  C   UNL     1       2.974   3.759  19.084  0.00  0.00    +0.000 A 
ATOM      8  C   UNL     1       3.565   3.326  20.278  0.00  0.00    +0.000 A 
ATOM      9  C   UNL     1       2.780   2.818  21.311  0.00  0.00    +0.000 A 
ATOM     10  C   UNL     1       1.404   2.751  21.156  0.00  0.00    +0.000 A 
ATOM     11  F   UNL     1       0.641   2.315  22.170  0.00  0.00    +0.000 F 
ATOM     12  C   UNL     1       0.796   3.134  19.969  0.00  0.00    +0.000 A 
ATOM     13  C   UNL     1       1.589   3.588  18.922  0.00  0.00    +0.000 A 
ENDBRANCH   3   7
BRANCH   4  14
ATOM     14  C   UNL     1       3.005   6.933  18.194  0.00  0.00    +0.000 A 
ATOM     15  C   UNL     1       2.852   8.055  17.375  0.00  0.00    +0.000 A 
ATOM     16  C   UNL     1       2.148   9.141  17.860  0.00  0.00    +0.000 A 
ATOM     17  N   UNL     1       1.577   9.175  19.075  0.00  0.00    +0.000 NA
ATOM     18  C   UNL     1       1.681   8.069  19.841  0.00  0.00    +0.000 A 
ATOM     19  C   UNL     1       2.417   6.955  19.465  0.00  0.00    +0.000 A 
BRANCH  18  20
ATOM     20  O   UNL     1       1.021   8.006  21.065  0.00  0.00    +0.000 OA
BRANCH  20  21
ATOM     21  C   UNL     1       0.277   9.102  21.453  0.00  0.00    +0.000 A 
ATOM     22  C   UNL     1      -0.292  10.004  20.550  0.00  0.00    +0.000 A 
ATOM     23  C   UNL     1      -0.999  11.115  21.011  0.00  0.00    +0.000 A 
ATOM     24  C   UNL     1      -1.191  11.310  22.382  0.00  0.00    +0.000 A 
ATOM     25  C   UNL     1      -1.947  12.505  22.881  0.00  0.00    +0.000 C 
ATOM     26  C   UNL     1      -0.674  10.368  23.282  0.00  0.00    +0.000 A 
ATOM     27  C   UNL     1       0.054   9.267  22.819  0.00  0.00    +0.000 A 
ENDBRANCH  20  21
ENDBRANCH  18  20
ENDBRANCH   4  14
BRANCH   1  29
ATOM     28  C   UNL     1       5.401   4.086  13.857  0.00  0.00    +0.000 C 
ATOM     29  S   UNL     1       6.436   4.406  15.302  0.00  0.00    +0.000 S 
ENDBRANCH   1  29
TORSDOF 5
ENDMDL
MODEL 6
REMARK VINA RESULT:      -8.1      3.357      5.553
REMARK  Name = 
REMARK  7 active torsions:
REMARK  status: ('A' for Active; 'I' for Inactive)
REMARK    1  A    between atoms: C_1  and  S_2
REMARK    2  A    between atoms: S_2  and  C_3
REMARK    3  A    between atoms: C_5  and  C_6
REMARK    4  A    between atoms: C_13  and  C_14
REMARK    5  A    between atoms: C_18  and  O_19
REMARK    6  A    between atoms: O_19  and  C_20
REMARK    7  A    between atoms: C_23  and  C_24
REMARK                            x       y       z     vdW  Elec       q    Type
REMARK                         _______ _______ _______ _____ _____    ______ ____
ROOT
ATOM      1  C   UNL     1       6.040   3.940  13.815  0.00  0.00    +0.000 A 
ATOM      2  N   UNL     1       6.920   4.699  14.413  0.00  0.00    +0.000 NA
ATOM      3  C   UNL     1       6.383   4.953  15.662  0.00  0.00    +0.000 A 
ATOM      4  C   UNL     1       5.116   4.383  15.789  0.00  0.00    +0.000 A 
ATOM      5  N   UNL     1       4.951   3.709  14.595  0.00  0.00    +0.000 N 
ATOM      6  H   UNL     1       4.155   3.154  14.319  0.00  0.00    +0.000 HD
ENDROOT
BRANCH   3   7
ATOM      7  C   UNL     1       7.080   5.755  16.656  0.00  0.00    +0.000 A 
ATOM      8  C   UNL     1       7.241   7.132  16.462  0.00  0.00    +0.000 A 
ATOM      9  C   UNL     1       7.791   7.927  17.465  0.00  0.00    +0.000 A 
ATOM     10  C   UNL     1       8.172   7.348  18.666  0.00  0.00    +0.000 A 
ATOM     11  F   UNL     1       8.648   8.121  19.655  0.00  0.00    +0.000 F 
ATOM     12  C   UNL     1       8.062   5.980  18.870  0.00  0.00    +0.000 A 
ATOM     13  C   UNL     1       7.564   5.185  17.846  0.00  0.00    +0.000 A 
ENDBRANCH   3   7
BRANCH   4  14
ATOM     14  C   UNL     1       4.080   4.399  16.828  0.00  0.00    +0.000 A 
ATOM     15  C   UNL     1       3.190   3.329  16.950  0.00  0.00    +0.000 A 
ATOM     16  C   UNL     1       2.228   3.374  17.941  0.00  0.00    +0.000 A 
ATOM     17  N   UNL     1       2.109   4.384  18.817  0.00  0.00    +0.000 NA
ATOM     18  C   UNL     1       3.005   5.389  18.730  0.00  0.00    +0.000 A 
ATOM     19  C   UNL     1       3.966   5.461  17.733  0.00  0.00    +0.000 A 
BRANCH  18  20
ATOM     20  O   UNL     1       2.998   6.411  19.676  0.00  0.00    +0.000 OA
BRANCH  20  21
ATOM     21  C   UNL     1       2.242   7.534  19.405  0.00  0.00    +0.000 A 
ATOM     22  C   UNL     1       2.132   8.099  18.133  0.00  0.00    +0.000 A 
ATOM     23  C   UNL     1       1.384   9.260  17.937  0.00  0.00    +0.000 A 
ATOM     24  C   UNL     1       0.691   9.842  19.002  0.00  0.00    +0.000 A 
ATOM     25  C   UNL     1      -0.111  11.092  18.797  0.00  0.00    +0.000 C 
ATOM     26  C   UNL     1       0.752   9.236  20.265  0.00  0.00    +0.000 A 
ATOM     27  C   UNL     1       1.520   8.084  20.465  0.00  0.00    +0.000 A 
ENDBRANCH  20  21
ENDBRANCH  18  20
ENDBRANCH   4  14
BRANCH   1  29
ATOM     28  C   UNL     1       4.387   3.297  11.758  0.00  0.00    +0.000 C 
ATOM     29  S   UNL     1       6.124   3.232  12.248  0.00  0.00    +0.000 S 
ENDBRANCH   1  29
TORSDOF 5
ENDMDL
MODEL 7
REMARK VINA RESULT:      -8.1      3.372      5.514
REMARK  Name = 
REMARK  7 active torsions:
REMARK  status: ('A' for Active; 'I' for Inactive)
REMARK    1  A    between atoms: C_1  and  S_2
REMARK    2  A    between atoms: S_2  and  C_3
REMARK    3  A    between atoms: C_5  and  C_6
REMARK    4  A    between atoms: C_13  and  C_14
REMARK    5  A    between atoms: C_18  and  O_19
REMARK    6  A    between atoms: O_19  and  C_20
REMARK    7  A    between atoms: C_23  and  C_24
REMARK                            x       y       z     vdW  Elec       q    Type
REMARK                         _______ _______ _______ _____ _____    ______ ____
ROOT
ATOM      1  C   UNL     1       5.946   4.021  14.114  0.00  0.00    +0.000 A 
ATOM      2  N   UNL     1       6.774   4.851  14.693  0.00  0.00    +0.000 NA
ATOM      3  C   UNL     1       6.209   5.119  15.926  0.00  0.00    +0.000 A 
ATOM      4  C   UNL     1       4.975   4.481  16.062  0.00  0.00    +0.000 A 
ATOM      5  N   UNL     1       4.863   3.756  14.892  0.00  0.00    +0.000 N 
ATOM      6  H   UNL     1       4.104   3.147  14.629  0.00  0.00    +0.000 HD
ENDROOT
BRANCH   3   7
ATOM      7  C   UNL     1       6.848   5.994  16.897  0.00  0.00    +0.000 A 
ATOM      8  C   UNL     1       7.478   5.453  18.025  0.00  0.00    +0.000 A 
ATOM      9  C   UNL     1       8.202   6.270  18.890  0.00  0.00    +0.000 A 
ATOM     10  C   UNL     1       8.305   7.626  18.625  0.00  0.00    +0.000 A 
ATOM     11  F   UNL     1       9.049   8.406  19.424  0.00  0.00    +0.000 F 
ATOM     12  C   UNL     1       7.657   8.197  17.538  0.00  0.00    +0.000 A 
ATOM     13  C   UNL     1       6.891   7.386  16.709  0.00  0.00    +0.000 A 
ENDBRANCH   3   7
BRANCH   4  14
ATOM     14  C   UNL     1       3.929   4.476  17.090  0.00  0.00    +0.000 A 
ATOM     15  C   UNL     1       3.033   3.407  17.174  0.00  0.00    +0.000 A 
ATOM     16  C   UNL     1       2.060   3.431  18.156  0.00  0.00    +0.000 A 
ATOM     17  N   UNL     1       1.936   4.419  19.057  0.00  0.00    +0.000 NA
ATOM     18  C   UNL     1       2.838   5.421  19.006  0.00  0.00    +0.000 A 
ATOM     19  C   UNL     1       3.810   5.514  18.022  0.00  0.00    +0.000 A 
BRANCH  18  20
ATOM     20  O   UNL     1       2.826   6.418  19.979  0.00  0.00    +0.000 OA
BRANCH  20  21
ATOM     21  C   UNL     1       2.104   7.564  19.716  0.00  0.00    +0.000 A 
ATOM     22  C   UNL     1       1.376   8.255  20.688  0.00  0.00    +0.000 A 
ATOM     23  C   UNL     1       0.634   9.386  20.345  0.00  0.00    +0.000 A 
ATOM     24  C   UNL     1       0.654   9.872  19.035  0.00  0.00    +0.000 A 
ATOM     25  C   UNL     1      -0.146  11.085  18.663  0.00  0.00    +0.000 C 
ATOM     26  C   UNL     1       1.437   9.214  18.077  0.00  0.00    +0.000 A 
ATOM     27  C   UNL     1       2.162   8.067  18.417  0.00  0.00    +0.000 A 
ENDBRANCH  20  21
ENDBRANCH  18  20
ENDBRANCH   4  14
BRANCH   1  29
ATOM     28  C   UNL     1       7.318   4.328  11.790  0.00  0.00    +0.000 C 
ATOM     29  S   UNL     1       6.088   3.264  12.575  0.00  0.00    +0.000 S 
ENDBRANCH   1  29
TORSDOF 5
ENDMDL
MODEL 8
REMARK VINA RESULT:      -7.9      2.204      2.897
REMARK  Name = 
REMARK  7 active torsions:
REMARK  status: ('A' for Active; 'I' for Inactive)
REMARK    1  A    between atoms: C_1  and  S_2
REMARK    2  A    between atoms: S_2  and  C_3
REMARK    3  A    between atoms: C_5  and  C_6
REMARK    4  A    between atoms: C_13  and  C_14
REMARK    5  A    between atoms: C_18  and  O_19
REMARK    6  A    between atoms: O_19  and  C_20
REMARK    7  A    between atoms: C_23  and  C_24
REMARK                            x       y       z     vdW  Elec       q    Type
REMARK                         _______ _______ _______ _____ _____    ______ ____
ROOT
ATOM      1  C   UNL     1       4.914   4.283  16.393  0.00  0.00    +0.000 A 
ATOM      2  N   UNL     1       4.443   3.433  17.268  0.00  0.00    +0.000 NA
ATOM      3  C   UNL     1       3.585   4.174  18.060  0.00  0.00    +0.000 A 
ATOM      4  C   UNL     1       3.594   5.519  17.689  0.00  0.00    +0.000 A 
ATOM      5  N   UNL     1       4.431   5.539  16.590  0.00  0.00    +0.000 N 
ATOM      6  H   UNL     1       4.674   6.341  16.030  0.00  0.00    +0.000 HD
ENDROOT
BRANCH   3   7
ATOM      7  C   UNL     1       2.831   3.578  19.152  0.00  0.00    +0.000 A 
ATOM      8  C   UNL     1       3.488   3.160  20.316  0.00  0.00    +0.000 A 
ATOM      9  C   UNL     1       2.760   2.708  21.415  0.00  0.00    +0.000 A 
ATOM     10  C   UNL     1       1.376   2.682  21.355  0.00  0.00    +0.000 A 
ATOM     11  F   UNL     1       0.671   2.302  22.432  0.00  0.00    +0.000 F 
ATOM     12  C   UNL     1       0.700   3.050  20.200  0.00  0.00    +0.000 A 
ATOM     13  C   UNL     1       1.433   3.447  19.089  0.00  0.00    +0.000 A 
ENDBRANCH   3   7
BRANCH   4  14
ATOM     14  C   UNL     1       2.964   6.735  18.215  0.00  0.00    +0.000 A 
ATOM     15  C   UNL     1       2.844   7.870  17.407  0.00  0.00    +0.000 A 
ATOM     16  C   UNL     1       2.243   8.998  17.932  0.00  0.00    +0.000 A 
ATOM     17  N   UNL     1       1.741   9.064  19.176  0.00  0.00    +0.000 NA
ATOM     18  C   UNL     1       1.809   7.948  19.932  0.00  0.00    +0.000 A 
ATOM     19  C   UNL     1       2.446   6.790  19.515  0.00  0.00    +0.000 A 
BRANCH  18  20
ATOM     20  O   UNL     1       1.211   7.923  21.189  0.00  0.00    +0.000 OA
BRANCH  20  21
ATOM     21  C   UNL     1       0.441   9.008  21.558  0.00  0.00    +0.000 A 
ATOM     22  C   UNL     1       0.214   9.376  22.886  0.00  0.00    +0.000 A 
ATOM     23  C   UNL     1      -0.610  10.459  23.189  0.00  0.00    +0.000 A 
ATOM     24  C   UNL     1      -1.176  11.223  22.165  0.00  0.00    +0.000 A 
ATOM     25  C   UNL     1      -2.066  12.387  22.487  0.00  0.00    +0.000 C 
ATOM     26  C   UNL     1      -0.895  10.891  20.833  0.00  0.00    +0.000 A 
ATOM     27  C   UNL     1      -0.086   9.790  20.530  0.00  0.00    +0.000 A 
ENDBRANCH  20  21
ENDBRANCH  18  20
ENDBRANCH   4  14
BRANCH   1  29
ATOM     28  C   UNL     1       7.338   5.129  15.506  0.00  0.00    +0.000 C 
ATOM     29  S   UNL     1       6.000   3.989  15.090  0.00  0.00    +0.000 S 
ENDBRANCH   1  29
TORSDOF 5
ENDMDL
MODEL 9
REMARK VINA RESULT:      -7.9      2.005      2.990
REMARK  Name = 
REMARK  7 active torsions:
REMARK  status: ('A' for Active; 'I' for Inactive)
REMARK    1  A    between atoms: C_1  and  S_2
REMARK    2  A    between atoms: S_2  and  C_3
REMARK    3  A    between atoms: C_5  and  C_6
REMARK    4  A    between atoms: C_13  and  C_14
REMARK    5  A    between atoms: C_18  and  O_19
REMARK    6  A    between atoms: O_19  and  C_20
REMARK    7  A    between atoms: C_23  and  C_24
REMARK                            x       y       z     vdW  Elec       q    Type
REMARK                         _______ _______ _______ _____ _____    ______ ____
ROOT
ATOM      1  C   UNL     1       4.658   5.805  16.769  0.00  0.00    +0.000 A 
ATOM      2  N   UNL     1       4.328   4.763  17.486  0.00  0.00    +0.000 NA
ATOM      3  C   UNL     1       3.349   5.219  18.350  0.00  0.00    +0.000 A 
ATOM      4  C   UNL     1       3.135   6.589  18.189  0.00  0.00    +0.000 A 
ATOM      5  N   UNL     1       3.968   6.917  17.137  0.00  0.00    +0.000 N 
ATOM      6  H   UNL     1       4.079   7.827  16.715  0.00  0.00    +0.000 HD
ENDROOT
BRANCH   3   7
ATOM      7  C   UNL     1       2.694   4.344  19.309  0.00  0.00    +0.000 A 
ATOM      8  C   UNL     1       3.383   3.907  20.448  0.00  0.00    +0.000 A 
ATOM      9  C   UNL     1       2.725   3.176  21.435  0.00  0.00    +0.000 A 
ATOM     10  C   UNL     1       1.376   2.889  21.289  0.00  0.00    +0.000 A 
ATOM     11  F   UNL     1       0.727   2.235  22.265  0.00  0.00    +0.000 F 
ATOM     12  C   UNL     1       0.679   3.273  20.153  0.00  0.00    +0.000 A 
ATOM     13  C   UNL     1       1.354   3.954  19.147  0.00  0.00    +0.000 A 
ENDBRANCH   3   7
BRANCH   4  14
ATOM     14  C   UNL     1       2.304   7.587  18.870  0.00  0.00    +0.000 A 
ATOM     15  C   UNL     1       2.069   7.486  20.244  0.00  0.00    +0.000 A 
ATOM     16  C   UNL     1       1.284   8.444  20.857  0.00  0.00    +0.000 A 
ATOM     17  N   UNL     1       0.746   9.491  20.209  0.00  0.00    +0.000 NA
ATOM     18  C   UNL     1       1.021   9.614  18.894  0.00  0.00    +0.000 A 
ATOM     19  C   UNL     1       1.747   8.672  18.182  0.00  0.00    +0.000 A 
BRANCH  18  20
ATOM     20  O   UNL     1       0.579  10.734  18.194  0.00  0.00    +0.000 OA
BRANCH  20  21
ATOM     21  C   UNL     1       1.066  11.967  18.578  0.00  0.00    +0.000 A 
ATOM     22  C   UNL     1       0.324  12.891  19.317  0.00  0.00    +0.000 A 
ATOM     23  C   UNL     1       0.863  14.138  19.636  0.00  0.00    +0.000 A 
ATOM     24  C   UNL     1       2.173  14.455  19.267  0.00  0.00    +0.000 A 
ATOM     25  C   UNL     1       2.754  15.796  19.605  0.00  0.00    +0.000 C 
ATOM     26  C   UNL     1       2.937  13.501  18.581  0.00  0.00    +0.000 A 
ATOM     27  C   UNL     1       2.388  12.260  18.242  0.00  0.00    +0.000 A 
ENDBRANCH  20  21
ENDBRANCH  18  20
ENDBRANCH   4  14
BRANCH   1  29
ATOM     28  C   UNL     1       6.326   4.180  15.371  0.00  0.00    +0.000 C 
ATOM     29  S   UNL     1       5.792   5.902  15.477  0.00  0.00    +0.000 S 
ENDBRANCH   1  29
TORSDOF 5
ENDMDL
