MODEL 1
REMARK VINA RESULT:      -7.7      0.000      0.000
REMARK  Name = 
REMARK  4 active torsions:
REMARK  status: ('A' for Active; 'I' for Inactive)
REMARK    1  A    between atoms: C_1  and  C_2
REMARK    2  A    between atoms: C_7  and  C_8
REMARK    3  A    between atoms: N_13  and  C_14
REMARK    4  A    between atoms: C_14  and  C_15
REMARK                            x       y       z     vdW  Elec       q    Type
REMARK                         _______ _______ _______ _____ _____    ______ ____
ROOT
ATOM      1  C   UNL     1       1.140   9.320  19.834  0.00  0.00    +0.000 A 
ATOM      2  C   UNL     1       1.271   9.826  18.550  0.00  0.00    +0.000 A 
ATOM      3  N   UNL     1       1.908   9.151  17.593  0.00  0.00    +0.000 NA
ATOM      4  N   UNL     1       2.475   7.958  17.919  0.00  0.00    +0.000 NA
ATOM      5  C   UNL     1       2.401   7.490  19.189  0.00  0.00    +0.000 A 
ATOM      6  N   UNL     1       3.067   6.335  19.568  0.00  0.00    +0.000 N 
ATOM      7  N   UNL     1       1.727   8.140  20.153  0.00  0.00    +0.000 NA
ATOM      8  H   UNL     1       2.777   6.087  20.508  0.00  0.00    +0.000 HD
ENDROOT
BRANCH   1  15
ATOM      9  C   UNL     1       0.188  12.234  19.645  0.00  0.00    +0.000 C 
ATOM     10  C   UNL     1      -0.113  11.336  20.818  0.00  0.00    +0.000 A 
ATOM     11  C   UNL     1      -0.838  11.903  21.893  0.00  0.00    +0.000 A 
ATOM     12  C   UNL     1      -1.152  11.160  23.025  0.00  0.00    +0.000 A 
ATOM     13  C   UNL     1      -0.744   9.839  23.110  0.00  0.00    +0.000 A 
ATOM     14  C   UNL     1      -0.018   9.267  22.063  0.00  0.00    +0.000 A 
ATOM     15  C   UNL     1       0.318   9.983  20.889  0.00  0.00    +0.000 A 
ENDBRANCH   1  15
BRANCH   6  16
ATOM     16  C   UNL     1       3.083   5.251  18.599  0.00  0.00    +0.000 C 
BRANCH  16  17
ATOM     17  C   UNL     1       1.685   4.582  18.477  0.00  0.00    +0.000 C 
ATOM     18  C   UNL     1       1.145   4.080  19.823  0.00  0.00    +0.000 C 
ATOM     19  C   UNL     1       1.850   2.814  20.294  0.00  0.00    +0.000 C 
ATOM     20  C   UNL     1       1.815   1.761  19.196  0.00  0.00    +0.000 C 
ATOM     21  C   UNL     1       2.328   2.328  17.880  0.00  0.00    +0.000 C 
ATOM     22  O   UNL     1       1.648   3.525  17.504  0.00  0.00    +0.000 OA
ENDBRANCH  16  17
ENDBRANCH   6  16
TORSDOF 3
ENDMDL
MODEL 2
REMARK VINA RESULT:      -7.7      1.424      1.872
REMARK  Name = 
REMARK  4 active torsions:
REMARK  status: ('A' for Active; 'I' for Inactive)
REMARK    1  A    between atoms: C_1  and  C_2
REMARK    2  A    between atoms: C_7  and  C_8
REMARK    3  A    between atoms: N_13  and  C_14
REMARK    4  A    between atoms: C_14  and  C_15
REMARK                            x       y       z     vdW  Elec       q    Type
REMARK                         _______ _______ _______ _____ _____    ______ ____
ROOT
ATOM      1  C   UNL     1       0.812   9.685  19.010  0.00  0.00    +0.000 A 
ATOM      2  C   UNL     1       1.509   9.812  17.819  0.00  0.00    +0.000 A 
ATOM      3  N   UNL     1       2.421   8.915  17.442  0.00  0.00    +0.000 NA
ATOM      4  N   UNL     1       2.691   7.882  18.285  0.00  0.00    +0.000 NA
ATOM      5  C   UNL     1       2.055   7.791  19.479  0.00  0.00    +0.000 A 
ATOM      6  N   UNL     1       2.398   6.813  20.400  0.00  0.00    +0.000 N 
ATOM      7  N   UNL     1       1.105   8.664  19.853  0.00  0.00    +0.000 NA
ATOM      8  H   UNL     1       1.723   6.832  21.158  0.00  0.00    +0.000 HD
ENDROOT
BRANCH   1  15
ATOM      9  C   UNL     1      -1.759   9.985  17.357  0.00  0.00    +0.000 C 
ATOM     10  C   UNL     1      -1.496  10.750  18.629  0.00  0.00    +0.000 A 
ATOM     11  C   UNL     1      -2.482  11.677  19.039  0.00  0.00    +0.000 A 
ATOM     12  C   UNL     1      -2.325  12.440  20.190  0.00  0.00    +0.000 A 
ATOM     13  C   UNL     1      -1.177  12.297  20.953  0.00  0.00    +0.000 A 
ATOM     14  C   UNL     1      -0.189  11.394  20.556  0.00  0.00    +0.000 A 
ATOM     15  C   UNL     1      -0.309  10.592  19.397  0.00  0.00    +0.000 A 
ENDBRANCH   1  15
BRANCH   6  16
ATOM     16  C   UNL     1       2.715   5.500  19.861  0.00  0.00    +0.000 C 
BRANCH  16  17
ATOM     17  C   UNL     1       1.425   4.721  19.478  0.00  0.00    +0.000 C 
ATOM     18  C   UNL     1       1.083   3.607  20.477  0.00  0.00    +0.000 C 
ATOM     19  C   UNL     1       2.005   2.402  20.339  0.00  0.00    +0.000 C 
ATOM     20  C   UNL     1       2.032   1.931  18.892  0.00  0.00    +0.000 C 
ATOM     21  C   UNL     1       2.341   3.085  17.948  0.00  0.00    +0.000 C 
ATOM     22  O   UNL     1       1.462   4.193  18.141  0.00  0.00    +0.000 OA
ENDBRANCH  16  17
ENDBRANCH   6  16
TORSDOF 3
ENDMDL
MODEL 3
REMARK VINA RESULT:      -7.6      0.870      1.320
REMARK  Name = 
REMARK  4 active torsions:
REMARK  status: ('A' for Active; 'I' for Inactive)
REMARK    1  A    between atoms: C_1  and  C_2
REMARK    2  A    between atoms: C_7  and  C_8
REMARK    3  A    between atoms: N_13  and  C_14
REMARK    4  A    between atoms: C_14  and  C_15
REMARK                            x       y       z     vdW  Elec       q    Type
REMARK                         _______ _______ _______ _____ _____    ______ ____
ROOT
ATOM      1  C   UNL     1       1.181   9.189  19.845  0.00  0.00    +0.000 A 
ATOM      2  C   UNL     1       1.227   9.617  18.528  0.00  0.00    +0.000 A 
ATOM      3  N   UNL     1       1.860   8.918  17.585  0.00  0.00    +0.000 NA
ATOM      4  N   UNL     1       2.509   7.781  17.957  0.00  0.00    +0.000 NA
ATOM      5  C   UNL     1       2.517   7.393  19.256  0.00  0.00    +0.000 A 
ATOM      6  N   UNL     1       3.265   6.303  19.674  0.00  0.00    +0.000 N 
ATOM      7  N   UNL     1       1.849   8.066  20.209  0.00  0.00    +0.000 NA
ATOM      8  H   UNL     1       3.031   6.102  20.641  0.00  0.00    +0.000 HD
ENDROOT
BRANCH   1  15
ATOM      9  C   UNL     1       0.379  12.149  19.691  0.00  0.00    +0.000 C 
ATOM     10  C   UNL     1       0.006  11.247  20.840  0.00  0.00    +0.000 A 
ATOM     11  C   UNL     1      -0.714  11.829  21.909  0.00  0.00    +0.000 A 
ATOM     12  C   UNL     1      -1.091  11.082  23.019  0.00  0.00    +0.000 A 
ATOM     13  C   UNL     1      -0.750   9.741  23.088  0.00  0.00    +0.000 A 
ATOM     14  C   UNL     1      -0.029   9.154  22.046  0.00  0.00    +0.000 A 
ATOM     15  C   UNL     1       0.369   9.872  20.894  0.00  0.00    +0.000 A 
ENDBRANCH   1  15
BRANCH   6  16
ATOM     16  C   UNL     1       3.301   5.162  18.776  0.00  0.00    +0.000 C 
BRANCH  16  17
ATOM     17  C   UNL     1       3.319   3.822  19.565  0.00  0.00    +0.000 C 
ATOM     18  C   UNL     1       3.431   2.594  18.652  0.00  0.00    +0.000 C 
ATOM     19  C   UNL     1       2.127   2.294  17.924  0.00  0.00    +0.000 C 
ATOM     20  C   UNL     1       0.982   2.204  18.922  0.00  0.00    +0.000 C 
ATOM     21  C   UNL     1       0.945   3.432  19.821  0.00  0.00    +0.000 C 
ATOM     22  O   UNL     1       2.201   3.677  20.456  0.00  0.00    +0.000 OA
ENDBRANCH  16  17
ENDBRANCH   6  16
TORSDOF 3
ENDMDL
MODEL 4
REMARK VINA RESULT:      -7.5      1.565      2.040
REMARK  Name = 
REMARK  4 active torsions:
REMARK  status: ('A' for Active; 'I' for Inactive)
REMARK    1  A    between atoms: C_1  and  C_2
REMARK    2  A    between atoms: C_7  and  C_8
REMARK    3  A    between atoms: N_13  and  C_14
REMARK    4  A    between atoms: C_14  and  C_15
REMARK                            x       y       z     vdW  Elec       q    Type
REMARK                         _______ _______ _______ _____ _____    ______ ____
ROOT
ATOM      1  C   UNL     1       1.015   9.479  18.786  0.00  0.00    +0.000 A 
ATOM      2  C   UNL     1       1.882   9.549  17.706  0.00  0.00    +0.000 A 
ATOM      3  N   UNL     1       2.814   8.619  17.495  0.00  0.00    +0.000 NA
ATOM      4  N   UNL     1       2.930   7.610  18.400  0.00  0.00    +0.000 NA
ATOM      5  C   UNL     1       2.125   7.574  19.490  0.00  0.00    +0.000 A 
ATOM      6  N   UNL     1       2.302   6.621  20.481  0.00  0.00    +0.000 N 
ATOM      7  N   UNL     1       1.154   8.482  19.694  0.00  0.00    +0.000 NA
ATOM      8  H   UNL     1       1.525   6.682  21.132  0.00  0.00    +0.000 HD
ENDROOT
BRANCH   1  15
ATOM      9  C   UNL     1       1.064  11.793  20.805  0.00  0.00    +0.000 C 
ATOM     10  C   UNL     1      -0.118  11.488  19.920  0.00  0.00    +0.000 A 
ATOM     11  C   UNL     1      -1.266  12.299  20.076  0.00  0.00    +0.000 A 
ATOM     12  C   UNL     1      -2.411  12.087  19.316  0.00  0.00    +0.000 A 
ATOM     13  C   UNL     1      -2.434  11.058  18.389  0.00  0.00    +0.000 A 
ATOM     14  C   UNL     1      -1.313  10.241  18.230  0.00  0.00    +0.000 A 
ATOM     15  C   UNL     1      -0.124  10.424  18.976  0.00  0.00    +0.000 A 
ENDBRANCH   1  15
BRANCH   6  16
ATOM     16  C   UNL     1       2.658   5.285  20.036  0.00  0.00    +0.000 C 
BRANCH  16  17
ATOM     17  C   UNL     1       1.445   4.566  19.380  0.00  0.00    +0.000 C 
ATOM     18  C   UNL     1       1.194   3.169  19.961  0.00  0.00    +0.000 C 
ATOM     19  C   UNL     1       2.219   2.150  19.481  0.00  0.00    +0.000 C 
ATOM     20  C   UNL     1       2.299   2.168  17.961  0.00  0.00    +0.000 C 
ATOM     21  C   UNL     1       2.513   3.584  17.444  0.00  0.00    +0.000 C 
ATOM     22  O   UNL     1       1.538   4.497  17.947  0.00  0.00    +0.000 OA
ENDBRANCH  16  17
ENDBRANCH   6  16
TORSDOF 3
ENDMDL
MODEL 5
REMARK VINA RESULT:      -7.5      0.626      1.492
REMARK  Name = 
REMARK  4 active torsions:
REMARK  status: ('A' for Active; 'I' for Inactive)
REMARK    1  A    between atoms: C_1  and  C_2
REMARK    2  A    between atoms: C_7  and  C_8
REMARK    3  A    between atoms: N_13  and  C_14
REMARK    4  A    between atoms: C_14  and  C_15
REMARK                            x       y       z     vdW  Elec       q    Type
REMARK                         _______ _______ _______ _____ _____    ______ ____
ROOT
ATOM      1  C   UNL     1       1.060   9.580  19.596  0.00  0.00    +0.000 A 
ATOM      2  C   UNL     1       1.392   9.976  18.310  0.00  0.00    +0.000 A 
ATOM      3  N   UNL     1       2.106   9.195  17.499  0.00  0.00    +0.000 NA
ATOM      4  N   UNL     1       2.548   8.002  17.982  0.00  0.00    +0.000 NA
ATOM      5  C   UNL     1       2.277   7.640  19.260  0.00  0.00    +0.000 A 
ATOM      6  N   UNL     1       2.813   6.484  19.807  0.00  0.00    +0.000 N 
ATOM      7  N   UNL     1       1.525   8.399  20.075  0.00  0.00    +0.000 NA
ATOM      8  H   UNL     1       2.386   6.327  20.714  0.00  0.00    +0.000 HD
ENDROOT
BRANCH   1  15
ATOM      9  C   UNL     1       0.960   9.234  22.646  0.00  0.00    +0.000 C 
ATOM     10  C   UNL     1       0.085  10.202  21.891  0.00  0.00    +0.000 A 
ATOM     11  C   UNL     1      -0.851  10.947  22.646  0.00  0.00    +0.000 A 
ATOM     12  C   UNL     1      -1.711  11.855  22.038  0.00  0.00    +0.000 A 
ATOM     13  C   UNL     1      -1.659  12.032  20.665  0.00  0.00    +0.000 A 
ATOM     14  C   UNL     1      -0.749  11.295  19.904  0.00  0.00    +0.000 A 
ATOM     15  C   UNL     1       0.150  10.367  20.480  0.00  0.00    +0.000 A 
ENDBRANCH   1  15
BRANCH   6  16
ATOM     16  C   UNL     1       2.888   5.329  18.929  0.00  0.00    +0.000 C 
BRANCH  16  17
ATOM     17  C   UNL     1       1.501   4.642  18.780  0.00  0.00    +0.000 C 
ATOM     18  C   UNL     1       1.010   4.003  20.086  0.00  0.00    +0.000 C 
ATOM     19  C   UNL     1       1.754   2.715  20.416  0.00  0.00    +0.000 C 
ATOM     20  C   UNL     1       1.710   1.769  19.225  0.00  0.00    +0.000 C 
ATOM     21  C   UNL     1       2.174   2.469  17.955  0.00  0.00    +0.000 C 
ATOM     22  O   UNL     1       1.459   3.681  17.712  0.00  0.00    +0.000 OA
ENDBRANCH  16  17
ENDBRANCH   6  16
TORSDOF 3
ENDMDL
MODEL 6
REMARK VINA RESULT:      -7.4      4.350      8.243
REMARK  Name = 
REMARK  4 active torsions:
REMARK  status: ('A' for Active; 'I' for Inactive)
REMARK    1  A    between atoms: C_1  and  C_2
REMARK    2  A    between atoms: C_7  and  C_8
REMARK    3  A    between atoms: N_13  and  C_14
REMARK    4  A    between atoms: C_14  and  C_15
REMARK                            x       y       z     vdW  Elec       q    Type
REMARK                         _______ _______ _______ _____ _____    ______ ____
ROOT
ATOM      1  C   UNL     1       6.702   4.937  16.297  0.00  0.00    +0.000 A 
ATOM      2  C   UNL     1       7.661   4.513  17.205  0.00  0.00    +0.000 A 
ATOM      3  N   UNL     1       7.427   4.503  18.517  0.00  0.00    +0.000 NA
ATOM      4  N   UNL     1       6.226   4.967  18.958  0.00  0.00    +0.000 NA
ATOM      5  C   UNL     1       5.311   5.440  18.077  0.00  0.00    +0.000 A 
ATOM      6  N   UNL     1       4.130   6.021  18.512  0.00  0.00    +0.000 N 
ATOM      7  N   UNL     1       5.517   5.418  16.749  0.00  0.00    +0.000 NA
ATOM      8  H   UNL     1       3.533   6.183  17.708  0.00  0.00    +0.000 HD
ENDROOT
BRANCH   1  15
ATOM      9  C   UNL     1       4.989   3.110  14.520  0.00  0.00    +0.000 C 
ATOM     10  C   UNL     1       6.103   3.977  13.990  0.00  0.00    +0.000 A 
ATOM     11  C   UNL     1       6.379   3.895  12.605  0.00  0.00    +0.000 A 
ATOM     12  C   UNL     1       7.396   4.645  12.025  0.00  0.00    +0.000 A 
ATOM     13  C   UNL     1       8.161   5.487  12.816  0.00  0.00    +0.000 A 
ATOM     14  C   UNL     1       7.908   5.571  14.187  0.00  0.00    +0.000 A 
ATOM     15  C   UNL     1       6.880   4.833  14.819  0.00  0.00    +0.000 A 
ENDBRANCH   1  15
BRANCH   6  16
ATOM     16  C   UNL     1       3.494   5.407  19.665  0.00  0.00    +0.000 C 
BRANCH  16  17
ATOM     17  C   UNL     1       1.972   5.195  19.424  0.00  0.00    +0.000 C 
ATOM     18  C   UNL     1       1.282   4.463  20.583  0.00  0.00    +0.000 C 
ATOM     19  C   UNL     1       1.614   2.977  20.607  0.00  0.00    +0.000 C 
ATOM     20  C   UNL     1       1.332   2.357  19.246  0.00  0.00    +0.000 C 
ATOM     21  C   UNL     1       2.013   3.147  18.137  0.00  0.00    +0.000 C 
ATOM     22  O   UNL     1       1.685   4.536  18.180  0.00  0.00    +0.000 OA
ENDBRANCH  16  17
ENDBRANCH   6  16
TORSDOF 3
ENDMDL
MODEL 7
REMARK VINA RESULT:      -7.4      2.874      4.031
REMARK  Name = 
REMARK  4 active torsions:
REMARK  status: ('A' for Active; 'I' for Inactive)
REMARK    1  A    between atoms: C_1  and  C_2
REMARK    2  A    between atoms: C_7  and  C_8
REMARK    3  A    between atoms: N_13  and  C_14
REMARK    4  A    between atoms: C_14  and  C_15
REMARK                            x       y       z     vdW  Elec       q    Type
REMARK                         _______ _______ _______ _____ _____    ______ ____
ROOT
ATOM      1  C   UNL     1       1.053   9.559  19.414  0.00  0.00    +0.000 A 
ATOM      2  C   UNL     1       0.882   8.978  20.661  0.00  0.00    +0.000 A 
ATOM      3  N   UNL     1       1.437   7.806  20.969  0.00  0.00    +0.000 NA
ATOM      4  N   UNL     1       2.147   7.159  20.006  0.00  0.00    +0.000 NA
ATOM      5  C   UNL     1       2.264   7.696  18.766  0.00  0.00    +0.000 A 
ATOM      6  N   UNL     1       2.885   7.001  17.740  0.00  0.00    +0.000 N 
ATOM      7  N   UNL     1       1.744   8.895  18.454  0.00  0.00    +0.000 NA
ATOM      8  H   UNL     1       2.985   7.622  16.943  0.00  0.00    +0.000 HD
ENDROOT
BRANCH   1  15
ATOM      9  C   UNL     1      -1.701  10.106  18.168  0.00  0.00    +0.000 C 
ATOM     10  C   UNL     1      -0.704  11.190  18.488  0.00  0.00    +0.000 A 
ATOM     11  C   UNL     1      -1.064  12.516  18.150  0.00  0.00    +0.000 A 
ATOM     12  C   UNL     1      -0.206  13.583  18.393  0.00  0.00    +0.000 A 
ATOM     13  C   UNL     1       1.030  13.347  18.973  0.00  0.00    +0.000 A 
ATOM     14  C   UNL     1       1.405  12.043  19.303  0.00  0.00    +0.000 A 
ATOM     15  C   UNL     1       0.562  10.928  19.081  0.00  0.00    +0.000 A 
ENDBRANCH   1  15
BRANCH   6  16
ATOM     16  C   UNL     1       4.063   6.231  18.101  0.00  0.00    +0.000 C 
BRANCH  16  17
ATOM     17  C   UNL     1       5.310   6.697  17.298  0.00  0.00    +0.000 C 
ATOM     18  C   UNL     1       5.224   6.344  15.807  0.00  0.00    +0.000 C 
ATOM     19  C   UNL     1       5.456   4.861  15.549  0.00  0.00    +0.000 C 
ATOM     20  C   UNL     1       6.755   4.415  16.204  0.00  0.00    +0.000 C 
ATOM     21  C   UNL     1       6.796   4.824  17.670  0.00  0.00    +0.000 C 
ATOM     22  O   UNL     1       6.548   6.219  17.850  0.00  0.00    +0.000 OA
ENDBRANCH  16  17
ENDBRANCH   6  16
TORSDOF 3
ENDMDL
MODEL 8
REMARK VINA RESULT:      -7.3      1.695      2.192
REMARK  Name = 
REMARK  4 active torsions:
REMARK  status: ('A' for Active; 'I' for Inactive)
REMARK    1  A    between atoms: C_1  and  C_2
REMARK    2  A    between atoms: C_7  and  C_8
REMARK    3  A    between atoms: N_13  and  C_14
REMARK    4  A    between atoms: C_14  and  C_15
REMARK                            x       y       z     vdW  Elec       q    Type
REMARK                         _______ _______ _______ _____ _____    ______ ____
ROOT
ATOM      1  C   UNL     1       1.177   9.784  19.267  0.00  0.00    +0.000 A 
ATOM      2  C   UNL     1       1.729   9.850  17.997  0.00  0.00    +0.000 A 
ATOM      3  N   UNL     1       2.364   8.810  17.454  0.00  0.00    +0.000 NA
ATOM      4  N   UNL     1       2.501   7.682  18.202  0.00  0.00    +0.000 NA
ATOM      5  C   UNL     1       2.017   7.637  19.467  0.00  0.00    +0.000 A 
ATOM      6  N   UNL     1       2.246   6.541  20.284  0.00  0.00    +0.000 N 
ATOM      7  N   UNL     1       1.340   8.662  20.012  0.00  0.00    +0.000 NA
ATOM      8  H   UNL     1       1.694   6.645  21.130  0.00  0.00    +0.000 HD
ENDROOT
BRANCH   1  15
ATOM      9  C   UNL     1      -1.735  10.304  18.442  0.00  0.00    +0.000 C 
ATOM     10  C   UNL     1      -1.000  11.136  19.461  0.00  0.00    +0.000 A 
ATOM     11  C   UNL     1      -1.696  12.232  20.021  0.00  0.00    +0.000 A 
ATOM     12  C   UNL     1      -1.098  13.067  20.959  0.00  0.00    +0.000 A 
ATOM     13  C   UNL     1       0.208  12.828  21.351  0.00  0.00    +0.000 A 
ATOM     14  C   UNL     1       0.914  11.757  20.800  0.00  0.00    +0.000 A 
ATOM     15  C   UNL     1       0.344  10.877  19.849  0.00  0.00    +0.000 A 
ENDBRANCH   1  15
BRANCH   6  16
ATOM     16  C   UNL     1       2.193   5.236  19.646  0.00  0.00    +0.000 C 
BRANCH  16  17
ATOM     17  C   UNL     1       3.593   4.560  19.624  0.00  0.00    +0.000 C 
ATOM     18  C   UNL     1       4.242   4.578  18.234  0.00  0.00    +0.000 C 
ATOM     19  C   UNL     1       3.602   3.574  17.284  0.00  0.00    +0.000 C 
ATOM     20  C   UNL     1       3.580   2.193  17.924  0.00  0.00    +0.000 C 
ATOM     21  C   UNL     1       2.959   2.247  19.313  0.00  0.00    +0.000 C 
ATOM     22  O   UNL     1       3.582   3.222  20.149  0.00  0.00    +0.000 OA
ENDBRANCH  16  17
ENDBRANCH   6  16
TORSDOF 3
ENDMDL
MODEL 9
REMARK VINA RESULT:      -7.3      3.354      7.230
REMARK  Name = 
REMARK  4 active torsions:
REMARK  status: ('A' for Active; 'I' for Inactive)
REMARK    1  A    between atoms: C_1  and  C_2
REMARK    2  A    between atoms: C_7  and  C_8
REMARK    3  A    between atoms: N_13  and  C_14
REMARK    4  A    between atoms: C_14  and  C_15
REMARK                            x       y       z     vdW  Elec       q    Type
REMARK                         _______ _______ _______ _____ _____    ______ ____
ROOT
ATOM      1  C   UNL     1       1.824   8.098  19.386  0.00  0.00    +0.000 A 
ATOM      2  C   UNL     1       1.531   8.205  20.737  0.00  0.00    +0.000 A 
ATOM      3  N   UNL     1       0.695   9.134  21.201  0.00  0.00    +0.000 NA
ATOM      4  N   UNL     1       0.163  10.018  20.314  0.00  0.00    +0.000 NA
ATOM      5  C   UNL     1       0.497   9.954  19.001  0.00  0.00    +0.000 A 
ATOM      6  N   UNL     1       0.057  10.913  18.102  0.00  0.00    +0.000 N 
ATOM      7  N   UNL     1       1.306   8.998  18.514  0.00  0.00    +0.000 NA
ATOM      8  H   UNL     1       0.301  10.614  17.164  0.00  0.00    +0.000 HD
ENDROOT
BRANCH   1  15
ATOM      9  C   UNL     1       1.735   5.219  20.452  0.00  0.00    +0.000 C 
ATOM     10  C   UNL     1       2.623   5.656  19.315  0.00  0.00    +0.000 A 
ATOM     11  C   UNL     1       3.479   4.680  18.755  0.00  0.00    +0.000 A 
ATOM     12  C   UNL     1       4.345   4.989  17.712  0.00  0.00    +0.000 A 
ATOM     13  C   UNL     1       4.378   6.281  17.212  0.00  0.00    +0.000 A 
ATOM     14  C   UNL     1       3.546   7.259  17.761  0.00  0.00    +0.000 A 
ATOM     15  C   UNL     1       2.645   6.989  18.817  0.00  0.00    +0.000 A 
ENDBRANCH   1  15
BRANCH   6  16
ATOM     16  C   UNL     1      -1.302  11.395  18.285  0.00  0.00    +0.000 C 
BRANCH  16  17
ATOM     17  C   UNL     1      -2.342  10.283  17.970  0.00  0.00    +0.000 C 
ATOM     18  C   UNL     1      -2.238   9.760  16.531  0.00  0.00    +0.000 C 
ATOM     19  C   UNL     1      -2.796  10.747  15.514  0.00  0.00    +0.000 C 
ATOM     20  C   UNL     1      -4.208  11.158  15.908  0.00  0.00    +0.000 C 
ATOM     21  C   UNL     1      -4.254  11.632  17.354  0.00  0.00    +0.000 C 
ATOM     22  O   UNL     1      -3.695  10.678  18.256  0.00  0.00    +0.000 OA
ENDBRANCH  16  17
ENDBRANCH   6  16
TORSDOF 3
ENDMDL
